VeraChem MOL file


 29 28  0  0  0  0  0  0  0  0999 V2000     
   19.5306   19.9314   18.7440 C   0  0  0  0  0  0  0  0  0  0  0  0
   18.5904   20.4924   18.8259 H   0  0  0  0  0  0  0  0  0  0  0  0
   20.3584   20.6522   18.7241 H   0  0  0  0  0  0  0  0  0  0  0  0
   19.5233   19.3998   17.7835 H   0  0  0  0  0  0  0  0  0  0  0  0
   19.6878   18.9385   19.9150 C   0  0  0  0  0  0  0  0  0  0  0  0
   20.6191   18.3691   19.7876 H   0  0  0  0  0  0  0  0  0  0  0  0
   18.8648   18.2105   19.8887 H   0  0  0  0  0  0  0  0  0  0  0  0
   19.7010   19.6615   21.2799 C   0  0  0  0  0  0  0  0  0  0  0  0
   20.5237   20.3897   21.3006 H   0  0  0  0  0  0  0  0  0  0  0  0
   18.7693   20.2310   21.4016 H   0  0  0  0  0  0  0  0  0  0  0  0
   19.8584   18.6704   22.4551 C   0  0  0  0  0  0  0  0  0  0  0  0
   20.7899   18.1007   22.3314 H   0  0  0  0  0  0  0  0  0  0  0  0
   19.0353   17.9428   22.4339 H   0  0  0  0  0  0  0  0  0  0  0  0
   19.8724   19.3942   23.8204 C   0  0  0  0  0  0  0  0  0  0  0  0
   20.6981   20.1191   23.8421 H   0  0  0  0  0  0  0  0  0  0  0  0
   18.9418   19.9661   23.9336 H   0  0  0  0  0  0  0  0  0  0  0  0
   20.0289   18.3991   24.9958 C   0  0  0  0  0  0  0  0  0  0  0  0
   20.9355   17.8003   24.8354 H   0  0  0  0  0  0  0  0  0  0  0  0
   19.1856   17.6956   25.0018 H   0  0  0  0  0  0  0  0  0  0  0  0
   20.1314   19.0989   26.3682 C   0  0  2  0  0  0  0  0  0  0  0  0
   20.9619   19.8105   26.3292 H   0  0  0  0  0  0  0  0  0  0  0  0
   20.4280   18.0709   27.4716 C   0  0  0  0  0  0  0  0  0  0  0  0
   20.5383   18.5660   28.4442 H   0  0  0  0  0  0  0  0  0  0  0  0
   19.6207   17.3322   27.5534 H   0  0  0  0  0  0  0  0  0  0  0  0
   21.3622   17.5344   27.2637 H   0  0  0  0  0  0  0  0  0  0  0  0
   18.8975   19.8912   26.7041 N   0  3  0  0  0  0  0  0  0  0  0  0
   18.7120   20.6104   25.9998 H   0  0  0  0  0  0  0  0  0  0  0  0
   18.9909   20.3639   27.6077 H   0  0  0  0  0  0  0  0  0  0  0  0
   18.0710   19.2898   26.7565 H   0  0  0  0  0  0  0  0  0  0  0  0
  1  2  1  0  0  0  0
  1  3  1  0  0  0  0
  1  4  1  0  0  0  0
  1  5  1  0  0  0  0
  5  6  1  0  0  0  0
  5  7  1  0  0  0  0
  5  8  1  0  0  0  0
  8  9  1  0  0  0  0
  8 10  1  0  0  0  0
  8 11  1  0  0  0  0
 11 12  1  0  0  0  0
 11 13  1  0  0  0  0
 11 14  1  0  0  0  0
 14 15  1  0  0  0  0
 14 16  1  0  0  0  0
 14 17  1  0  0  0  0
 17 18  1  0  0  0  0
 17 19  1  0  0  0  0
 17 20  1  0  0  0  0
 20 21  1  0  0  0  0
 20 22  1  0  0  0  0
 22 23  1  0  0  0  0
 22 24  1  0  0  0  0
 22 25  1  0  0  0  0
 20 26  1  0  0  0  0
 26 27  1  0  0  0  0
 26 28  1  0  0  0  0
 26 29  1  0  0  0  0
M  END
> <VConfSearch Rank>
1

> <Conf_Id>
164

> <Delta U+W>
0.000

> <U+W>
-27.826

> <U>
23.963

> <W>
-51.789

> <W(PB)>
-54.342

> <W(SA)>
2.554

> <Valence>
3.166

> <Coulomb>
19.734

> <VdW>
1.062

> <VdW6>
-7.938

> <VdW12>
9.001

> <Bond>
0.188

> <Angle>
0.880

> <Pdih>
2.098

> <Idih>
0.000

> <Tether>
0.000

$$$$
VeraChem MOL file


 29 28  0  0  0  0  0  0  0  0999 V2000     
   20.2031   19.4673   18.6904 C   0  0  0  0  0  0  0  0  0  0  0  0
   20.5985   20.4914   18.7045 H   0  0  0  0  0  0  0  0  0  0  0  0
   21.0525   18.7734   18.6438 H   0  0  0  0  0  0  0  0  0  0  0  0
   19.6169   19.3449   17.7704 H   0  0  0  0  0  0  0  0  0  0  0  0
   19.3302   19.1928   19.9333 C   0  0  0  0  0  0  0  0  0  0  0  0
   18.9221   18.1741   19.8744 H   0  0  0  0  0  0  0  0  0  0  0  0
   18.4716   19.8789   19.9345 H   0  0  0  0  0  0  0  0  0  0  0  0
   20.1320   19.3585   21.2431 C   0  0  0  0  0  0  0  0  0  0  0  0
   20.9904   18.6726   21.2360 H   0  0  0  0  0  0  0  0  0  0  0  0
   20.5398   20.3775   21.2964 H   0  0  0  0  0  0  0  0  0  0  0  0
   19.2613   19.0843   22.4899 C   0  0  0  0  0  0  0  0  0  0  0  0
   18.8541   18.0651   22.4360 H   0  0  0  0  0  0  0  0  0  0  0  0
   18.4027   19.7701   22.4947 H   0  0  0  0  0  0  0  0  0  0  0  0
   20.0638   19.2507   23.8002 C   0  0  0  0  0  0  0  0  0  0  0  0
   20.9233   18.5679   23.7813 H   0  0  0  0  0  0  0  0  0  0  0  0
   20.4666   20.2716   23.8563 H   0  0  0  0  0  0  0  0  0  0  0  0
   19.1902   18.9708   25.0478 C   0  0  0  0  0  0  0  0  0  0  0  0
   18.8392   17.9305   25.0284 H   0  0  0  0  0  0  0  0  0  0  0  0
   18.2937   19.6028   24.9953 H   0  0  0  0  0  0  0  0  0  0  0  0
   19.9086   19.2524   26.3872 C   0  0  2  0  0  0  0  0  0  0  0  0
   20.2851   20.2797   26.3655 H   0  0  0  0  0  0  0  0  0  0  0  0
   21.0972   18.3024   26.6195 C   0  0  0  0  0  0  0  0  0  0  0  0
   20.7789   17.2530   26.5862 H   0  0  0  0  0  0  0  0  0  0  0  0
   21.8787   18.4491   25.8651 H   0  0  0  0  0  0  0  0  0  0  0  0
   21.5542   18.4881   27.5993 H   0  0  0  0  0  0  0  0  0  0  0  0
   18.9496   19.1767   27.5426 N   0  3  0  0  0  0  0  0  0  0  0  0
   19.4123   19.4013   28.4281 H   0  0  0  0  0  0  0  0  0  0  0  0
   18.5499   18.2390   27.6361 H   0  0  0  0  0  0  0  0  0  0  0  0
   18.1715   19.8332   27.4306 H   0  0  0  0  0  0  0  0  0  0  0  0
  1  2  1  0  0  0  0
  1  3  1  0  0  0  0
  1  4  1  0  0  0  0
  1  5  1  0  0  0  0
  5  6  1  0  0  0  0
  5  7  1  0  0  0  0
  5  8  1  0  0  0  0
  8  9  1  0  0  0  0
  8 10  1  0  0  0  0
  8 11  1  0  0  0  0
 11 12  1  0  0  0  0
 11 13  1  0  0  0  0
 11 14  1  0  0  0  0
 14 15  1  0  0  0  0
 14 16  1  0  0  0  0
 14 17  1  0  0  0  0
 17 18  1  0  0  0  0
 17 19  1  0  0  0  0
 17 20  1  0  0  0  0
 20 21  1  0  0  0  0
 20 22  1  0  0  0  0
 22 23  1  0  0  0  0
 22 24  1  0  0  0  0
 22 25  1  0  0  0  0
 20 26  1  0  0  0  0
 26 27  1  0  0  0  0
 26 28  1  0  0  0  0
 26 29  1  0  0  0  0
M  END
> <VConfSearch Rank>
2

> <Conf_Id>
58

> <Delta U+W>
0.412

> <U+W>
-27.414

> <U>
24.279

> <W>
-51.694

> <W(PB)>
-54.271

> <W(SA)>
2.577

> <Valence>
3.709

> <Coulomb>
19.380

> <VdW>
1.191

> <VdW6>
-8.093

> <VdW12>
9.284

> <Bond>
0.200

> <Angle>
1.161

> <Pdih>
2.348

> <Idih>
0.000

> <Tether>
0.000

$$$$
VeraChem MOL file


 29 28  0  0  0  0  0  0  0  0999 V2000     
   19.0308   19.3522   18.8498 C   0  0  0  0  0  0  0  0  0  0  0  0
   18.5003   18.3913   18.8268 H   0  0  0  0  0  0  0  0  0  0  0  0
   18.2858   20.1517   18.9554 H   0  0  0  0  0  0  0  0  0  0  0  0
   19.5318   19.4840   17.8820 H   0  0  0  0  0  0  0  0  0  0  0  0
   20.0549   19.3928   20.0036 C   0  0  0  0  0  0  0  0  0  0  0  0
   20.5926   20.3510   19.9804 H   0  0  0  0  0  0  0  0  0  0  0  0
   20.8055   18.6042   19.8528 H   0  0  0  0  0  0  0  0  0  0  0  0
   19.3751   19.2095   21.3785 C   0  0  0  0  0  0  0  0  0  0  0  0
   18.6244   19.9986   21.5238 H   0  0  0  0  0  0  0  0  0  0  0  0
   18.8370   18.2516   21.3960 H   0  0  0  0  0  0  0  0  0  0  0  0
   20.3977   19.2492   22.5364 C   0  0  0  0  0  0  0  0  0  0  0  0
   20.9356   20.2072   22.5173 H   0  0  0  0  0  0  0  0  0  0  0  0
   21.1481   18.4601   22.3898 H   0  0  0  0  0  0  0  0  0  0  0  0
   19.7173   19.0657   23.9118 C   0  0  0  0  0  0  0  0  0  0  0  0
   18.9680   19.8561   24.0512 H   0  0  0  0  0  0  0  0  0  0  0  0
   19.1790   18.1088   23.9191 H   0  0  0  0  0  0  0  0  0  0  0  0
   20.7490   19.1031   25.0692 C   0  0  0  0  0  0  0  0  0  0  0  0
   21.3132   20.0436   25.0189 H   0  0  0  0  0  0  0  0  0  0  0  0
   21.4853   18.3013   24.9249 H   0  0  0  0  0  0  0  0  0  0  0  0
   20.1434   18.9722   26.4866 C   0  0  2  0  0  0  0  0  0  0  0  0
   20.9693   19.0446   27.2010 H   0  0  0  0  0  0  0  0  0  0  0  0
   19.4611   17.6099   26.7011 C   0  0  0  0  0  0  0  0  0  0  0  0
   19.1632   17.4914   27.7501 H   0  0  0  0  0  0  0  0  0  0  0  0
   18.5610   17.5051   26.0839 H   0  0  0  0  0  0  0  0  0  0  0  0
   20.1451   16.7882   26.4550 H   0  0  0  0  0  0  0  0  0  0  0  0
   19.2067   20.1014   26.8170 N   0  3  0  0  0  0  0  0  0  0  0  0
   19.6666   21.0112   26.7197 H   0  0  0  0  0  0  0  0  0  0  0  0
   18.8633   20.0332   27.7793 H   0  0  0  0  0  0  0  0  0  0  0  0
   18.3914   20.1001   26.1991 H   0  0  0  0  0  0  0  0  0  0  0  0
  1  2  1  0  0  0  0
  1  3  1  0  0  0  0
  1  4  1  0  0  0  0
  1  5  1  0  0  0  0
  5  6  1  0  0  0  0
  5  7  1  0  0  0  0
  5  8  1  0  0  0  0
  8  9  1  0  0  0  0
  8 10  1  0  0  0  0
  8 11  1  0  0  0  0
 11 12  1  0  0  0  0
 11 13  1  0  0  0  0
 11 14  1  0  0  0  0
 14 15  1  0  0  0  0
 14 16  1  0  0  0  0
 14 17  1  0  0  0  0
 17 18  1  0  0  0  0
 17 19  1  0  0  0  0
 17 20  1  0  0  0  0
 20 21  1  0  0  0  0
 20 22  1  0  0  0  0
 22 23  1  0  0  0  0
 22 24  1  0  0  0  0
 22 25  1  0  0  0  0
 20 26  1  0  0  0  0
 26 27  1  0  0  0  0
 26 28  1  0  0  0  0
 26 29  1  0  0  0  0
M  END
> <VConfSearch Rank>
3

> <Conf_Id>
137

> <Delta U+W>
0.280

> <U+W>
-27.546

> <U>
24.513

> <W>
-52.059

> <W(PB)>
-54.556

> <W(SA)>
2.497

> <Valence>
3.677

> <Coulomb>
19.662

> <VdW>
1.174

> <VdW6>
-8.569

> <VdW12>
9.743

> <Bond>
0.224

> <Angle>
1.211

> <Pdih>
2.243

> <Idih>
0.000

> <Tether>
0.000

$$$$
VeraChem MOL file


 29 28  0  0  0  0  0  0  0  0999 V2000     
   19.1166   20.2360   19.2407 C   0  0  0  0  0  0  0  0  0  0  0  0
   18.1612   20.6087   19.6326 H   0  0  0  0  0  0  0  0  0  0  0  0
   19.8388   21.0628   19.2570 H   0  0  0  0  0  0  0  0  0  0  0  0
   18.9610   19.9449   18.1938 H   0  0  0  0  0  0  0  0  0  0  0  0
   19.6266   19.0380   20.0694 C   0  0  0  0  0  0  0  0  0  0  0  0
   20.5641   18.6661   19.6328 H   0  0  0  0  0  0  0  0  0  0  0  0
   18.8998   18.2159   20.0075 H   0  0  0  0  0  0  0  0  0  0  0  0
   19.8550   19.4213   21.5483 C   0  0  0  0  0  0  0  0  0  0  0  0
   20.5839   20.2414   21.6049 H   0  0  0  0  0  0  0  0  0  0  0  0
   18.9141   19.8001   21.9675 H   0  0  0  0  0  0  0  0  0  0  0  0
   20.3624   18.2189   22.3806 C   0  0  0  0  0  0  0  0  0  0  0  0
   21.2556   17.8024   21.8946 H   0  0  0  0  0  0  0  0  0  0  0  0
   19.6086   17.4194   22.3760 H   0  0  0  0  0  0  0  0  0  0  0  0
   20.7267   18.5809   23.8418 C   0  0  0  0  0  0  0  0  0  0  0  0
   21.2114   17.7057   24.2928 H   0  0  0  0  0  0  0  0  0  0  0  0
   21.4746   19.3858   23.8456 H   0  0  0  0  0  0  0  0  0  0  0  0
   19.5041   18.9979   24.7004 C   0  0  0  0  0  0  0  0  0  0  0  0
   18.7613   18.1893   24.7053 H   0  0  0  0  0  0  0  0  0  0  0  0
   19.0191   19.8642   24.2350 H   0  0  0  0  0  0  0  0  0  0  0  0
   19.8659   19.3799   26.1543 C   0  0  2  0  0  0  0  0  0  0  0  0
   20.6503   20.1423   26.1240 H   0  0  0  0  0  0  0  0  0  0  0  0
   20.3853   18.1766   26.9618 C   0  0  0  0  0  0  0  0  0  0  0  0
   19.6575   17.3556   26.9630 H   0  0  0  0  0  0  0  0  0  0  0  0
   21.3298   17.7987   26.5543 H   0  0  0  0  0  0  0  0  0  0  0  0
   20.5751   18.4638   28.0034 H   0  0  0  0  0  0  0  0  0  0  0  0
   18.6934   20.0065   26.8567 N   0  3  0  0  0  0  0  0  0  0  0  0
   18.3573   20.8378   26.3619 H   0  0  0  0  0  0  0  0  0  0  0  0
   18.9389   20.2969   27.8076 H   0  0  0  0  0  0  0  0  0  0  0  0
   17.9087   19.3534   26.9299 H   0  0  0  0  0  0  0  0  0  0  0  0
  1  2  1  0  0  0  0
  1  3  1  0  0  0  0
  1  4  1  0  0  0  0
  1  5  1  0  0  0  0
  5  6  1  0  0  0  0
  5  7  1  0  0  0  0
  5  8  1  0  0  0  0
  8  9  1  0  0  0  0
  8 10  1  0  0  0  0
  8 11  1  0  0  0  0
 11 12  1  0  0  0  0
 11 13  1  0  0  0  0
 11 14  1  0  0  0  0
 14 15  1  0  0  0  0
 14 16  1  0  0  0  0
 14 17  1  0  0  0  0
 17 18  1  0  0  0  0
 17 19  1  0  0  0  0
 17 20  1  0  0  0  0
 20 21  1  0  0  0  0
 20 22  1  0  0  0  0
 22 23  1  0  0  0  0
 22 24  1  0  0  0  0
 22 25  1  0  0  0  0
 20 26  1  0  0  0  0
 26 27  1  0  0  0  0
 26 28  1  0  0  0  0
 26 29  1  0  0  0  0
M  END
> <VConfSearch Rank>
4

> <Conf_Id>
40

> <Delta U+W>
1.128

> <U+W>
-26.698

> <U>
25.442

> <W>
-52.140

> <W(PB)>
-54.658

> <W(SA)>
2.519

> <Valence>
4.343

> <Coulomb>
19.740

> <VdW>
1.360

> <VdW6>
-8.739

> <VdW12>
10.099

> <Bond>
0.251

> <Angle>
1.483

> <Pdih>
2.608

> <Idih>
0.000

> <Tether>
0.000

$$$$
VeraChem MOL file


 29 28  0  0  0  0  0  0  0  0999 V2000     
   19.5542   19.8117   19.2267 C   0  0  0  0  0  0  0  0  0  0  0  0
   18.5988   20.2274   19.5696 H   0  0  0  0  0  0  0  0  0  0  0  0
   20.3064   20.6108   19.2514 H   0  0  0  0  0  0  0  0  0  0  0  0
   19.4234   19.5063   18.1805 H   0  0  0  0  0  0  0  0  0  0  0  0
   19.9940   18.6075   20.0900 C   0  0  0  0  0  0  0  0  0  0  0  0
   20.8812   18.1501   19.6301 H   0  0  0  0  0  0  0  0  0  0  0  0
   19.2103   17.8372   20.0779 H   0  0  0  0  0  0  0  0  0  0  0  0
   20.3341   18.9859   21.5520 C   0  0  0  0  0  0  0  0  0  0  0  0
   20.7645   18.1012   22.0378 H   0  0  0  0  0  0  0  0  0  0  0  0
   21.1178   19.7558   21.5582 H   0  0  0  0  0  0  0  0  0  0  0  0
   19.1083   19.4798   22.3620 C   0  0  0  0  0  0  0  0  0  0  0  0
   18.3266   18.7079   22.3609 H   0  0  0  0  0  0  0  0  0  0  0  0
   18.6754   20.3581   21.8661 H   0  0  0  0  0  0  0  0  0  0  0  0
   19.4455   19.8756   23.8210 C   0  0  0  0  0  0  0  0  0  0  0  0
   20.2411   20.6334   23.8216 H   0  0  0  0  0  0  0  0  0  0  0  0
   18.5591   20.3582   24.2531 H   0  0  0  0  0  0  0  0  0  0  0  0
   19.8642   18.6759   24.7099 C   0  0  0  0  0  0  0  0  0  0  0  0
   20.7661   18.2115   24.2931 H   0  0  0  0  0  0  0  0  0  0  0  0
   19.0786   17.9089   24.6933 H   0  0  0  0  0  0  0  0  0  0  0  0
   20.1602   19.0833   26.1698 C   0  0  2  0  0  0  0  0  0  0  0  0
   20.9176   19.8731   26.1587 H   0  0  0  0  0  0  0  0  0  0  0  0
   20.7219   17.8871   26.9548 C   0  0  0  0  0  0  0  0  0  0  0  0
   20.9672   18.1784   27.9836 H   0  0  0  0  0  0  0  0  0  0  0  0
   19.9976   17.0639   26.9959 H   0  0  0  0  0  0  0  0  0  0  0  0
   21.6407   17.5108   26.4880 H   0  0  0  0  0  0  0  0  0  0  0  0
   18.9536   19.6492   26.8678 N   0  3  0  0  0  0  0  0  0  0  0  0
   18.1945   18.9643   26.9144 H   0  0  0  0  0  0  0  0  0  0  0  0
   18.5943   20.4758   26.3828 H   0  0  0  0  0  0  0  0  0  0  0  0
   19.1739   19.9290   27.8278 H   0  0  0  0  0  0  0  0  0  0  0  0
  1  2  1  0  0  0  0
  1  3  1  0  0  0  0
  1  4  1  0  0  0  0
  1  5  1  0  0  0  0
  5  6  1  0  0  0  0
  5  7  1  0  0  0  0
  5  8  1  0  0  0  0
  8  9  1  0  0  0  0
  8 10  1  0  0  0  0
  8 11  1  0  0  0  0
 11 12  1  0  0  0  0
 11 13  1  0  0  0  0
 11 14  1  0  0  0  0
 14 15  1  0  0  0  0
 14 16  1  0  0  0  0
 14 17  1  0  0  0  0
 17 18  1  0  0  0  0
 17 19  1  0  0  0  0
 17 20  1  0  0  0  0
 20 21  1  0  0  0  0
 20 22  1  0  0  0  0
 22 23  1  0  0  0  0
 22 24  1  0  0  0  0
 22 25  1  0  0  0  0
 20 26  1  0  0  0  0
 26 27  1  0  0  0  0
 26 28  1  0  0  0  0
 26 29  1  0  0  0  0
M  END
> <VConfSearch Rank>
5

> <Conf_Id>
134

> <Delta U+W>
1.228

> <U+W>
-26.598

> <U>
25.451

> <W>
-52.048

> <W(PB)>
-54.539

> <W(SA)>
2.490

> <Valence>
4.319

> <Coulomb>
19.732

> <VdW>
1.400

> <VdW6>
-9.173

> <VdW12>
10.573

> <Bond>
0.281

> <Angle>
1.459

> <Pdih>
2.580

> <Idih>
0.000

> <Tether>
0.000

$$$$
VeraChem MOL file


 29 28  0  0  0  0  0  0  0  0999 V2000     
   20.1403   19.1621   19.2041 C   0  0  0  0  0  0  0  0  0  0  0  0
   20.9556   19.8503   19.4592 H   0  0  0  0  0  0  0  0  0  0  0  0
   20.5415   18.1403   19.1962 H   0  0  0  0  0  0  0  0  0  0  0  0
   19.8141   19.4024   18.1839 H   0  0  0  0  0  0  0  0  0  0  0  0
   18.9588   19.2878   20.1926 C   0  0  0  0  0  0  0  0  0  0  0  0
   18.1232   18.6777   19.8221 H   0  0  0  0  0  0  0  0  0  0  0  0
   18.5980   20.3257   20.2084 H   0  0  0  0  0  0  0  0  0  0  0  0
   19.3051   18.8317   21.6307 C   0  0  0  0  0  0  0  0  0  0  0  0
   18.3775   18.8283   22.2174 H   0  0  0  0  0  0  0  0  0  0  0  0
   19.6631   17.7933   21.6097 H   0  0  0  0  0  0  0  0  0  0  0  0
   20.3553   19.7336   22.3276 C   0  0  0  0  0  0  0  0  0  0  0  0
   19.9964   20.7717   22.3499 H   0  0  0  0  0  0  0  0  0  0  0  0
   21.2809   19.7394   21.7379 H   0  0  0  0  0  0  0  0  0  0  0  0
   20.7068   19.2744   23.7642 C   0  0  0  0  0  0  0  0  0  0  0  0
   21.0790   18.2420   23.7292 H   0  0  0  0  0  0  0  0  0  0  0  0
   21.5374   19.8921   24.1330 H   0  0  0  0  0  0  0  0  0  0  0  0
   19.5202   19.3831   24.7565 C   0  0  0  0  0  0  0  0  0  0  0  0
   18.7358   18.6646   24.4878 H   0  0  0  0  0  0  0  0  0  0  0  0
   19.0758   20.3828   24.6631 H   0  0  0  0  0  0  0  0  0  0  0  0
   19.9267   19.1637   26.2314 C   0  0  2  0  0  0  0  0  0  0  0  0
   20.7324   19.8636   26.4732 H   0  0  0  0  0  0  0  0  0  0  0  0
   20.4322   17.7322   26.4854 C   0  0  0  0  0  0  0  0  0  0  0  0
   19.6773   16.9885   26.2012 H   0  0  0  0  0  0  0  0  0  0  0  0
   21.3477   17.5266   25.9187 H   0  0  0  0  0  0  0  0  0  0  0  0
   20.6686   17.5886   27.5469 H   0  0  0  0  0  0  0  0  0  0  0  0
   18.7906   19.4873   27.1614 N   0  3  0  0  0  0  0  0  0  0  0  0
   18.4662   20.4510   27.0394 H   0  0  0  0  0  0  0  0  0  0  0  0
   19.0679   19.3813   28.1415 H   0  0  0  0  0  0  0  0  0  0  0  0
   17.9895   18.8703   27.0023 H   0  0  0  0  0  0  0  0  0  0  0  0
  1  2  1  0  0  0  0
  1  3  1  0  0  0  0
  1  4  1  0  0  0  0
  1  5  1  0  0  0  0
  5  6  1  0  0  0  0
  5  7  1  0  0  0  0
  5  8  1  0  0  0  0
  8  9  1  0  0  0  0
  8 10  1  0  0  0  0
  8 11  1  0  0  0  0
 11 12  1  0  0  0  0
 11 13  1  0  0  0  0
 11 14  1  0  0  0  0
 14 15  1  0  0  0  0
 14 16  1  0  0  0  0
 14 17  1  0  0  0  0
 17 18  1  0  0  0  0
 17 19  1  0  0  0  0
 17 20  1  0  0  0  0
 20 21  1  0  0  0  0
 20 22  1  0  0  0  0
 22 23  1  0  0  0  0
 22 24  1  0  0  0  0
 22 25  1  0  0  0  0
 20 26  1  0  0  0  0
 26 27  1  0  0  0  0
 26 28  1  0  0  0  0
 26 29  1  0  0  0  0
M  END
> <VConfSearch Rank>
6

> <Conf_Id>
73

> <Delta U+W>
1.580

> <U+W>
-26.246

> <U>
25.821

> <W>
-52.067

> <W(PB)>
-54.581

> <W(SA)>
2.514

> <Valence>
4.779

> <Coulomb>
19.614

> <VdW>
1.428

> <VdW6>
-9.390

> <VdW12>
10.818

> <Bond>
0.283

> <Angle>
1.640

> <Pdih>
2.856

> <Idih>
0.000

> <Tether>
0.000

$$$$
VeraChem MOL file


 29 28  0  0  0  0  0  0  0  0999 V2000     
   20.6746   18.9863   19.1354 C   0  0  0  0  0  0  0  0  0  0  0  0
   21.2741   18.1121   19.4208 H   0  0  0  0  0  0  0  0  0  0  0  0
   20.3350   18.8392   18.1019 H   0  0  0  0  0  0  0  0  0  0  0  0
   21.3269   19.8691   19.1535 H   0  0  0  0  0  0  0  0  0  0  0  0
   19.4706   19.1670   20.0840 C   0  0  0  0  0  0  0  0  0  0  0  0
   18.8199   18.2836   20.0197 H   0  0  0  0  0  0  0  0  0  0  0  0
   18.8718   20.0269   19.7525 H   0  0  0  0  0  0  0  0  0  0  0  0
   19.9212   19.3770   21.5465 C   0  0  0  0  0  0  0  0  0  0  0  0
   20.5260   18.5164   21.8603 H   0  0  0  0  0  0  0  0  0  0  0  0
   20.5690   20.2624   21.6059 H   0  0  0  0  0  0  0  0  0  0  0  0
   18.7141   19.5535   22.4990 C   0  0  0  0  0  0  0  0  0  0  0  0
   18.0958   18.6452   22.4867 H   0  0  0  0  0  0  0  0  0  0  0  0
   18.0771   20.3646   22.1198 H   0  0  0  0  0  0  0  0  0  0  0  0
   19.1151   19.8887   23.9568 C   0  0  0  0  0  0  0  0  0  0  0  0
   19.7308   20.7988   23.9682 H   0  0  0  0  0  0  0  0  0  0  0  0
   18.1995   20.1280   24.5133 H   0  0  0  0  0  0  0  0  0  0  0  0
   19.8699   18.7382   24.6715 C   0  0  0  0  0  0  0  0  0  0  0  0
   20.7969   18.5193   24.1273 H   0  0  0  0  0  0  0  0  0  0  0  0
   19.2645   17.8226   24.6436 H   0  0  0  0  0  0  0  0  0  0  0  0
   20.2342   19.0748   26.1340 C   0  0  2  0  0  0  0  0  0  0  0  0
   20.8048   20.0086   26.1392 H   0  0  0  0  0  0  0  0  0  0  0  0
   21.1156   17.9673   26.7334 C   0  0  0  0  0  0  0  0  0  0  0  0
   22.0352   17.8411   26.1484 H   0  0  0  0  0  0  0  0  0  0  0  0
   21.4070   18.2166   27.7611 H   0  0  0  0  0  0  0  0  0  0  0  0
   20.5873   17.0058   26.7514 H   0  0  0  0  0  0  0  0  0  0  0  0
   19.0209   19.3031   26.9936 N   0  3  0  0  0  0  0  0  0  0  0  0
   19.2828   19.5418   27.9543 H   0  0  0  0  0  0  0  0  0  0  0  0
   18.4307   18.4679   27.0351 H   0  0  0  0  0  0  0  0  0  0  0  0
   18.4462   20.0697   26.6336 H   0  0  0  0  0  0  0  0  0  0  0  0
  1  2  1  0  0  0  0
  1  3  1  0  0  0  0
  1  4  1  0  0  0  0
  1  5  1  0  0  0  0
  5  6  1  0  0  0  0
  5  7  1  0  0  0  0
  5  8  1  0  0  0  0
  8  9  1  0  0  0  0
  8 10  1  0  0  0  0
  8 11  1  0  0  0  0
 11 12  1  0  0  0  0
 11 13  1  0  0  0  0
 11 14  1  0  0  0  0
 14 15  1  0  0  0  0
 14 16  1  0  0  0  0
 14 17  1  0  0  0  0
 17 18  1  0  0  0  0
 17 19  1  0  0  0  0
 17 20  1  0  0  0  0
 20 21  1  0  0  0  0
 20 22  1  0  0  0  0
 22 23  1  0  0  0  0
 22 24  1  0  0  0  0
 22 25  1  0  0  0  0
 20 26  1  0  0  0  0
 26 27  1  0  0  0  0
 26 28  1  0  0  0  0
 26 29  1  0  0  0  0
M  END
> <VConfSearch Rank>
7

> <Conf_Id>
111

> <Delta U+W>
0.580

> <U+W>
-27.246

> <U>
24.710

> <W>
-51.957

> <W(PB)>
-54.511

> <W(SA)>
2.555

> <Valence>
3.735

> <Coulomb>
19.760

> <VdW>
1.216

> <VdW6>
-8.624

> <VdW12>
9.840

> <Bond>
0.236

> <Angle>
1.168

> <Pdih>
2.330

> <Idih>
0.000

> <Tether>
0.000

$$$$
VeraChem MOL file


 29 28  0  0  0  0  0  0  0  0999 V2000     
   18.5741   19.2294   19.2953 C   0  0  0  0  0  0  0  0  0  0  0  0
   18.3247   18.1604   19.2836 H   0  0  0  0  0  0  0  0  0  0  0  0
   17.7173   19.7760   19.7104 H   0  0  0  0  0  0  0  0  0  0  0  0
   18.7103   19.5552   18.2559 H   0  0  0  0  0  0  0  0  0  0  0  0
   19.8518   19.4917   20.1203 C   0  0  0  0  0  0  0  0  0  0  0  0
   20.0944   20.5631   20.0863 H   0  0  0  0  0  0  0  0  0  0  0  0
   20.6973   18.9604   19.6612 H   0  0  0  0  0  0  0  0  0  0  0  0
   19.6871   19.0411   21.5886 C   0  0  0  0  0  0  0  0  0  0  0  0
   18.8348   19.5720   22.0324 H   0  0  0  0  0  0  0  0  0  0  0  0
   19.4466   17.9694   21.6175 H   0  0  0  0  0  0  0  0  0  0  0  0
   20.9663   19.3073   22.4178 C   0  0  0  0  0  0  0  0  0  0  0  0
   21.1800   20.3850   22.4338 H   0  0  0  0  0  0  0  0  0  0  0  0
   21.8218   18.8309   21.9193 H   0  0  0  0  0  0  0  0  0  0  0  0
   20.8838   18.7726   23.8686 C   0  0  0  0  0  0  0  0  0  0  0  0
   20.7017   17.6902   23.8413 H   0  0  0  0  0  0  0  0  0  0  0  0
   21.8628   18.9117   24.3477 H   0  0  0  0  0  0  0  0  0  0  0  0
   19.7988   19.4767   24.7236 C   0  0  0  0  0  0  0  0  0  0  0  0
   18.7998   19.2338   24.3398 H   0  0  0  0  0  0  0  0  0  0  0  0
   19.9199   20.5628   24.6180 H   0  0  0  0  0  0  0  0  0  0  0  0
   19.8678   19.1198   26.2258 C   0  0  2  0  0  0  0  0  0  0  0  0
   20.8794   19.3348   26.5835 H   0  0  0  0  0  0  0  0  0  0  0  0
   19.5664   17.6322   26.4816 C   0  0  0  0  0  0  0  0  0  0  0  0
   18.5821   17.3529   26.0854 H   0  0  0  0  0  0  0  0  0  0  0  0
   20.3203   16.9871   26.0157 H   0  0  0  0  0  0  0  0  0  0  0  0
   19.5742   17.4159   27.5570 H   0  0  0  0  0  0  0  0  0  0  0  0
   18.9399   19.9851   27.0324 N   0  3  0  0  0  0  0  0  0  0  0  0
   19.1508   20.9799   26.9107 H   0  0  0  0  0  0  0  0  0  0  0  0
   19.0117   19.7789   28.0329 H   0  0  0  0  0  0  0  0  0  0  0  0
   17.9636   19.8418   26.7604 H   0  0  0  0  0  0  0  0  0  0  0  0
  1  2  1  0  0  0  0
  1  3  1  0  0  0  0
  1  4  1  0  0  0  0
  1  5  1  0  0  0  0
  5  6  1  0  0  0  0
  5  7  1  0  0  0  0
  5  8  1  0  0  0  0
  8  9  1  0  0  0  0
  8 10  1  0  0  0  0
  8 11  1  0  0  0  0
 11 12  1  0  0  0  0
 11 13  1  0  0  0  0
 11 14  1  0  0  0  0
 14 15  1  0  0  0  0
 14 16  1  0  0  0  0
 14 17  1  0  0  0  0
 17 18  1  0  0  0  0
 17 19  1  0  0  0  0
 17 20  1  0  0  0  0
 20 21  1  0  0  0  0
 20 22  1  0  0  0  0
 22 23  1  0  0  0  0
 22 24  1  0  0  0  0
 22 25  1  0  0  0  0
 20 26  1  0  0  0  0
 26 27  1  0  0  0  0
 26 28  1  0  0  0  0
 26 29  1  0  0  0  0
M  END
> <VConfSearch Rank>
8

> <Conf_Id>
39

> <Delta U+W>
0.965

> <U+W>
-26.861

> <U>
25.129

> <W>
-51.990

> <W(PB)>
-54.526

> <W(SA)>
2.536

> <Valence>
4.206

> <Coulomb>
19.678

> <VdW>
1.245

> <VdW6>
-8.834

> <VdW12>
10.079

> <Bond>
0.240

> <Angle>
1.353

> <Pdih>
2.613

> <Idih>
0.000

> <Tether>
0.000

$$$$
VeraChem MOL file


 29 28  0  0  0  0  0  0  0  0999 V2000     
   19.1547   19.0746   19.2955 C   0  0  0  0  0  0  0  0  0  0  0  0
   18.9922   17.9891   19.3098 H   0  0  0  0  0  0  0  0  0  0  0  0
   18.2445   19.5640   19.6633 H   0  0  0  0  0  0  0  0  0  0  0  0
   19.2926   19.3795   18.2501 H   0  0  0  0  0  0  0  0  0  0  0  0
   20.3904   19.4628   20.1389 C   0  0  0  0  0  0  0  0  0  0  0  0
   20.5111   20.5551   20.1379 H   0  0  0  0  0  0  0  0  0  0  0  0
   21.2888   19.0540   19.6558 H   0  0  0  0  0  0  0  0  0  0  0  0
   20.3323   18.9435   21.5960 C   0  0  0  0  0  0  0  0  0  0  0  0
   20.2125   17.8514   21.5913 H   0  0  0  0  0  0  0  0  0  0  0  0
   21.3027   19.1472   22.0662 H   0  0  0  0  0  0  0  0  0  0  0  0
   19.2024   19.5907   22.4367 C   0  0  0  0  0  0  0  0  0  0  0  0
   18.2340   19.3924   21.9596 H   0  0  0  0  0  0  0  0  0  0  0  0
   19.3248   20.6824   22.4451 H   0  0  0  0  0  0  0  0  0  0  0  0
   19.1339   19.0643   23.8916 C   0  0  0  0  0  0  0  0  0  0  0  0
   18.2277   19.4719   24.3582 H   0  0  0  0  0  0  0  0  0  0  0  0
   19.0092   17.9735   23.8726 H   0  0  0  0  0  0  0  0  0  0  0  0
   20.3730   19.4469   24.7466 C   0  0  0  0  0  0  0  0  0  0  0  0
   20.5509   20.5270   24.6626 H   0  0  0  0  0  0  0  0  0  0  0  0
   21.2678   18.9589   24.3412 H   0  0  0  0  0  0  0  0  0  0  0  0
   20.2632   19.0839   26.2463 C   0  0  2  0  0  0  0  0  0  0  0  0
   21.1892   19.4117   26.7288 H   0  0  0  0  0  0  0  0  0  0  0  0
   20.1359   17.5663   26.4651 C   0  0  0  0  0  0  0  0  0  0  0  0
   19.1817   17.1810   26.0863 H   0  0  0  0  0  0  0  0  0  0  0  0
   20.9486   17.0301   25.9597 H   0  0  0  0  0  0  0  0  0  0  0  0
   20.1934   17.3266   27.5340 H   0  0  0  0  0  0  0  0  0  0  0  0
   19.1504   19.8230   26.9373 N   0  3  0  0  0  0  0  0  0  0  0  0
   19.2515   20.8367   26.8326 H   0  0  0  0  0  0  0  0  0  0  0  0
   19.1324   19.6191   27.9406 H   0  0  0  0  0  0  0  0  0  0  0  0
   18.2380   19.5628   26.5548 H   0  0  0  0  0  0  0  0  0  0  0  0
  1  2  1  0  0  0  0
  1  3  1  0  0  0  0
  1  4  1  0  0  0  0
  1  5  1  0  0  0  0
  5  6  1  0  0  0  0
  5  7  1  0  0  0  0
  5  8  1  0  0  0  0
  8  9  1  0  0  0  0
  8 10  1  0  0  0  0
  8 11  1  0  0  0  0
 11 12  1  0  0  0  0
 11 13  1  0  0  0  0
 11 14  1  0  0  0  0
 14 15  1  0  0  0  0
 14 16  1  0  0  0  0
 14 17  1  0  0  0  0
 17 18  1  0  0  0  0
 17 19  1  0  0  0  0
 17 20  1  0  0  0  0
 20 21  1  0  0  0  0
 20 22  1  0  0  0  0
 22 23  1  0  0  0  0
 22 24  1  0  0  0  0
 22 25  1  0  0  0  0
 20 26  1  0  0  0  0
 26 27  1  0  0  0  0
 26 28  1  0  0  0  0
 26 29  1  0  0  0  0
M  END
> <VConfSearch Rank>
9

> <Conf_Id>
155

> <Delta U+W>
1.624

> <U+W>
-26.202

> <U>
25.894

> <W>
-52.096

> <W(PB)>
-54.602

> <W(SA)>
2.506

> <Valence>
4.779

> <Coulomb>
19.659

> <VdW>
1.456

> <VdW6>
-9.843

> <VdW12>
11.299

> <Bond>
0.315

> <Angle>
1.725

> <Pdih>
2.740

> <Idih>
0.000

> <Tether>
0.000

$$$$
VeraChem MOL file


 29 28  0  0  0  0  0  0  0  0999 V2000     
   18.7251   18.9690   19.5910 C   0  0  0  0  0  0  0  0  0  0  0  0
   18.8296   17.9139   19.8729 H   0  0  0  0  0  0  0  0  0  0  0  0
   17.7938   19.3517   20.0283 H   0  0  0  0  0  0  0  0  0  0  0  0
   18.6254   19.0107   18.4986 H   0  0  0  0  0  0  0  0  0  0  0  0
   19.9406   19.8028   20.0554 C   0  0  0  0  0  0  0  0  0  0  0  0
   19.8474   20.8209   19.6522 H   0  0  0  0  0  0  0  0  0  0  0  0
   20.8615   19.3849   19.6253 H   0  0  0  0  0  0  0  0  0  0  0  0
   20.0732   19.8879   21.5950 C   0  0  0  0  0  0  0  0  0  0  0  0
   20.8955   20.5750   21.8373 H   0  0  0  0  0  0  0  0  0  0  0  0
   19.1601   20.3364   22.0076 H   0  0  0  0  0  0  0  0  0  0  0  0
   20.3445   18.5161   22.2632 C   0  0  0  0  0  0  0  0  0  0  0  0
   21.1789   18.0259   21.7431 H   0  0  0  0  0  0  0  0  0  0  0  0
   19.4739   17.8582   22.1405 H   0  0  0  0  0  0  0  0  0  0  0  0
   20.6980   18.6177   23.7676 C   0  0  0  0  0  0  0  0  0  0  0  0
   21.0039   17.6204   24.1085 H   0  0  0  0  0  0  0  0  0  0  0  0
   21.5719   19.2710   23.8969 H   0  0  0  0  0  0  0  0  0  0  0  0
   19.5262   19.1309   24.6445 C   0  0  0  0  0  0  0  0  0  0  0  0
   18.6567   18.4712   24.5245 H   0  0  0  0  0  0  0  0  0  0  0  0
   19.2187   20.1206   24.2858 H   0  0  0  0  0  0  0  0  0  0  0  0
   19.8798   19.2571   26.1444 C   0  0  2  0  0  0  0  0  0  0  0  0
   20.7833   19.8681   26.2340 H   0  0  0  0  0  0  0  0  0  0  0  0
   20.1487   17.8892   26.7974 C   0  0  0  0  0  0  0  0  0  0  0  0
   19.2924   17.2147   26.6727 H   0  0  0  0  0  0  0  0  0  0  0  0
   21.0328   17.4065   26.3657 H   0  0  0  0  0  0  0  0  0  0  0  0
   20.3364   18.0048   27.8720 H   0  0  0  0  0  0  0  0  0  0  0  0
   18.7999   19.9854   26.8955 N   0  3  0  0  0  0  0  0  0  0  0  0
   18.6337   20.9183   26.5071 H   0  0  0  0  0  0  0  0  0  0  0  0
   19.0469   20.1059   27.8820 H   0  0  0  0  0  0  0  0  0  0  0  0
   17.9129   19.4756   26.8628 H   0  0  0  0  0  0  0  0  0  0  0  0
  1  2  1  0  0  0  0
  1  3  1  0  0  0  0
  1  4  1  0  0  0  0
  1  5  1  0  0  0  0
  5  6  1  0  0  0  0
  5  7  1  0  0  0  0
  5  8  1  0  0  0  0
  8  9  1  0  0  0  0
  8 10  1  0  0  0  0
  8 11  1  0  0  0  0
 11 12  1  0  0  0  0
 11 13  1  0  0  0  0
 11 14  1  0  0  0  0
 14 15  1  0  0  0  0
 14 16  1  0  0  0  0
 14 17  1  0  0  0  0
 17 18  1  0  0  0  0
 17 19  1  0  0  0  0
 17 20  1  0  0  0  0
 20 21  1  0  0  0  0
 20 22  1  0  0  0  0
 22 23  1  0  0  0  0
 22 24  1  0  0  0  0
 22 25  1  0  0  0  0
 20 26  1  0  0  0  0
 26 27  1  0  0  0  0
 26 28  1  0  0  0  0
 26 29  1  0  0  0  0
M  END
> <VConfSearch Rank>
10

> <Conf_Id>
135

> <Delta U+W>
1.581

> <U+W>
-26.245

> <U>
25.974

> <W>
-52.219

> <W(PB)>
-54.709

> <W(SA)>
2.490

> <Valence>
4.811

> <Coulomb>
19.700

> <VdW>
1.463

> <VdW6>
-9.391

> <VdW12>
10.854

> <Bond>
0.285

> <Angle>
1.671

> <Pdih>
2.855

> <Idih>
0.000

> <Tether>
0.000

$$$$
VeraChem MOL file


 29 28  0  0  0  0  0  0  0  0999 V2000     
   19.2424   20.1833   19.6293 C   0  0  0  0  0  0  0  0  0  0  0  0
   18.3229   20.5842   20.0752 H   0  0  0  0  0  0  0  0  0  0  0  0
   20.0773   20.8333   19.9193 H   0  0  0  0  0  0  0  0  0  0  0  0
   19.1406   20.2436   18.5380 H   0  0  0  0  0  0  0  0  0  0  0  0
   19.4821   18.7216   20.0703 C   0  0  0  0  0  0  0  0  0  0  0  0
   20.4203   18.3527   19.6328 H   0  0  0  0  0  0  0  0  0  0  0  0
   18.6818   18.0911   19.6583 H   0  0  0  0  0  0  0  0  0  0  0  0
   19.5149   18.5425   21.6071 C   0  0  0  0  0  0  0  0  0  0  0  0
   18.5615   18.8870   22.0288 H   0  0  0  0  0  0  0  0  0  0  0  0
   19.5856   17.4695   21.8323 H   0  0  0  0  0  0  0  0  0  0  0  0
   20.6956   19.2817   22.2858 C   0  0  0  0  0  0  0  0  0  0  0  0
   20.5761   20.3671   22.1713 H   0  0  0  0  0  0  0  0  0  0  0  0
   21.6288   19.0163   21.7703 H   0  0  0  0  0  0  0  0  0  0  0  0
   20.8497   18.9421   23.7886 C   0  0  0  0  0  0  0  0  0  0  0  0
   21.0097   17.8613   23.8970 H   0  0  0  0  0  0  0  0  0  0  0  0
   21.7588   19.4308   24.1655 H   0  0  0  0  0  0  0  0  0  0  0  0
   19.6399   19.3934   24.6469 C   0  0  0  0  0  0  0  0  0  0  0  0
   18.7477   18.8158   24.3737 H   0  0  0  0  0  0  0  0  0  0  0  0
   19.4175   20.4430   24.4137 H   0  0  0  0  0  0  0  0  0  0  0  0
   19.8811   19.2699   26.1685 C   0  0  2  0  0  0  0  0  0  0  0  0
   20.7931   19.8212   26.4174 H   0  0  0  0  0  0  0  0  0  0  0  0
   20.0609   17.8061   26.6091 C   0  0  0  0  0  0  0  0  0  0  0  0
   19.1929   17.1973   26.3268 H   0  0  0  0  0  0  0  0  0  0  0  0
   20.9548   17.3609   26.1571 H   0  0  0  0  0  0  0  0  0  0  0  0
   20.1818   17.7423   27.6975 H   0  0  0  0  0  0  0  0  0  0  0  0
   18.7694   19.9153   26.9483 N   0  3  0  0  0  0  0  0  0  0  0  0
   18.9449   19.8706   27.9562 H   0  0  0  0  0  0  0  0  0  0  0  0
   17.8728   19.4535   26.7736 H   0  0  0  0  0  0  0  0  0  0  0  0
   18.6602   20.9033   26.7018 H   0  0  0  0  0  0  0  0  0  0  0  0
  1  2  1  0  0  0  0
  1  3  1  0  0  0  0
  1  4  1  0  0  0  0
  1  5  1  0  0  0  0
  5  6  1  0  0  0  0
  5  7  1  0  0  0  0
  5  8  1  0  0  0  0
  8  9  1  0  0  0  0
  8 10  1  0  0  0  0
  8 11  1  0  0  0  0
 11 12  1  0  0  0  0
 11 13  1  0  0  0  0
 11 14  1  0  0  0  0
 14 15  1  0  0  0  0
 14 16  1  0  0  0  0
 14 17  1  0  0  0  0
 17 18  1  0  0  0  0
 17 19  1  0  0  0  0
 17 20  1  0  0  0  0
 20 21  1  0  0  0  0
 20 22  1  0  0  0  0
 22 23  1  0  0  0  0
 22 24  1  0  0  0  0
 22 25  1  0  0  0  0
 20 26  1  0  0  0  0
 26 27  1  0  0  0  0
 26 28  1  0  0  0  0
 26 29  1  0  0  0  0
M  END
> <VConfSearch Rank>
11

> <Conf_Id>
130

> <Delta U+W>
1.359

> <U+W>
-26.467

> <U>
25.687

> <W>
-52.154

> <W(PB)>
-54.643

> <W(SA)>
2.489

> <Valence>
4.682

> <Coulomb>
19.653

> <VdW>
1.352

> <VdW6>
-9.477

> <VdW12>
10.829

> <Bond>
0.274

> <Angle>
1.550

> <Pdih>
2.858

> <Idih>
0.000

> <Tether>
0.000

$$$$
VeraChem MOL file


 29 28  0  0  0  0  0  0  0  0999 V2000     
   20.1150   18.7004   19.4454 C   0  0  0  0  0  0  0  0  0  0  0  0
   19.7850   18.1362   18.5635 H   0  0  0  0  0  0  0  0  0  0  0  0
   20.4654   19.6829   19.1037 H   0  0  0  0  0  0  0  0  0  0  0  0
   20.9667   18.1629   19.8803 H   0  0  0  0  0  0  0  0  0  0  0  0
   18.9570   18.8450   20.4588 C   0  0  0  0  0  0  0  0  0  0  0  0
   18.6471   17.8509   20.8103 H   0  0  0  0  0  0  0  0  0  0  0  0
   18.0868   19.2732   19.9419 H   0  0  0  0  0  0  0  0  0  0  0  0
   19.3055   19.7431   21.6702 C   0  0  0  0  0  0  0  0  0  0  0  0
   19.5968   20.7406   21.3135 H   0  0  0  0  0  0  0  0  0  0  0  0
   18.3937   19.8846   22.2639 H   0  0  0  0  0  0  0  0  0  0  0  0
   20.4300   19.1611   22.5647 C   0  0  0  0  0  0  0  0  0  0  0  0
   21.3538   19.0886   21.9763 H   0  0  0  0  0  0  0  0  0  0  0  0
   20.1726   18.1370   22.8611 H   0  0  0  0  0  0  0  0  0  0  0  0
   20.7252   20.0307   23.8145 C   0  0  0  0  0  0  0  0  0  0  0  0
   21.6988   19.7474   24.2377 H   0  0  0  0  0  0  0  0  0  0  0  0
   20.8406   21.0742   23.4902 H   0  0  0  0  0  0  0  0  0  0  0  0
   19.6408   19.9636   24.9255 C   0  0  0  0  0  0  0  0  0  0  0  0
   18.6573   19.7298   24.5007 H   0  0  0  0  0  0  0  0  0  0  0  0
   19.5469   20.9670   25.3611 H   0  0  0  0  0  0  0  0  0  0  0  0
   19.9596   18.9826   26.0791 C   0  0  2  0  0  0  0  0  0  0  0  0
   20.9255   19.2646   26.5091 H   0  0  0  0  0  0  0  0  0  0  0  0
   20.0513   17.5214   25.6081 C   0  0  0  0  0  0  0  0  0  0  0  0
   20.9018   17.3788   24.9315 H   0  0  0  0  0  0  0  0  0  0  0  0
   20.2015   16.8484   26.4613 H   0  0  0  0  0  0  0  0  0  0  0  0
   19.1360   17.2132   25.0877 H   0  0  0  0  0  0  0  0  0  0  0  0
   18.9517   19.1082   27.1877 N   0  3  0  0  0  0  0  0  0  0  0  0
   18.9070   20.0650   27.5502 H   0  0  0  0  0  0  0  0  0  0  0  0
   19.1832   18.4950   27.9745 H   0  0  0  0  0  0  0  0  0  0  0  0
   18.0124   18.8553   26.8693 H   0  0  0  0  0  0  0  0  0  0  0  0
  1  2  1  0  0  0  0
  1  3  1  0  0  0  0
  1  4  1  0  0  0  0
  1  5  1  0  0  0  0
  5  6  1  0  0  0  0
  5  7  1  0  0  0  0
  5  8  1  0  0  0  0
  8  9  1  0  0  0  0
  8 10  1  0  0  0  0
  8 11  1  0  0  0  0
 11 12  1  0  0  0  0
 11 13  1  0  0  0  0
 11 14  1  0  0  0  0
 14 15  1  0  0  0  0
 14 16  1  0  0  0  0
 14 17  1  0  0  0  0
 17 18  1  0  0  0  0
 17 19  1  0  0  0  0
 17 20  1  0  0  0  0
 20 21  1  0  0  0  0
 20 22  1  0  0  0  0
 22 23  1  0  0  0  0
 22 24  1  0  0  0  0
 22 25  1  0  0  0  0
 20 26  1  0  0  0  0
 26 27  1  0  0  0  0
 26 28  1  0  0  0  0
 26 29  1  0  0  0  0
M  END
> <VConfSearch Rank>
12

> <Conf_Id>
157

> <Delta U+W>
4.354

> <U+W>
-23.472

> <U>
28.780

> <W>
-52.252

> <W(PB)>
-54.715

> <W(SA)>
2.462

> <Valence>
7.566

> <Coulomb>
19.822

> <VdW>
1.392

> <VdW6>
-10.248

> <VdW12>
11.641

> <Bond>
0.340

> <Angle>
2.096

> <Pdih>
5.129

> <Idih>
0.000

> <Tether>
0.000

$$$$
VeraChem MOL file


 29 28  0  0  0  0  0  0  0  0999 V2000     
   18.5033   19.3367   20.0503 C   0  0  0  0  0  0  0  0  0  0  0  0
   18.1836   18.7262   19.1960 H   0  0  0  0  0  0  0  0  0  0  0  0
   17.9306   19.0099   20.9252 H   0  0  0  0  0  0  0  0  0  0  0  0
   18.2283   20.3778   19.8368 H   0  0  0  0  0  0  0  0  0  0  0  0
   20.0284   19.2037   20.2696 C   0  0  0  0  0  0  0  0  0  0  0  0
   20.5324   19.5309   19.3494 H   0  0  0  0  0  0  0  0  0  0  0  0
   20.3045   18.1488   20.4062 H   0  0  0  0  0  0  0  0  0  0  0  0
   20.5555   20.0569   21.4520 C   0  0  0  0  0  0  0  0  0  0  0  0
   21.5470   20.4435   21.1784 H   0  0  0  0  0  0  0  0  0  0  0  0
   19.9219   20.9432   21.5931 H   0  0  0  0  0  0  0  0  0  0  0  0
   20.7077   19.2917   22.7920 C   0  0  0  0  0  0  0  0  0  0  0  0
   21.1551   19.9799   23.5207 H   0  0  0  0  0  0  0  0  0  0  0  0
   21.4280   18.4722   22.6631 H   0  0  0  0  0  0  0  0  0  0  0  0
   19.3814   18.7252   23.3558 C   0  0  0  0  0  0  0  0  0  0  0  0
   18.6270   19.5212   23.4086 H   0  0  0  0  0  0  0  0  0  0  0  0
   18.9885   17.9719   22.6612 H   0  0  0  0  0  0  0  0  0  0  0  0
   19.5431   18.0508   24.7427 C   0  0  0  0  0  0  0  0  0  0  0  0
   20.2392   17.2070   24.6462 H   0  0  0  0  0  0  0  0  0  0  0  0
   18.5790   17.6194   25.0431 H   0  0  0  0  0  0  0  0  0  0  0  0
   20.0470   18.9945   25.8579 C   0  0  2  0  0  0  0  0  0  0  0  0
   21.0216   19.3920   25.5605 H   0  0  0  0  0  0  0  0  0  0  0  0
   20.2287   18.2191   27.1723 C   0  0  0  0  0  0  0  0  0  0  0  0
   19.2761   17.8022   27.5226 H   0  0  0  0  0  0  0  0  0  0  0  0
   20.9365   17.3912   27.0414 H   0  0  0  0  0  0  0  0  0  0  0  0
   20.6245   18.8744   27.9580 H   0  0  0  0  0  0  0  0  0  0  0  0
   19.1409   20.1774   26.0614 N   0  3  0  0  0  0  0  0  0  0  0  0
   19.0444   20.7225   25.2004 H   0  0  0  0  0  0  0  0  0  0  0  0
   19.5013   20.8055   26.7854 H   0  0  0  0  0  0  0  0  0  0  0  0
   18.2034   19.8835   26.3482 H   0  0  0  0  0  0  0  0  0  0  0  0
  1  2  1  0  0  0  0
  1  3  1  0  0  0  0
  1  4  1  0  0  0  0
  1  5  1  0  0  0  0
  5  6  1  0  0  0  0
  5  7  1  0  0  0  0
  5  8  1  0  0  0  0
  8  9  1  0  0  0  0
  8 10  1  0  0  0  0
  8 11  1  0  0  0  0
 11 12  1  0  0  0  0
 11 13  1  0  0  0  0
 11 14  1  0  0  0  0
 14 15  1  0  0  0  0
 14 16  1  0  0  0  0
 14 17  1  0  0  0  0
 17 18  1  0  0  0  0
 17 19  1  0  0  0  0
 17 20  1  0  0  0  0
 20 21  1  0  0  0  0
 20 22  1  0  0  0  0
 22 23  1  0  0  0  0
 22 24  1  0  0  0  0
 22 25  1  0  0  0  0
 20 26  1  0  0  0  0
 26 27  1  0  0  0  0
 26 28  1  0  0  0  0
 26 29  1  0  0  0  0
M  END
> <VConfSearch Rank>
13

> <Conf_Id>
158

> <Delta U+W>
3.648

> <U+W>
-24.178

> <U>
28.057

> <W>
-52.235

> <W(PB)>
-54.696

> <W(SA)>
2.460

> <Valence>
6.543

> <Coulomb>
20.387

> <VdW>
1.127

> <VdW6>
-10.342

> <VdW12>
11.469

> <Bond>
0.308

> <Angle>
1.938

> <Pdih>
4.297

> <Idih>
0.000

> <Tether>
0.000

$$$$
VeraChem MOL file


 29 28  0  0  0  0  0  0  0  0999 V2000     
   20.1561   17.8137   20.0316 C   0  0  0  0  0  0  0  0  0  0  0  0
   21.2419   17.7719   20.1875 H   0  0  0  0  0  0  0  0  0  0  0  0
   19.6729   17.2112   20.8106 H   0  0  0  0  0  0  0  0  0  0  0  0
   19.9372   17.3404   19.0657 H   0  0  0  0  0  0  0  0  0  0  0  0
   19.6485   19.2735   20.0455 C   0  0  0  0  0  0  0  0  0  0  0  0
   18.5568   19.2866   19.9203 H   0  0  0  0  0  0  0  0  0  0  0  0
   20.0641   19.8008   19.1754 H   0  0  0  0  0  0  0  0  0  0  0  0
   20.0379   20.0483   21.3275 C   0  0  0  0  0  0  0  0  0  0  0  0
   21.1310   20.0474   21.4382 H   0  0  0  0  0  0  0  0  0  0  0  0
   19.7404   21.0988   21.2042 H   0  0  0  0  0  0  0  0  0  0  0  0
   19.3832   19.4848   22.6113 C   0  0  0  0  0  0  0  0  0  0  0  0
   19.7162   18.4538   22.7730 H   0  0  0  0  0  0  0  0  0  0  0  0
   18.2934   19.4453   22.4769 H   0  0  0  0  0  0  0  0  0  0  0  0
   19.7157   20.3516   23.8505 C   0  0  0  0  0  0  0  0  0  0  0  0
   20.8031   20.4667   23.9588 H   0  0  0  0  0  0  0  0  0  0  0  0
   19.3203   21.3621   23.6769 H   0  0  0  0  0  0  0  0  0  0  0  0
   19.1042   19.8040   25.1674 C   0  0  0  0  0  0  0  0  0  0  0  0
   18.1939   19.2281   24.9545 H   0  0  0  0  0  0  0  0  0  0  0  0
   18.7799   20.6638   25.7686 H   0  0  0  0  0  0  0  0  0  0  0  0
   20.0744   18.9685   26.0370 C   0  0  2  0  0  0  0  0  0  0  0  0
   20.9441   19.5906   26.2697 H   0  0  0  0  0  0  0  0  0  0  0  0
   20.5708   17.6975   25.3274 C   0  0  0  0  0  0  0  0  0  0  0  0
   19.7315   17.0787   24.9864 H   0  0  0  0  0  0  0  0  0  0  0  0
   21.1943   17.9488   24.4616 H   0  0  0  0  0  0  0  0  0  0  0  0
   21.1875   17.0927   26.0034 H   0  0  0  0  0  0  0  0  0  0  0  0
   19.4452   18.6140   27.3557 N   0  3  0  0  0  0  0  0  0  0  0  0
   19.1500   19.4493   27.8696 H   0  0  0  0  0  0  0  0  0  0  0  0
   20.0982   18.1022   27.9560 H   0  0  0  0  0  0  0  0  0  0  0  0
   18.6194   18.0228   27.2289 H   0  0  0  0  0  0  0  0  0  0  0  0
  1  2  1  0  0  0  0
  1  3  1  0  0  0  0
  1  4  1  0  0  0  0
  1  5  1  0  0  0  0
  5  6  1  0  0  0  0
  5  7  1  0  0  0  0
  5  8  1  0  0  0  0
  8  9  1  0  0  0  0
  8 10  1  0  0  0  0
  8 11  1  0  0  0  0
 11 12  1  0  0  0  0
 11 13  1  0  0  0  0
 11 14  1  0  0  0  0
 14 15  1  0  0  0  0
 14 16  1  0  0  0  0
 14 17  1  0  0  0  0
 17 18  1  0  0  0  0
 17 19  1  0  0  0  0
 17 20  1  0  0  0  0
 20 21  1  0  0  0  0
 20 22  1  0  0  0  0
 22 23  1  0  0  0  0
 22 24  1  0  0  0  0
 22 25  1  0  0  0  0
 20 26  1  0  0  0  0
 26 27  1  0  0  0  0
 26 28  1  0  0  0  0
 26 29  1  0  0  0  0
M  END
> <VConfSearch Rank>
14

> <Conf_Id>
156

> <Delta U+W>
3.393

> <U+W>
-24.433

> <U>
27.713

> <W>
-52.146

> <W(PB)>
-54.603

> <W(SA)>
2.458

> <Valence>
6.758

> <Coulomb>
19.720

> <VdW>
1.235

> <VdW6>
-9.782

> <VdW12>
11.017

> <Bond>
0.287

> <Angle>
1.880

> <Pdih>
4.591

> <Idih>
0.000

> <Tether>
0.000

$$$$
VeraChem MOL file


 29 28  0  0  0  0  0  0  0  0999 V2000     
   19.3230   20.6438   19.9373 C   0  0  0  0  0  0  0  0  0  0  0  0
   20.0757   21.3844   20.2374 H   0  0  0  0  0  0  0  0  0  0  0  0
   19.6601   20.1717   19.0053 H   0  0  0  0  0  0  0  0  0  0  0  0
   18.3887   21.1794   19.7248 H   0  0  0  0  0  0  0  0  0  0  0  0
   19.1078   19.5920   21.0460 C   0  0  0  0  0  0  0  0  0  0  0  0
   18.3299   18.8829   20.7305 H   0  0  0  0  0  0  0  0  0  0  0  0
   18.7339   20.0962   21.9469 H   0  0  0  0  0  0  0  0  0  0  0  0
   20.4130   18.8264   21.3665 C   0  0  0  0  0  0  0  0  0  0  0  0
   20.8101   18.3950   20.4374 H   0  0  0  0  0  0  0  0  0  0  0  0
   21.1784   19.5289   21.7214 H   0  0  0  0  0  0  0  0  0  0  0  0
   20.2255   17.6797   22.3936 C   0  0  0  0  0  0  0  0  0  0  0  0
   21.1917   17.1783   22.5422 H   0  0  0  0  0  0  0  0  0  0  0  0
   19.5584   16.9218   21.9602 H   0  0  0  0  0  0  0  0  0  0  0  0
   19.6622   18.1047   23.7746 C   0  0  0  0  0  0  0  0  0  0  0  0
   18.6446   18.4964   23.6527 H   0  0  0  0  0  0  0  0  0  0  0  0
   19.5670   17.2003   24.3889 H   0  0  0  0  0  0  0  0  0  0  0  0
   20.5528   19.1422   24.5113 C   0  0  0  0  0  0  0  0  0  0  0  0
   20.6239   20.0571   23.9104 H   0  0  0  0  0  0  0  0  0  0  0  0
   21.5756   18.7512   24.5917 H   0  0  0  0  0  0  0  0  0  0  0  0
   20.0583   19.5392   25.9223 C   0  0  2  0  0  0  0  0  0  0  0  0
   20.7401   20.3072   26.3006 H   0  0  0  0  0  0  0  0  0  0  0  0
   20.1001   18.3576   26.9070 C   0  0  0  0  0  0  0  0  0  0  0  0
   19.8830   18.7007   27.9260 H   0  0  0  0  0  0  0  0  0  0  0  0
   19.3632   17.5875   26.6501 H   0  0  0  0  0  0  0  0  0  0  0  0
   21.0941   17.8934   26.9173 H   0  0  0  0  0  0  0  0  0  0  0  0
   18.6935   20.1703   25.8954 N   0  3  0  0  0  0  0  0  0  0  0  0
   18.6699   20.9873   25.2785 H   0  0  0  0  0  0  0  0  0  0  0  0
   18.4075   20.4820   26.8279 H   0  0  0  0  0  0  0  0  0  0  0  0
   17.9867   19.5102   25.5619 H   0  0  0  0  0  0  0  0  0  0  0  0
  1  2  1  0  0  0  0
  1  3  1  0  0  0  0
  1  4  1  0  0  0  0
  1  5  1  0  0  0  0
  5  6  1  0  0  0  0
  5  7  1  0  0  0  0
  5  8  1  0  0  0  0
  8  9  1  0  0  0  0
  8 10  1  0  0  0  0
  8 11  1  0  0  0  0
 11 12  1  0  0  0  0
 11 13  1  0  0  0  0
 11 14  1  0  0  0  0
 14 15  1  0  0  0  0
 14 16  1  0  0  0  0
 14 17  1  0  0  0  0
 17 18  1  0  0  0  0
 17 19  1  0  0  0  0
 17 20  1  0  0  0  0
 20 21  1  0  0  0  0
 20 22  1  0  0  0  0
 22 23  1  0  0  0  0
 22 24  1  0  0  0  0
 22 25  1  0  0  0  0
 20 26  1  0  0  0  0
 26 27  1  0  0  0  0
 26 28  1  0  0  0  0
 26 29  1  0  0  0  0
M  END
> <VConfSearch Rank>
15

> <Conf_Id>
78

> <Delta U+W>
1.477

> <U+W>
-26.349

> <U>
26.385

> <W>
-52.734

> <W(PB)>
-55.179

> <W(SA)>
2.445

> <Valence>
4.726

> <Coulomb>
20.482

> <VdW>
1.177

> <VdW6>
-10.349

> <VdW12>
11.526

> <Bond>
0.319

> <Angle>
1.933

> <Pdih>
2.474

> <Idih>
0.000

> <Tether>
0.000

$$$$
VeraChem MOL file


 29 28  0  0  0  0  0  0  0  0999 V2000     
   19.5075   18.1720   19.9315 C   0  0  0  0  0  0  0  0  0  0  0  0
   20.4596   17.7440   19.5918 H   0  0  0  0  0  0  0  0  0  0  0  0
   19.1519   17.5730   20.7771 H   0  0  0  0  0  0  0  0  0  0  0  0
   18.7821   18.0597   19.1153 H   0  0  0  0  0  0  0  0  0  0  0  0
   19.6758   19.6634   20.3044 C   0  0  0  0  0  0  0  0  0  0  0  0
   18.7041   20.1036   20.5682 H   0  0  0  0  0  0  0  0  0  0  0  0
   20.0169   20.2000   19.4079 H   0  0  0  0  0  0  0  0  0  0  0  0
   20.7020   19.8995   21.4423 C   0  0  0  0  0  0  0  0  0  0  0  0
   21.4628   19.1069   21.4386 H   0  0  0  0  0  0  0  0  0  0  0  0
   21.2443   20.8302   21.2253 H   0  0  0  0  0  0  0  0  0  0  0  0
   20.0856   20.0390   22.8582 C   0  0  0  0  0  0  0  0  0  0  0  0
   19.4075   20.9033   22.8768 H   0  0  0  0  0  0  0  0  0  0  0  0
   20.9005   20.2737   23.5552 H   0  0  0  0  0  0  0  0  0  0  0  0
   19.3285   18.7809   23.3497 C   0  0  0  0  0  0  0  0  0  0  0  0
   18.4661   18.6016   22.6952 H   0  0  0  0  0  0  0  0  0  0  0  0
   19.9729   17.8967   23.2590 H   0  0  0  0  0  0  0  0  0  0  0  0
   18.7999   18.9110   24.8019 C   0  0  0  0  0  0  0  0  0  0  0  0
   18.2431   18.0003   25.0598 H   0  0  0  0  0  0  0  0  0  0  0  0
   18.0712   19.7317   24.8332 H   0  0  0  0  0  0  0  0  0  0  0  0
   19.8807   19.1666   25.8791 C   0  0  2  0  0  0  0  0  0  0  0  0
   20.4157   20.0853   25.6220 H   0  0  0  0  0  0  0  0  0  0  0  0
   20.8999   18.0165   25.9617 C   0  0  0  0  0  0  0  0  0  0  0  0
   21.6231   18.1978   26.7664 H   0  0  0  0  0  0  0  0  0  0  0  0
   20.4025   17.0590   26.1599 H   0  0  0  0  0  0  0  0  0  0  0  0
   21.4690   17.9223   25.0294 H   0  0  0  0  0  0  0  0  0  0  0  0
   19.2562   19.4071   27.2253 N   0  3  0  0  0  0  0  0  0  0  0  0
   18.7348   18.5873   27.5474 H   0  0  0  0  0  0  0  0  0  0  0  0
   18.6046   20.1970   27.2030 H   0  0  0  0  0  0  0  0  0  0  0  0
   19.9647   19.6165   27.9343 H   0  0  0  0  0  0  0  0  0  0  0  0
  1  2  1  0  0  0  0
  1  3  1  0  0  0  0
  1  4  1  0  0  0  0
  1  5  1  0  0  0  0
  5  6  1  0  0  0  0
  5  7  1  0  0  0  0
  5  8  1  0  0  0  0
  8  9  1  0  0  0  0
  8 10  1  0  0  0  0
  8 11  1  0  0  0  0
 11 12  1  0  0  0  0
 11 13  1  0  0  0  0
 11 14  1  0  0  0  0
 14 15  1  0  0  0  0
 14 16  1  0  0  0  0
 14 17  1  0  0  0  0
 17 18  1  0  0  0  0
 17 19  1  0  0  0  0
 17 20  1  0  0  0  0
 20 21  1  0  0  0  0
 20 22  1  0  0  0  0
 22 23  1  0  0  0  0
 22 24  1  0  0  0  0
 22 25  1  0  0  0  0
 20 26  1  0  0  0  0
 26 27  1  0  0  0  0
 26 28  1  0  0  0  0
 26 29  1  0  0  0  0
M  END
> <VConfSearch Rank>
16

> <Conf_Id>
145

> <Delta U+W>
3.784

> <U+W>
-24.042

> <U>
28.220

> <W>
-52.262

> <W(PB)>
-54.724

> <W(SA)>
2.462

> <Valence>
7.040

> <Coulomb>
19.984

> <VdW>
1.197

> <VdW6>
-10.566

> <VdW12>
11.763

> <Bond>
0.320

> <Angle>
2.280

> <Pdih>
4.439

> <Idih>
0.000

> <Tether>
0.000

$$$$
VeraChem MOL file


 29 28  0  0  0  0  0  0  0  0999 V2000     
   20.1833   20.5551   19.8544 C   0  0  0  0  0  0  0  0  0  0  0  0
   19.5568   20.2497   19.0062 H   0  0  0  0  0  0  0  0  0  0  0  0
   19.7133   21.4253   20.3309 H   0  0  0  0  0  0  0  0  0  0  0  0
   21.1563   20.8727   19.4576 H   0  0  0  0  0  0  0  0  0  0  0  0
   20.3566   19.3984   20.8611 C   0  0  0  0  0  0  0  0  0  0  0  0
   21.0212   19.7231   21.6708 H   0  0  0  0  0  0  0  0  0  0  0  0
   20.8598   18.5578   20.3632 H   0  0  0  0  0  0  0  0  0  0  0  0
   18.9954   18.9253   21.4256 C   0  0  0  0  0  0  0  0  0  0  0  0
   18.4483   19.7697   21.8669 H   0  0  0  0  0  0  0  0  0  0  0  0
   18.3814   18.5737   20.5849 H   0  0  0  0  0  0  0  0  0  0  0  0
   19.1223   17.7735   22.4566 C   0  0  0  0  0  0  0  0  0  0  0  0
   20.0242   17.1791   22.2558 H   0  0  0  0  0  0  0  0  0  0  0  0
   18.2775   17.0870   22.3073 H   0  0  0  0  0  0  0  0  0  0  0  0
   19.1001   18.2240   23.9401 C   0  0  0  0  0  0  0  0  0  0  0  0
   18.1433   18.7211   24.1481 H   0  0  0  0  0  0  0  0  0  0  0  0
   19.1196   17.3209   24.5632 H   0  0  0  0  0  0  0  0  0  0  0  0
   20.2744   19.1579   24.3373 C   0  0  0  0  0  0  0  0  0  0  0  0
   20.1961   20.0956   23.7739 H   0  0  0  0  0  0  0  0  0  0  0  0
   21.2252   18.6965   24.0398 H   0  0  0  0  0  0  0  0  0  0  0  0
   20.3424   19.5160   25.8408 C   0  0  2  0  0  0  0  0  0  0  0  0
   21.1606   20.2319   25.9666 H   0  0  0  0  0  0  0  0  0  0  0  0
   20.6614   18.2916   26.7165 C   0  0  0  0  0  0  0  0  0  0  0  0
   20.8450   18.6000   27.7530 H   0  0  0  0  0  0  0  0  0  0  0  0
   19.8361   17.5701   26.7245 H   0  0  0  0  0  0  0  0  0  0  0  0
   21.5629   17.7796   26.3579 H   0  0  0  0  0  0  0  0  0  0  0  0
   19.1001   20.2140   26.3216 N   0  3  0  0  0  0  0  0  0  0  0  0
   18.2814   19.6049   26.2484 H   0  0  0  0  0  0  0  0  0  0  0  0
   18.9077   21.0576   25.7739 H   0  0  0  0  0  0  0  0  0  0  0  0
   19.1859   20.4976   27.3018 H   0  0  0  0  0  0  0  0  0  0  0  0
  1  2  1  0  0  0  0
  1  3  1  0  0  0  0
  1  4  1  0  0  0  0
  1  5  1  0  0  0  0
  5  6  1  0  0  0  0
  5  7  1  0  0  0  0
  5  8  1  0  0  0  0
  8  9  1  0  0  0  0
  8 10  1  0  0  0  0
  8 11  1  0  0  0  0
 11 12  1  0  0  0  0
 11 13  1  0  0  0  0
 11 14  1  0  0  0  0
 14 15  1  0  0  0  0
 14 16  1  0  0  0  0
 14 17  1  0  0  0  0
 17 18  1  0  0  0  0
 17 19  1  0  0  0  0
 17 20  1  0  0  0  0
 20 21  1  0  0  0  0
 20 22  1  0  0  0  0
 22 23  1  0  0  0  0
 22 24  1  0  0  0  0
 22 25  1  0  0  0  0
 20 26  1  0  0  0  0
 26 27  1  0  0  0  0
 26 28  1  0  0  0  0
 26 29  1  0  0  0  0
M  END
> <VConfSearch Rank>
17

> <Conf_Id>
71

> <Delta U+W>
3.542

> <U+W>
-24.284

> <U>
28.217

> <W>
-52.501

> <W(PB)>
-54.947

> <W(SA)>
2.446

> <Valence>
6.821

> <Coulomb>
20.147

> <VdW>
1.249

> <VdW6>
-10.237

> <VdW12>
11.486

> <Bond>
0.317

> <Angle>
1.990

> <Pdih>
4.515

> <Idih>
0.000

> <Tether>
0.000

$$$$
VeraChem MOL file


 29 28  0  0  0  0  0  0  0  0999 V2000     
   20.8593   19.9907   19.8047 C   0  0  0  0  0  0  0  0  0  0  0  0
   21.8274   19.6178   20.1638 H   0  0  0  0  0  0  0  0  0  0  0  0
   20.5691   19.3988   18.9268 H   0  0  0  0  0  0  0  0  0  0  0  0
   20.9980   21.0300   19.4795 H   0  0  0  0  0  0  0  0  0  0  0  0
   19.7872   19.9044   20.9113 C   0  0  0  0  0  0  0  0  0  0  0  0
   18.8415   20.3158   20.5317 H   0  0  0  0  0  0  0  0  0  0  0  0
   20.0879   20.5402   21.7525 H   0  0  0  0  0  0  0  0  0  0  0  0
   19.5665   18.4454   21.3782 C   0  0  0  0  0  0  0  0  0  0  0  0
   19.2369   17.8565   20.5110 H   0  0  0  0  0  0  0  0  0  0  0  0
   20.5161   17.9989   21.7037 H   0  0  0  0  0  0  0  0  0  0  0  0
   18.5010   18.3085   22.4971 C   0  0  0  0  0  0  0  0  0  0  0  0
   17.9460   17.3755   22.3273 H   0  0  0  0  0  0  0  0  0  0  0  0
   17.7571   19.1130   22.4166 H   0  0  0  0  0  0  0  0  0  0  0  0
   19.0750   18.2533   23.9364 C   0  0  0  0  0  0  0  0  0  0  0  0
   18.2405   18.0732   24.6264 H   0  0  0  0  0  0  0  0  0  0  0  0
   19.7378   17.3819   24.0212 H   0  0  0  0  0  0  0  0  0  0  0  0
   19.8355   19.5359   24.3658 C   0  0  0  0  0  0  0  0  0  0  0  0
   19.2157   20.4154   24.1480 H   0  0  0  0  0  0  0  0  0  0  0  0
   20.7445   19.6395   23.7603 H   0  0  0  0  0  0  0  0  0  0  0  0
   20.2436   19.5804   25.8572 C   0  0  2  0  0  0  0  0  0  0  0  0
   20.7658   20.5277   26.0234 H   0  0  0  0  0  0  0  0  0  0  0  0
   21.2128   18.4433   26.2248 C   0  0  0  0  0  0  0  0  0  0  0  0
   22.0788   18.4364   25.5513 H   0  0  0  0  0  0  0  0  0  0  0  0
   21.5876   18.5741   27.2473 H   0  0  0  0  0  0  0  0  0  0  0  0
   20.7260   17.4624   26.1691 H   0  0  0  0  0  0  0  0  0  0  0  0
   19.0550   19.5941   26.7786 N   0  3  0  0  0  0  0  0  0  0  0  0
   18.4259   20.3743   26.5681 H   0  0  0  0  0  0  0  0  0  0  0  0
   19.3415   19.6873   27.7573 H   0  0  0  0  0  0  0  0  0  0  0  0
   18.5128   18.7304   26.6984 H   0  0  0  0  0  0  0  0  0  0  0  0
  1  2  1  0  0  0  0
  1  3  1  0  0  0  0
  1  4  1  0  0  0  0
  1  5  1  0  0  0  0
  5  6  1  0  0  0  0
  5  7  1  0  0  0  0
  5  8  1  0  0  0  0
  8  9  1  0  0  0  0
  8 10  1  0  0  0  0
  8 11  1  0  0  0  0
 11 12  1  0  0  0  0
 11 13  1  0  0  0  0
 11 14  1  0  0  0  0
 14 15  1  0  0  0  0
 14 16  1  0  0  0  0
 14 17  1  0  0  0  0
 17 18  1  0  0  0  0
 17 19  1  0  0  0  0
 17 20  1  0  0  0  0
 20 21  1  0  0  0  0
 20 22  1  0  0  0  0
 22 23  1  0  0  0  0
 22 24  1  0  0  0  0
 22 25  1  0  0  0  0
 20 26  1  0  0  0  0
 26 27  1  0  0  0  0
 26 28  1  0  0  0  0
 26 29  1  0  0  0  0
M  END
> <VConfSearch Rank>
18

> <Conf_Id>
163

> <Delta U+W>
3.309

> <U+W>
-24.517

> <U>
27.916

> <W>
-52.433

> <W(PB)>
-54.866

> <W(SA)>
2.433

> <Valence>
6.693

> <Coulomb>
20.015

> <VdW>
1.208

> <VdW6>
-10.294

> <VdW12>
11.503

> <Bond>
0.312

> <Angle>
1.939

> <Pdih>
4.441

> <Idih>
0.000

> <Tether>
0.000

$$$$
VeraChem MOL file


 29 28  0  0  0  0  0  0  0  0999 V2000     
   19.6875   19.9156   19.6070 C   0  0  0  0  0  0  0  0  0  0  0  0
   19.2543   19.0000   19.1837 H   0  0  0  0  0  0  0  0  0  0  0  0
   18.8687   20.5450   19.9766 H   0  0  0  0  0  0  0  0  0  0  0  0
   20.1802   20.4616   18.7921 H   0  0  0  0  0  0  0  0  0  0  0  0
   20.7011   19.5850   20.7259 C   0  0  0  0  0  0  0  0  0  0  0  0
   21.0936   20.5166   21.1571 H   0  0  0  0  0  0  0  0  0  0  0  0
   21.5614   19.0666   20.2799 H   0  0  0  0  0  0  0  0  0  0  0  0
   20.1145   18.6948   21.8481 C   0  0  0  0  0  0  0  0  0  0  0  0
   19.7272   17.7633   21.4130 H   0  0  0  0  0  0  0  0  0  0  0  0
   20.9366   18.4074   22.5159 H   0  0  0  0  0  0  0  0  0  0  0  0
   18.9999   19.3920   22.6686 C   0  0  0  0  0  0  0  0  0  0  0  0
   18.1795   19.6794   21.9985 H   0  0  0  0  0  0  0  0  0  0  0  0
   19.3852   20.3277   23.0945 H   0  0  0  0  0  0  0  0  0  0  0  0
   18.4065   18.4997   23.7899 C   0  0  0  0  0  0  0  0  0  0  0  0
   17.5892   19.0450   24.2807 H   0  0  0  0  0  0  0  0  0  0  0  0
   17.9394   17.6161   23.3336 H   0  0  0  0  0  0  0  0  0  0  0  0
   19.4243   18.0275   24.8625 C   0  0  0  0  0  0  0  0  0  0  0  0
   20.1270   17.3188   24.4060 H   0  0  0  0  0  0  0  0  0  0  0  0
   18.8890   17.4608   25.6359 H   0  0  0  0  0  0  0  0  0  0  0  0
   20.2186   19.1735   25.5269 C   0  0  2  0  0  0  0  0  0  0  0  0
   20.7475   19.7245   24.7435 H   0  0  0  0  0  0  0  0  0  0  0  0
   21.2617   18.6072   26.5028 C   0  0  0  0  0  0  0  0  0  0  0  0
   21.8542   19.4152   26.9496 H   0  0  0  0  0  0  0  0  0  0  0  0
   20.7825   18.0455   27.3145 H   0  0  0  0  0  0  0  0  0  0  0  0
   21.9552   17.9337   25.9840 H   0  0  0  0  0  0  0  0  0  0  0  0
   19.3220   20.1607   26.2223 N   0  3  0  0  0  0  0  0  0  0  0  0
   18.6427   20.5659   25.5726 H   0  0  0  0  0  0  0  0  0  0  0  0
   19.8581   20.9321   26.6298 H   0  0  0  0  0  0  0  0  0  0  0  0
   18.7972   19.7169   26.9806 H   0  0  0  0  0  0  0  0  0  0  0  0
  1  2  1  0  0  0  0
  1  3  1  0  0  0  0
  1  4  1  0  0  0  0
  1  5  1  0  0  0  0
  5  6  1  0  0  0  0
  5  7  1  0  0  0  0
  5  8  1  0  0  0  0
  8  9  1  0  0  0  0
  8 10  1  0  0  0  0
  8 11  1  0  0  0  0
 11 12  1  0  0  0  0
 11 13  1  0  0  0  0
 11 14  1  0  0  0  0
 14 15  1  0  0  0  0
 14 16  1  0  0  0  0
 14 17  1  0  0  0  0
 17 18  1  0  0  0  0
 17 19  1  0  0  0  0
 17 20  1  0  0  0  0
 20 21  1  0  0  0  0
 20 22  1  0  0  0  0
 22 23  1  0  0  0  0
 22 24  1  0  0  0  0
 22 25  1  0  0  0  0
 20 26  1  0  0  0  0
 26 27  1  0  0  0  0
 26 28  1  0  0  0  0
 26 29  1  0  0  0  0
M  END
> <VConfSearch Rank>
19

> <Conf_Id>
173

> <Delta U+W>
1.363

> <U+W>
-26.462

> <U>
25.816

> <W>
-52.279

> <W(PB)>
-54.727

> <W(SA)>
2.449

> <Valence>
4.504

> <Coulomb>
20.342

> <VdW>
0.971

> <VdW6>
-10.532

> <VdW12>
11.503

> <Bond>
0.307

> <Angle>
1.715

> <Pdih>
2.481

> <Idih>
0.000

> <Tether>
0.000

$$$$
VeraChem MOL file


 29 28  0  0  0  0  0  0  0  0999 V2000     
   20.5817   18.2697   19.8009 C   0  0  0  0  0  0  0  0  0  0  0  0
   19.8456   17.4707   19.6426 H   0  0  0  0  0  0  0  0  0  0  0  0
   20.4800   18.9954   18.9834 H   0  0  0  0  0  0  0  0  0  0  0  0
   21.5827   17.8242   19.7332 H   0  0  0  0  0  0  0  0  0  0  0  0
   20.3783   18.9466   21.1729 C   0  0  0  0  0  0  0  0  0  0  0  0
   21.1443   19.7218   21.3137 H   0  0  0  0  0  0  0  0  0  0  0  0
   20.5249   18.1973   21.9619 H   0  0  0  0  0  0  0  0  0  0  0  0
   18.9706   19.5728   21.2965 C   0  0  0  0  0  0  0  0  0  0  0  0
   18.7951   20.2295   20.4332 H   0  0  0  0  0  0  0  0  0  0  0  0
   18.2126   18.7797   21.2356 H   0  0  0  0  0  0  0  0  0  0  0  0
   18.7475   20.3994   22.5894 C   0  0  0  0  0  0  0  0  0  0  0  0
   17.7338   20.8207   22.5409 H   0  0  0  0  0  0  0  0  0  0  0  0
   19.4257   21.2636   22.6067 H   0  0  0  0  0  0  0  0  0  0  0  0
   18.8718   19.5885   23.9056 C   0  0  0  0  0  0  0  0  0  0  0  0
   18.1226   19.9681   24.6129 H   0  0  0  0  0  0  0  0  0  0  0  0
   18.6087   18.5399   23.7164 H   0  0  0  0  0  0  0  0  0  0  0  0
   20.2754   19.7033   24.5627 C   0  0  0  0  0  0  0  0  0  0  0  0
   20.4784   20.7591   24.7848 H   0  0  0  0  0  0  0  0  0  0  0  0
   21.0533   19.3956   23.8550 H   0  0  0  0  0  0  0  0  0  0  0  0
   20.4511   18.8905   25.8669 C   0  0  2  0  0  0  0  0  0  0  0  0
   21.4513   19.1091   26.2536 H   0  0  0  0  0  0  0  0  0  0  0  0
   20.3720   17.3743   25.6167 C   0  0  0  0  0  0  0  0  0  0  0  0
   21.0727   17.0719   24.8286 H   0  0  0  0  0  0  0  0  0  0  0  0
   20.6368   16.8217   26.5265 H   0  0  0  0  0  0  0  0  0  0  0  0
   19.3640   17.0632   25.3184 H   0  0  0  0  0  0  0  0  0  0  0  0
   19.4876   19.3110   26.9423 N   0  3  0  0  0  0  0  0  0  0  0  0
   19.5660   20.3114   27.1462 H   0  0  0  0  0  0  0  0  0  0  0  0
   19.6588   18.8057   27.8164 H   0  0  0  0  0  0  0  0  0  0  0  0
   18.5200   19.1272   26.6656 H   0  0  0  0  0  0  0  0  0  0  0  0
  1  2  1  0  0  0  0
  1  3  1  0  0  0  0
  1  4  1  0  0  0  0
  1  5  1  0  0  0  0
  5  6  1  0  0  0  0
  5  7  1  0  0  0  0
  5  8  1  0  0  0  0
  8  9  1  0  0  0  0
  8 10  1  0  0  0  0
  8 11  1  0  0  0  0
 11 12  1  0  0  0  0
 11 13  1  0  0  0  0
 11 14  1  0  0  0  0
 14 15  1  0  0  0  0
 14 16  1  0  0  0  0
 14 17  1  0  0  0  0
 17 18  1  0  0  0  0
 17 19  1  0  0  0  0
 17 20  1  0  0  0  0
 20 21  1  0  0  0  0
 20 22  1  0  0  0  0
 22 23  1  0  0  0  0
 22 24  1  0  0  0  0
 22 25  1  0  0  0  0
 20 26  1  0  0  0  0
 26 27  1  0  0  0  0
 26 28  1  0  0  0  0
 26 29  1  0  0  0  0
M  END
> <VConfSearch Rank>
20

> <Conf_Id>
117

> <Delta U+W>
3.377

> <U+W>
-24.449

> <U>
27.947

> <W>
-52.396

> <W(PB)>
-54.842

> <W(SA)>
2.447

> <Valence>
6.731

> <Coulomb>
20.067

> <VdW>
1.149

> <VdW6>
-10.427

> <VdW12>
11.575

> <Bond>
0.324

> <Angle>
1.943

> <Pdih>
4.465

> <Idih>
0.000

> <Tether>
0.000

$$$$
VeraChem MOL file


 29 28  0  0  0  0  0  0  0  0999 V2000     
   17.3242   22.7843   25.5424 C   0  0  0  0  0  0  0  0  0  0  0  0
   16.3715   22.2396   25.5119 H   0  0  0  0  0  0  0  0  0  0  0  0
   17.7624   22.6515   26.5402 H   0  0  0  0  0  0  0  0  0  0  0  0
   17.1065   23.8519   25.4092 H   0  0  0  0  0  0  0  0  0  0  0  0
   18.2850   22.2829   24.4436 C   0  0  0  0  0  0  0  0  0  0  0  0
   19.2146   22.8683   24.4772 H   0  0  0  0  0  0  0  0  0  0  0  0
   17.8345   22.4596   23.4569 H   0  0  0  0  0  0  0  0  0  0  0  0
   18.6081   20.7814   24.6080 C   0  0  0  0  0  0  0  0  0  0  0  0
   19.0561   20.6093   25.5965 H   0  0  0  0  0  0  0  0  0  0  0  0
   17.6758   20.2007   24.5761 H   0  0  0  0  0  0  0  0  0  0  0  0
   19.5702   20.2757   23.5095 C   0  0  0  0  0  0  0  0  0  0  0  0
   20.5014   20.8582   23.5417 H   0  0  0  0  0  0  0  0  0  0  0  0
   19.1213   20.4478   22.5214 H   0  0  0  0  0  0  0  0  0  0  0  0
   19.8937   18.7736   23.6748 C   0  0  0  0  0  0  0  0  0  0  0  0
   20.3458   18.6029   24.6618 H   0  0  0  0  0  0  0  0  0  0  0  0
   18.9582   18.1993   23.6480 H   0  0  0  0  0  0  0  0  0  0  0  0
   20.8565   18.2694   22.5724 C   0  0  0  0  0  0  0  0  0  0  0  0
   21.7618   18.8912   22.5804 H   0  0  0  0  0  0  0  0  0  0  0  0
   20.3936   18.4024   21.5855 H   0  0  0  0  0  0  0  0  0  0  0  0
   21.2659   16.7925   22.7594 C   0  0  2  0  0  0  0  0  0  0  0  0
   21.7016   16.6809   23.7570 H   0  0  0  0  0  0  0  0  0  0  0  0
   22.3283   16.3969   21.7216 C   0  0  0  0  0  0  0  0  0  0  0  0
   22.6504   15.3591   21.8718 H   0  0  0  0  0  0  0  0  0  0  0  0
   21.9392   16.4897   20.6999 H   0  0  0  0  0  0  0  0  0  0  0  0
   23.2156   17.0364   21.8087 H   0  0  0  0  0  0  0  0  0  0  0  0
   20.0902   15.8564   22.6930 N   0  3  0  0  0  0  0  0  0  0  0  0
   19.3934   16.0803   23.4085 H   0  0  0  0  0  0  0  0  0  0  0  0
   20.3774   14.8842   22.8385 H   0  0  0  0  0  0  0  0  0  0  0  0
   19.6251   15.9058   21.7826 H   0  0  0  0  0  0  0  0  0  0  0  0
  1  2  1  0  0  0  0
  1  3  1  0  0  0  0
  1  4  1  0  0  0  0
  1  5  1  0  0  0  0
  5  6  1  0  0  0  0
  5  7  1  0  0  0  0
  5  8  1  0  0  0  0
  8  9  1  0  0  0  0
  8 10  1  0  0  0  0
  8 11  1  0  0  0  0
 11 12  1  0  0  0  0
 11 13  1  0  0  0  0
 11 14  1  0  0  0  0
 14 15  1  0  0  0  0
 14 16  1  0  0  0  0
 14 17  1  0  0  0  0
 17 18  1  0  0  0  0
 17 19  1  0  0  0  0
 17 20  1  0  0  0  0
 20 21  1  0  0  0  0
 20 22  1  0  0  0  0
 22 23  1  0  0  0  0
 22 24  1  0  0  0  0
 22 25  1  0  0  0  0
 20 26  1  0  0  0  0
 26 27  1  0  0  0  0
 26 28  1  0  0  0  0
 26 29  1  0  0  0  0
M  END
> <VConfSearch Rank>
21

> <Conf_Id>
164

> <Delta U+W>
0.000

> <U+W>
-27.826

> <U>
23.963

> <W>
-51.789

> <W(PB)>
-54.342

> <W(SA)>
2.554

> <Valence>
3.166

> <Coulomb>
19.734

> <VdW>
1.062

> <VdW6>
-7.938

> <VdW12>
9.001

> <Bond>
0.188

> <Angle>
0.880

> <Pdih>
2.098

> <Idih>
0.000

> <Tether>
0.000

$$$$
VeraChem MOL file


 29 28  0  0  0  0  0  0  0  0999 V2000     
   20.3419   18.1907   18.7763 C   0  0  0  0  0  0  0  0  0  0  0  0
   19.7454   19.0516   18.4475 H   0  0  0  0  0  0  0  0  0  0  0  0
   21.3992   18.4862   18.7737 H   0  0  0  0  0  0  0  0  0  0  0  0
   20.2140   17.3897   18.0366 H   0  0  0  0  0  0  0  0  0  0  0  0
   19.9028   17.7141   20.1770 C   0  0  0  0  0  0  0  0  0  0  0  0
   20.4933   16.8328   20.4640 H   0  0  0  0  0  0  0  0  0  0  0  0
   18.8521   17.3937   20.1402 H   0  0  0  0  0  0  0  0  0  0  0  0
   20.0728   18.8238   21.2379 C   0  0  0  0  0  0  0  0  0  0  0  0
   21.1240   19.1424   21.2692 H   0  0  0  0  0  0  0  0  0  0  0  0
   19.4826   19.7034   20.9457 H   0  0  0  0  0  0  0  0  0  0  0  0
   19.6341   18.3503   22.6420 C   0  0  0  0  0  0  0  0  0  0  0  0
   20.2249   17.4709   22.9337 H   0  0  0  0  0  0  0  0  0  0  0  0
   18.5833   18.0308   22.6087 H   0  0  0  0  0  0  0  0  0  0  0  0
   19.8039   19.4611   23.7030 C   0  0  0  0  0  0  0  0  0  0  0  0
   20.8547   19.7788   23.7220 H   0  0  0  0  0  0  0  0  0  0  0  0
   19.2090   20.3385   23.4137 H   0  0  0  0  0  0  0  0  0  0  0  0
   19.3681   18.9825   25.1097 C   0  0  0  0  0  0  0  0  0  0  0  0
   20.0042   18.1467   25.4303 H   0  0  0  0  0  0  0  0  0  0  0  0
   18.3456   18.5876   25.0431 H   0  0  0  0  0  0  0  0  0  0  0  0
   19.3928   20.0957   26.1819 C   0  0  2  0  0  0  0  0  0  0  0  0
   18.7870   20.9329   25.8216 H   0  0  0  0  0  0  0  0  0  0  0  0
   20.8185   20.6077   26.4547 C   0  0  0  0  0  0  0  0  0  0  0  0
   21.4827   19.7891   26.7589 H   0  0  0  0  0  0  0  0  0  0  0  0
   21.2472   21.0868   25.5670 H   0  0  0  0  0  0  0  0  0  0  0  0
   20.8131   21.3568   27.2561 H   0  0  0  0  0  0  0  0  0  0  0  0
   18.7544   19.6302   27.4610 N   0  3  0  0  0  0  0  0  0  0  0  0
   18.7327   20.3768   28.1615 H   0  0  0  0  0  0  0  0  0  0  0  0
   19.2657   18.8430   27.8693 H   0  0  0  0  0  0  0  0  0  0  0  0
   17.7882   19.3252   27.3111 H   0  0  0  0  0  0  0  0  0  0  0  0
  1  2  1  0  0  0  0
  1  3  1  0  0  0  0
  1  4  1  0  0  0  0
  1  5  1  0  0  0  0
  5  6  1  0  0  0  0
  5  7  1  0  0  0  0
  5  8  1  0  0  0  0
  8  9  1  0  0  0  0
  8 10  1  0  0  0  0
  8 11  1  0  0  0  0
 11 12  1  0  0  0  0
 11 13  1  0  0  0  0
 11 14  1  0  0  0  0
 14 15  1  0  0  0  0
 14 16  1  0  0  0  0
 14 17  1  0  0  0  0
 17 18  1  0  0  0  0
 17 19  1  0  0  0  0
 17 20  1  0  0  0  0
 20 21  1  0  0  0  0
 20 22  1  0  0  0  0
 22 23  1  0  0  0  0
 22 24  1  0  0  0  0
 22 25  1  0  0  0  0
 20 26  1  0  0  0  0
 26 27  1  0  0  0  0
 26 28  1  0  0  0  0
 26 29  1  0  0  0  0
M  END
> <VConfSearch Rank>
22

> <Conf_Id>
58

> <Delta U+W>
0.412

> <U+W>
-27.414

> <U>
24.279

> <W>
-51.694

> <W(PB)>
-54.271

> <W(SA)>
2.577

> <Valence>
3.709

> <Coulomb>
19.380

> <VdW>
1.191

> <VdW6>
-8.093

> <VdW12>
9.284

> <Bond>
0.200

> <Angle>
1.161

> <Pdih>
2.348

> <Idih>
0.000

> <Tether>
0.000

$$$$
VeraChem MOL file


 29 28  0  0  0  0  0  0  0  0999 V2000     
   18.8105   22.9828   25.9867 C   0  0  0  0  0  0  0  0  0  0  0  0
   19.6871   22.8378   26.6316 H   0  0  0  0  0  0  0  0  0  0  0  0
   19.1005   23.6430   25.1589 H   0  0  0  0  0  0  0  0  0  0  0  0
   18.0406   23.4984   26.5753 H   0  0  0  0  0  0  0  0  0  0  0  0
   18.2803   21.6326   25.4598 C   0  0  0  0  0  0  0  0  0  0  0  0
   17.3850   21.8067   24.8466 H   0  0  0  0  0  0  0  0  0  0  0  0
   17.9672   21.0078   26.3080 H   0  0  0  0  0  0  0  0  0  0  0  0
   19.3455   20.8856   24.6271 C   0  0  0  0  0  0  0  0  0  0  0  0
   19.6568   21.5149   23.7818 H   0  0  0  0  0  0  0  0  0  0  0  0
   20.2393   20.7161   25.2434 H   0  0  0  0  0  0  0  0  0  0  0  0
   18.8182   19.5328   24.0979 C   0  0  0  0  0  0  0  0  0  0  0  0
   17.9241   19.7037   23.4824 H   0  0  0  0  0  0  0  0  0  0  0  0
   18.5067   18.9047   24.9440 H   0  0  0  0  0  0  0  0  0  0  0  0
   19.8841   18.7856   23.2650 C   0  0  0  0  0  0  0  0  0  0  0  0
   20.1919   19.4191   22.4226 H   0  0  0  0  0  0  0  0  0  0  0  0
   20.7745   18.6242   23.8866 H   0  0  0  0  0  0  0  0  0  0  0  0
   19.3501   17.4276   22.7398 C   0  0  0  0  0  0  0  0  0  0  0  0
   18.4327   17.6002   22.1619 H   0  0  0  0  0  0  0  0  0  0  0  0
   19.0569   16.7992   23.5912 H   0  0  0  0  0  0  0  0  0  0  0  0
   20.3420   16.6351   21.8558 C   0  0  2  0  0  0  0  0  0  0  0  0
   19.8315   15.7229   21.5319 H   0  0  0  0  0  0  0  0  0  0  0  0
   21.6004   16.2124   22.6337 C   0  0  0  0  0  0  0  0  0  0  0  0
   22.2185   15.5399   22.0264 H   0  0  0  0  0  0  0  0  0  0  0  0
   22.2170   17.0765   22.9085 H   0  0  0  0  0  0  0  0  0  0  0  0
   21.3296   15.6766   23.5520 H   0  0  0  0  0  0  0  0  0  0  0  0
   20.7091   17.3756   20.5994 N   0  3  0  0  0  0  0  0  0  0  0  0
   19.8788   17.6220   20.0528 H   0  0  0  0  0  0  0  0  0  0  0  0
   21.3162   16.8124   19.9971 H   0  0  0  0  0  0  0  0  0  0  0  0
   21.2071   18.2435   20.8123 H   0  0  0  0  0  0  0  0  0  0  0  0
  1  2  1  0  0  0  0
  1  3  1  0  0  0  0
  1  4  1  0  0  0  0
  1  5  1  0  0  0  0
  5  6  1  0  0  0  0
  5  7  1  0  0  0  0
  5  8  1  0  0  0  0
  8  9  1  0  0  0  0
  8 10  1  0  0  0  0
  8 11  1  0  0  0  0
 11 12  1  0  0  0  0
 11 13  1  0  0  0  0
 11 14  1  0  0  0  0
 14 15  1  0  0  0  0
 14 16  1  0  0  0  0
 14 17  1  0  0  0  0
 17 18  1  0  0  0  0
 17 19  1  0  0  0  0
 17 20  1  0  0  0  0
 20 21  1  0  0  0  0
 20 22  1  0  0  0  0
 22 23  1  0  0  0  0
 22 24  1  0  0  0  0
 22 25  1  0  0  0  0
 20 26  1  0  0  0  0
 26 27  1  0  0  0  0
 26 28  1  0  0  0  0
 26 29  1  0  0  0  0
M  END
> <VConfSearch Rank>
23

> <Conf_Id>
137

> <Delta U+W>
0.280

> <U+W>
-27.546

> <U>
24.513

> <W>
-52.059

> <W(PB)>
-54.556

> <W(SA)>
2.497

> <Valence>
3.677

> <Coulomb>
19.662

> <VdW>
1.174

> <VdW6>
-8.569

> <VdW12>
9.743

> <Bond>
0.224

> <Angle>
1.211

> <Pdih>
2.243

> <Idih>
0.000

> <Tether>
0.000

$$$$
VeraChem MOL file


 29 28  0  0  0  0  0  0  0  0999 V2000     
   22.0997   18.2213   19.8400 C   0  0  0  0  0  0  0  0  0  0  0  0
   21.4145   18.9569   19.3988 H   0  0  0  0  0  0  0  0  0  0  0  0
   22.9991   18.7518   20.1788 H   0  0  0  0  0  0  0  0  0  0  0  0
   22.3989   17.5222   19.0482 H   0  0  0  0  0  0  0  0  0  0  0  0
   21.4278   17.4674   21.0071 C   0  0  0  0  0  0  0  0  0  0  0  0
   22.1245   16.7159   21.4041 H   0  0  0  0  0  0  0  0  0  0  0  0
   20.5515   16.9206   20.6317 H   0  0  0  0  0  0  0  0  0  0  0  0
   20.9973   18.4290   22.1368 C   0  0  0  0  0  0  0  0  0  0  0  0
   21.8770   18.9712   22.5102 H   0  0  0  0  0  0  0  0  0  0  0  0
   20.3107   19.1791   21.7237 H   0  0  0  0  0  0  0  0  0  0  0  0
   20.3195   17.6738   23.3056 C   0  0  0  0  0  0  0  0  0  0  0  0
   20.9895   16.8723   23.6463 H   0  0  0  0  0  0  0  0  0  0  0  0
   19.4055   17.1797   22.9482 H   0  0  0  0  0  0  0  0  0  0  0  0
   19.9821   18.5756   24.5188 C   0  0  0  0  0  0  0  0  0  0  0  0
   19.6502   17.9248   25.3378 H   0  0  0  0  0  0  0  0  0  0  0  0
   20.8952   19.0754   24.8706 H   0  0  0  0  0  0  0  0  0  0  0  0
   18.8880   19.6335   24.2197 C   0  0  0  0  0  0  0  0  0  0  0  0
   17.9720   19.1334   23.8782 H   0  0  0  0  0  0  0  0  0  0  0  0
   19.2229   20.2701   23.3920 H   0  0  0  0  0  0  0  0  0  0  0  0
   18.5625   20.5494   25.4220 C   0  0  2  0  0  0  0  0  0  0  0  0
   19.4979   20.9882   25.7826 H   0  0  0  0  0  0  0  0  0  0  0  0
   17.9057   19.7788   26.5816 C   0  0  0  0  0  0  0  0  0  0  0  0
   16.9960   19.2627   26.2502 H   0  0  0  0  0  0  0  0  0  0  0  0
   18.5890   19.0342   27.0052 H   0  0  0  0  0  0  0  0  0  0  0  0
   17.6310   20.4636   27.3934 H   0  0  0  0  0  0  0  0  0  0  0  0
   17.6885   21.6996   25.0050 N   0  3  0  0  0  0  0  0  0  0  0  0
   18.1249   22.2559   24.2640 H   0  0  0  0  0  0  0  0  0  0  0  0
   17.5018   22.3308   25.7895 H   0  0  0  0  0  0  0  0  0  0  0  0
   16.7841   21.3737   24.6534 H   0  0  0  0  0  0  0  0  0  0  0  0
  1  2  1  0  0  0  0
  1  3  1  0  0  0  0
  1  4  1  0  0  0  0
  1  5  1  0  0  0  0
  5  6  1  0  0  0  0
  5  7  1  0  0  0  0
  5  8  1  0  0  0  0
  8  9  1  0  0  0  0
  8 10  1  0  0  0  0
  8 11  1  0  0  0  0
 11 12  1  0  0  0  0
 11 13  1  0  0  0  0
 11 14  1  0  0  0  0
 14 15  1  0  0  0  0
 14 16  1  0  0  0  0
 14 17  1  0  0  0  0
 17 18  1  0  0  0  0
 17 19  1  0  0  0  0
 17 20  1  0  0  0  0
 20 21  1  0  0  0  0
 20 22  1  0  0  0  0
 22 23  1  0  0  0  0
 22 24  1  0  0  0  0
 22 25  1  0  0  0  0
 20 26  1  0  0  0  0
 26 27  1  0  0  0  0
 26 28  1  0  0  0  0
 26 29  1  0  0  0  0
M  END
> <VConfSearch Rank>
24

> <Conf_Id>
40

> <Delta U+W>
1.128

> <U+W>
-26.698

> <U>
25.442

> <W>
-52.140

> <W(PB)>
-54.658

> <W(SA)>
2.519

> <Valence>
4.343

> <Coulomb>
19.740

> <VdW>
1.360

> <VdW6>
-8.739

> <VdW12>
10.099

> <Bond>
0.251

> <Angle>
1.483

> <Pdih>
2.608

> <Idih>
0.000

> <Tether>
0.000

$$$$
VeraChem MOL file


 29 28  0  0  0  0  0  0  0  0999 V2000     
   17.6952   21.1392   26.7679 C   0  0  0  0  0  0  0  0  0  0  0  0
   16.9213   20.4553   26.3984 H   0  0  0  0  0  0  0  0  0  0  0  0
   18.2705   20.6208   27.5459 H   0  0  0  0  0  0  0  0  0  0  0  0
   17.1852   21.9897   27.2385 H   0  0  0  0  0  0  0  0  0  0  0  0
   18.6168   21.6263   25.6267 C   0  0  0  0  0  0  0  0  0  0  0  0
   19.2866   22.4026   26.0223 H   0  0  0  0  0  0  0  0  0  0  0  0
   18.0144   22.1096   24.8449 H   0  0  0  0  0  0  0  0  0  0  0  0
   19.4778   20.5006   25.0038 C   0  0  0  0  0  0  0  0  0  0  0  0
   20.1895   20.9652   24.3100 H   0  0  0  0  0  0  0  0  0  0  0  0
   20.0777   20.0211   25.7894 H   0  0  0  0  0  0  0  0  0  0  0  0
   18.6441   19.4299   24.2545 C   0  0  0  0  0  0  0  0  0  0  0  0
   18.0483   19.9082   23.4651 H   0  0  0  0  0  0  0  0  0  0  0  0
   17.9268   18.9760   24.9502 H   0  0  0  0  0  0  0  0  0  0  0  0
   19.4987   18.2920   23.6430 C   0  0  0  0  0  0  0  0  0  0  0  0
   20.1088   17.8273   24.4300 H   0  0  0  0  0  0  0  0  0  0  0  0
   18.8146   17.5129   23.2821 H   0  0  0  0  0  0  0  0  0  0  0  0
   20.4114   18.7567   22.4787 C   0  0  0  0  0  0  0  0  0  0  0  0
   21.1133   19.5148   22.8467 H   0  0  0  0  0  0  0  0  0  0  0  0
   19.8050   19.2399   21.7011 H   0  0  0  0  0  0  0  0  0  0  0  0
   21.2277   17.6027   21.8568 C   0  0  2  0  0  0  0  0  0  0  0  0
   21.7941   17.1139   22.6555 H   0  0  0  0  0  0  0  0  0  0  0  0
   22.2252   18.1502   20.8235 C   0  0  0  0  0  0  0  0  0  0  0  0
   22.8329   17.3395   20.4028 H   0  0  0  0  0  0  0  0  0  0  0  0
   21.7058   18.6521   19.9975 H   0  0  0  0  0  0  0  0  0  0  0  0
   22.9093   18.8725   21.2861 H   0  0  0  0  0  0  0  0  0  0  0  0
   20.3548   16.5467   21.2354 N   0  3  0  0  0  0  0  0  0  0  0  0
   19.7871   16.9318   20.4758 H   0  0  0  0  0  0  0  0  0  0  0  0
   19.7153   16.1381   21.9222 H   0  0  0  0  0  0  0  0  0  0  0  0
   20.9131   15.7826   20.8442 H   0  0  0  0  0  0  0  0  0  0  0  0
  1  2  1  0  0  0  0
  1  3  1  0  0  0  0
  1  4  1  0  0  0  0
  1  5  1  0  0  0  0
  5  6  1  0  0  0  0
  5  7  1  0  0  0  0
  5  8  1  0  0  0  0
  8  9  1  0  0  0  0
  8 10  1  0  0  0  0
  8 11  1  0  0  0  0
 11 12  1  0  0  0  0
 11 13  1  0  0  0  0
 11 14  1  0  0  0  0
 14 15  1  0  0  0  0
 14 16  1  0  0  0  0
 14 17  1  0  0  0  0
 17 18  1  0  0  0  0
 17 19  1  0  0  0  0
 17 20  1  0  0  0  0
 20 21  1  0  0  0  0
 20 22  1  0  0  0  0
 22 23  1  0  0  0  0
 22 24  1  0  0  0  0
 22 25  1  0  0  0  0
 20 26  1  0  0  0  0
 26 27  1  0  0  0  0
 26 28  1  0  0  0  0
 26 29  1  0  0  0  0
M  END
> <VConfSearch Rank>
25

> <Conf_Id>
134

> <Delta U+W>
1.228

> <U+W>
-26.598

> <U>
25.451

> <W>
-52.048

> <W(PB)>
-54.539

> <W(SA)>
2.490

> <Valence>
4.319

> <Coulomb>
19.732

> <VdW>
1.400

> <VdW6>
-9.173

> <VdW12>
10.573

> <Bond>
0.281

> <Angle>
1.459

> <Pdih>
2.580

> <Idih>
0.000

> <Tether>
0.000

$$$$
VeraChem MOL file


 29 28  0  0  0  0  0  0  0  0999 V2000     
   16.3421   19.1121   26.1241 C   0  0  0  0  0  0  0  0  0  0  0  0
   17.0526   18.5904   26.7769 H   0  0  0  0  0  0  0  0  0  0  0  0
   16.4496   20.1918   26.2908 H   0  0  0  0  0  0  0  0  0  0  0  0
   15.3315   18.8228   26.4400 H   0  0  0  0  0  0  0  0  0  0  0  0
   16.5664   18.7542   24.6373 C   0  0  0  0  0  0  0  0  0  0  0  0
   15.7552   19.1965   24.0424 H   0  0  0  0  0  0  0  0  0  0  0  0
   16.4884   17.6664   24.5025 H   0  0  0  0  0  0  0  0  0  0  0  0
   17.9200   19.2556   24.0784 C   0  0  0  0  0  0  0  0  0  0  0  0
   17.9264   19.0764   22.9956 H   0  0  0  0  0  0  0  0  0  0  0  0
   17.9921   20.3435   24.2136 H   0  0  0  0  0  0  0  0  0  0  0  0
   19.1479   18.5651   24.7248 C   0  0  0  0  0  0  0  0  0  0  0  0
   19.0763   17.4774   24.5882 H   0  0  0  0  0  0  0  0  0  0  0  0
   19.1380   18.7416   25.8081 H   0  0  0  0  0  0  0  0  0  0  0  0
   20.5027   19.0706   24.1706 C   0  0  0  0  0  0  0  0  0  0  0  0
   20.5709   20.1554   24.3260 H   0  0  0  0  0  0  0  0  0  0  0  0
   21.3106   18.6200   24.7636 H   0  0  0  0  0  0  0  0  0  0  0  0
   20.7259   18.7283   22.6748 C   0  0  0  0  0  0  0  0  0  0  0  0
   20.0172   19.2859   22.0497 H   0  0  0  0  0  0  0  0  0  0  0  0
   20.5080   17.6630   22.5228 H   0  0  0  0  0  0  0  0  0  0  0  0
   22.1648   19.0086   22.1853 C   0  0  2  0  0  0  0  0  0  0  0  0
   22.8602   18.4736   22.8394 H   0  0  0  0  0  0  0  0  0  0  0  0
   22.5094   20.5081   22.2302 C   0  0  0  0  0  0  0  0  0  0  0  0
   21.8009   21.0961   21.6336 H   0  0  0  0  0  0  0  0  0  0  0  0
   22.4936   20.8899   23.2576 H   0  0  0  0  0  0  0  0  0  0  0  0
   23.5168   20.6850   21.8338 H   0  0  0  0  0  0  0  0  0  0  0  0
   22.3825   18.4657   20.8003 N   0  3  0  0  0  0  0  0  0  0  0  0
   22.2002   17.4588   20.7571 H   0  0  0  0  0  0  0  0  0  0  0  0
   23.3463   18.6142   20.4877 H   0  0  0  0  0  0  0  0  0  0  0  0
   21.7672   18.9194   20.1196 H   0  0  0  0  0  0  0  0  0  0  0  0
  1  2  1  0  0  0  0
  1  3  1  0  0  0  0
  1  4  1  0  0  0  0
  1  5  1  0  0  0  0
  5  6  1  0  0  0  0
  5  7  1  0  0  0  0
  5  8  1  0  0  0  0
  8  9  1  0  0  0  0
  8 10  1  0  0  0  0
  8 11  1  0  0  0  0
 11 12  1  0  0  0  0
 11 13  1  0  0  0  0
 11 14  1  0  0  0  0
 14 15  1  0  0  0  0
 14 16  1  0  0  0  0
 14 17  1  0  0  0  0
 17 18  1  0  0  0  0
 17 19  1  0  0  0  0
 17 20  1  0  0  0  0
 20 21  1  0  0  0  0
 20 22  1  0  0  0  0
 22 23  1  0  0  0  0
 22 24  1  0  0  0  0
 22 25  1  0  0  0  0
 20 26  1  0  0  0  0
 26 27  1  0  0  0  0
 26 28  1  0  0  0  0
 26 29  1  0  0  0  0
M  END
> <VConfSearch Rank>
26

> <Conf_Id>
73

> <Delta U+W>
1.580

> <U+W>
-26.246

> <U>
25.821

> <W>
-52.067

> <W(PB)>
-54.581

> <W(SA)>
2.514

> <Valence>
4.779

> <Coulomb>
19.614

> <VdW>
1.428

> <VdW6>
-9.390

> <VdW12>
10.818

> <Bond>
0.283

> <Angle>
1.640

> <Pdih>
2.856

> <Idih>
0.000

> <Tether>
0.000

$$$$
VeraChem MOL file


 29 28  0  0  0  0  0  0  0  0999 V2000     
   24.0210   20.6092   23.4823 C   0  0  0  0  0  0  0  0  0  0  0  0
   23.6768   21.1425   24.3781 H   0  0  0  0  0  0  0  0  0  0  0  0
   25.0997   20.4351   23.5874 H   0  0  0  0  0  0  0  0  0  0  0  0
   23.8682   21.2641   22.6146 H   0  0  0  0  0  0  0  0  0  0  0  0
   23.2679   19.2734   23.3084 C   0  0  0  0  0  0  0  0  0  0  0  0
   23.4659   18.6274   24.1752 H   0  0  0  0  0  0  0  0  0  0  0  0
   23.6579   18.7478   22.4255 H   0  0  0  0  0  0  0  0  0  0  0  0
   21.7459   19.4903   23.1571 C   0  0  0  0  0  0  0  0  0  0  0  0
   21.3724   20.0245   24.0403 H   0  0  0  0  0  0  0  0  0  0  0  0
   21.5530   20.1342   22.2880 H   0  0  0  0  0  0  0  0  0  0  0  0
   20.9896   18.1506   22.9875 C   0  0  0  0  0  0  0  0  0  0  0  0
   21.1322   17.5281   23.8816 H   0  0  0  0  0  0  0  0  0  0  0  0
   21.4345   17.5943   22.1508 H   0  0  0  0  0  0  0  0  0  0  0  0
   19.4756   18.3213   22.7099 C   0  0  0  0  0  0  0  0  0  0  0  0
   19.3342   18.9414   21.8139 H   0  0  0  0  0  0  0  0  0  0  0  0
   19.0618   17.3330   22.4702 H   0  0  0  0  0  0  0  0  0  0  0  0
   18.6935   18.9358   23.8994 C   0  0  0  0  0  0  0  0  0  0  0  0
   19.0925   19.9336   24.1193 H   0  0  0  0  0  0  0  0  0  0  0  0
   18.8497   18.3283   24.8006 H   0  0  0  0  0  0  0  0  0  0  0  0
   17.1806   19.0694   23.6199 C   0  0  2  0  0  0  0  0  0  0  0  0
   17.0515   19.6464   22.6990 H   0  0  0  0  0  0  0  0  0  0  0  0
   16.4907   19.8277   24.7652 C   0  0  0  0  0  0  0  0  0  0  0  0
   16.9278   20.8262   24.8910 H   0  0  0  0  0  0  0  0  0  0  0  0
   15.4214   19.9569   24.5567 H   0  0  0  0  0  0  0  0  0  0  0  0
   16.5912   19.2885   25.7155 H   0  0  0  0  0  0  0  0  0  0  0  0
   16.5149   17.7391   23.3951 N   0  3  0  0  0  0  0  0  0  0  0  0
   15.5168   17.8495   23.1944 H   0  0  0  0  0  0  0  0  0  0  0  0
   16.5974   17.1370   24.2187 H   0  0  0  0  0  0  0  0  0  0  0  0
   16.9327   17.2405   22.6050 H   0  0  0  0  0  0  0  0  0  0  0  0
  1  2  1  0  0  0  0
  1  3  1  0  0  0  0
  1  4  1  0  0  0  0
  1  5  1  0  0  0  0
  5  6  1  0  0  0  0
  5  7  1  0  0  0  0
  5  8  1  0  0  0  0
  8  9  1  0  0  0  0
  8 10  1  0  0  0  0
  8 11  1  0  0  0  0
 11 12  1  0  0  0  0
 11 13  1  0  0  0  0
 11 14  1  0  0  0  0
 14 15  1  0  0  0  0
 14 16  1  0  0  0  0
 14 17  1  0  0  0  0
 17 18  1  0  0  0  0
 17 19  1  0  0  0  0
 17 20  1  0  0  0  0
 20 21  1  0  0  0  0
 20 22  1  0  0  0  0
 22 23  1  0  0  0  0
 22 24  1  0  0  0  0
 22 25  1  0  0  0  0
 20 26  1  0  0  0  0
 26 27  1  0  0  0  0
 26 28  1  0  0  0  0
 26 29  1  0  0  0  0
M  END
> <VConfSearch Rank>
27

> <Conf_Id>
111

> <Delta U+W>
0.580

> <U+W>
-27.246

> <U>
24.710

> <W>
-51.957

> <W(PB)>
-54.511

> <W(SA)>
2.555

> <Valence>
3.735

> <Coulomb>
19.760

> <VdW>
1.216

> <VdW6>
-8.624

> <VdW12>
9.840

> <Bond>
0.236

> <Angle>
1.168

> <Pdih>
2.330

> <Idih>
0.000

> <Tether>
0.000

$$$$
VeraChem MOL file


 29 28  0  0  0  0  0  0  0  0999 V2000     
   22.8324   16.4482   21.9813 C   0  0  0  0  0  0  0  0  0  0  0  0
   22.1469   15.5916   21.9414 H   0  0  0  0  0  0  0  0  0  0  0  0
   22.6777   17.0524   21.0779 H   0  0  0  0  0  0  0  0  0  0  0  0
   23.8589   16.0599   21.9555 H   0  0  0  0  0  0  0  0  0  0  0  0
   22.5989   17.2863   23.2560 C   0  0  0  0  0  0  0  0  0  0  0  0
   23.3198   18.1154   23.2846 H   0  0  0  0  0  0  0  0  0  0  0  0
   22.7947   16.6652   24.1413 H   0  0  0  0  0  0  0  0  0  0  0  0
   21.1599   17.8446   23.3177 C   0  0  0  0  0  0  0  0  0  0  0  0
   20.9743   18.4552   22.4245 H   0  0  0  0  0  0  0  0  0  0  0  0
   20.4432   17.0123   23.2909 H   0  0  0  0  0  0  0  0  0  0  0  0
   20.9258   18.6886   24.5935 C   0  0  0  0  0  0  0  0  0  0  0  0
   21.6063   19.5513   24.5973 H   0  0  0  0  0  0  0  0  0  0  0  0
   21.1872   18.0861   25.4745 H   0  0  0  0  0  0  0  0  0  0  0  0
   19.4653   19.1785   24.7501 C   0  0  0  0  0  0  0  0  0  0  0  0
   18.7967   18.3079   24.7771 H   0  0  0  0  0  0  0  0  0  0  0  0
   19.3673   19.6768   25.7245 H   0  0  0  0  0  0  0  0  0  0  0  0
   19.0220   20.1597   23.6344 C   0  0  0  0  0  0  0  0  0  0  0  0
   18.9798   19.6391   22.6693 H   0  0  0  0  0  0  0  0  0  0  0  0
   19.7838   20.9440   23.5348 H   0  0  0  0  0  0  0  0  0  0  0  0
   17.6584   20.8332   23.9097 C   0  0  2  0  0  0  0  0  0  0  0  0
   17.7063   21.3170   24.8901 H   0  0  0  0  0  0  0  0  0  0  0  0
   16.5031   19.8163   23.9241 C   0  0  0  0  0  0  0  0  0  0  0  0
   16.4513   19.2612   22.9791 H   0  0  0  0  0  0  0  0  0  0  0  0
   16.6177   19.0945   24.7410 H   0  0  0  0  0  0  0  0  0  0  0  0
   15.5426   20.3248   24.0729 H   0  0  0  0  0  0  0  0  0  0  0  0
   17.3802   21.9231   22.9121 N   0  3  0  0  0  0  0  0  0  0  0  0
   18.1165   22.6349   22.9162 H   0  0  0  0  0  0  0  0  0  0  0  0
   16.4961   22.3984   23.1147 H   0  0  0  0  0  0  0  0  0  0  0  0
   17.3163   21.5517   21.9604 H   0  0  0  0  0  0  0  0  0  0  0  0
  1  2  1  0  0  0  0
  1  3  1  0  0  0  0
  1  4  1  0  0  0  0
  1  5  1  0  0  0  0
  5  6  1  0  0  0  0
  5  7  1  0  0  0  0
  5  8  1  0  0  0  0
  8  9  1  0  0  0  0
  8 10  1  0  0  0  0
  8 11  1  0  0  0  0
 11 12  1  0  0  0  0
 11 13  1  0  0  0  0
 11 14  1  0  0  0  0
 14 15  1  0  0  0  0
 14 16  1  0  0  0  0
 14 17  1  0  0  0  0
 17 18  1  0  0  0  0
 17 19  1  0  0  0  0
 17 20  1  0  0  0  0
 20 21  1  0  0  0  0
 20 22  1  0  0  0  0
 22 23  1  0  0  0  0
 22 24  1  0  0  0  0
 22 25  1  0  0  0  0
 20 26  1  0  0  0  0
 26 27  1  0  0  0  0
 26 28  1  0  0  0  0
 26 29  1  0  0  0  0
M  END
> <VConfSearch Rank>
28

> <Conf_Id>
39

> <Delta U+W>
0.965

> <U+W>
-26.861

> <U>
25.129

> <W>
-51.990

> <W(PB)>
-54.526

> <W(SA)>
2.536

> <Valence>
4.206

> <Coulomb>
19.678

> <VdW>
1.245

> <VdW6>
-8.834

> <VdW12>
10.079

> <Bond>
0.240

> <Angle>
1.353

> <Pdih>
2.613

> <Idih>
0.000

> <Tether>
0.000

$$$$
VeraChem MOL file


 29 28  0  0  0  0  0  0  0  0999 V2000     
   17.3565   16.6984   26.0862 C   0  0  0  0  0  0  0  0  0  0  0  0
   18.2402   16.4344   26.6814 H   0  0  0  0  0  0  0  0  0  0  0  0
   17.0521   17.7174   26.3549 H   0  0  0  0  0  0  0  0  0  0  0  0
   16.5414   16.0238   26.3784 H   0  0  0  0  0  0  0  0  0  0  0  0
   17.6470   16.5710   24.5735 C   0  0  0  0  0  0  0  0  0  0  0  0
   16.7602   16.8739   23.9993 H   0  0  0  0  0  0  0  0  0  0  0  0
   17.8196   15.5120   24.3361 H   0  0  0  0  0  0  0  0  0  0  0  0
   18.8763   17.3890   24.1090 C   0  0  0  0  0  0  0  0  0  0  0  0
   19.7598   17.0819   24.6852 H   0  0  0  0  0  0  0  0  0  0  0  0
   19.0812   17.1267   23.0633 H   0  0  0  0  0  0  0  0  0  0  0  0
   18.6788   18.9215   24.2303 C   0  0  0  0  0  0  0  0  0  0  0  0
   18.4659   19.1799   25.2755 H   0  0  0  0  0  0  0  0  0  0  0  0
   17.7979   19.2293   23.6504 H   0  0  0  0  0  0  0  0  0  0  0  0
   19.9116   19.7425   23.7778 C   0  0  0  0  0  0  0  0  0  0  0  0
   19.7299   20.7954   24.0297 H   0  0  0  0  0  0  0  0  0  0  0  0
   20.7855   19.4296   24.3642 H   0  0  0  0  0  0  0  0  0  0  0  0
   20.2135   19.6187   22.2591 C   0  0  0  0  0  0  0  0  0  0  0  0
   19.2974   19.8245   21.6902 H   0  0  0  0  0  0  0  0  0  0  0  0
   20.4941   18.5855   22.0202 H   0  0  0  0  0  0  0  0  0  0  0  0
   21.3318   20.5541   21.7418 C   0  0  2  0  0  0  0  0  0  0  0  0
   21.4360   20.3729   20.6675 H   0  0  0  0  0  0  0  0  0  0  0  0
   22.6890   20.2499   22.3994 C   0  0  0  0  0  0  0  0  0  0  0  0
   22.6863   20.4979   23.4675 H   0  0  0  0  0  0  0  0  0  0  0  0
   22.9444   19.1882   22.2933 H   0  0  0  0  0  0  0  0  0  0  0  0
   23.4860   20.8330   21.9219 H   0  0  0  0  0  0  0  0  0  0  0  0
   20.9774   22.0086   21.8854 N   0  3  0  0  0  0  0  0  0  0  0  0
   20.0957   22.2285   21.4133 H   0  0  0  0  0  0  0  0  0  0  0  0
   21.6999   22.6113   21.4810 H   0  0  0  0  0  0  0  0  0  0  0  0
   20.8744   22.2705   22.8689 H   0  0  0  0  0  0  0  0  0  0  0  0
  1  2  1  0  0  0  0
  1  3  1  0  0  0  0
  1  4  1  0  0  0  0
  1  5  1  0  0  0  0
  5  6  1  0  0  0  0
  5  7  1  0  0  0  0
  5  8  1  0  0  0  0
  8  9  1  0  0  0  0
  8 10  1  0  0  0  0
  8 11  1  0  0  0  0
 11 12  1  0  0  0  0
 11 13  1  0  0  0  0
 11 14  1  0  0  0  0
 14 15  1  0  0  0  0
 14 16  1  0  0  0  0
 14 17  1  0  0  0  0
 17 18  1  0  0  0  0
 17 19  1  0  0  0  0
 17 20  1  0  0  0  0
 20 21  1  0  0  0  0
 20 22  1  0  0  0  0
 22 23  1  0  0  0  0
 22 24  1  0  0  0  0
 22 25  1  0  0  0  0
 20 26  1  0  0  0  0
 26 27  1  0  0  0  0
 26 28  1  0  0  0  0
 26 29  1  0  0  0  0
M  END
> <VConfSearch Rank>
29

> <Conf_Id>
155

> <Delta U+W>
1.624

> <U+W>
-26.202

> <U>
25.894

> <W>
-52.096

> <W(PB)>
-54.602

> <W(SA)>
2.506

> <Valence>
4.779

> <Coulomb>
19.659

> <VdW>
1.456

> <VdW6>
-9.843

> <VdW12>
11.299

> <Bond>
0.315

> <Angle>
1.725

> <Pdih>
2.740

> <Idih>
0.000

> <Tether>
0.000

$$$$
VeraChem MOL file


 29 28  0  0  0  0  0  0  0  0999 V2000     
   17.0386   20.4934   26.2383 C   0  0  0  0  0  0  0  0  0  0  0  0
   17.9981   20.8951   26.5870 H   0  0  0  0  0  0  0  0  0  0  0  0
   16.7367   21.0517   25.3427 H   0  0  0  0  0  0  0  0  0  0  0  0
   16.2949   20.6875   27.0219 H   0  0  0  0  0  0  0  0  0  0  0  0
   17.1315   18.9791   25.9438 C   0  0  0  0  0  0  0  0  0  0  0  0
   16.1263   18.6005   25.7116 H   0  0  0  0  0  0  0  0  0  0  0  0
   17.4596   18.4464   26.8473 H   0  0  0  0  0  0  0  0  0  0  0  0
   18.0750   18.6409   24.7645 C   0  0  0  0  0  0  0  0  0  0  0  0
   18.0055   17.5638   24.5596 H   0  0  0  0  0  0  0  0  0  0  0  0
   17.7167   19.1537   23.8625 H   0  0  0  0  0  0  0  0  0  0  0  0
   19.5548   19.0111   25.0384 C   0  0  0  0  0  0  0  0  0  0  0  0
   19.8500   18.5992   26.0133 H   0  0  0  0  0  0  0  0  0  0  0  0
   19.6624   20.1010   25.1174 H   0  0  0  0  0  0  0  0  0  0  0  0
   20.5365   18.4789   23.9653 C   0  0  0  0  0  0  0  0  0  0  0  0
   21.5572   18.6717   24.3192 H   0  0  0  0  0  0  0  0  0  0  0  0
   20.4373   17.3876   23.8848 H   0  0  0  0  0  0  0  0  0  0  0  0
   20.3379   19.1270   22.5703 C   0  0  0  0  0  0  0  0  0  0  0  0
   20.4487   20.2166   22.6485 H   0  0  0  0  0  0  0  0  0  0  0  0
   19.3109   18.9415   22.2334 H   0  0  0  0  0  0  0  0  0  0  0  0
   21.2992   18.5831   21.4885 C   0  0  2  0  0  0  0  0  0  0  0  0
   21.2150   17.4921   21.4714 H   0  0  0  0  0  0  0  0  0  0  0  0
   22.7660   18.9552   21.7711 C   0  0  0  0  0  0  0  0  0  0  0  0
   22.8888   20.0413   21.8655 H   0  0  0  0  0  0  0  0  0  0  0  0
   23.1272   18.4865   22.6936 H   0  0  0  0  0  0  0  0  0  0  0  0
   23.4156   18.6094   20.9576 H   0  0  0  0  0  0  0  0  0  0  0  0
   20.8992   19.0601   20.1199 N   0  3  0  0  0  0  0  0  0  0  0  0
   19.9400   18.7849   19.8897 H   0  0  0  0  0  0  0  0  0  0  0  0
   21.5096   18.6713   19.3953 H   0  0  0  0  0  0  0  0  0  0  0  0
   20.9524   20.0799   20.0490 H   0  0  0  0  0  0  0  0  0  0  0  0
  1  2  1  0  0  0  0
  1  3  1  0  0  0  0
  1  4  1  0  0  0  0
  1  5  1  0  0  0  0
  5  6  1  0  0  0  0
  5  7  1  0  0  0  0
  5  8  1  0  0  0  0
  8  9  1  0  0  0  0
  8 10  1  0  0  0  0
  8 11  1  0  0  0  0
 11 12  1  0  0  0  0
 11 13  1  0  0  0  0
 11 14  1  0  0  0  0
 14 15  1  0  0  0  0
 14 16  1  0  0  0  0
 14 17  1  0  0  0  0
 17 18  1  0  0  0  0
 17 19  1  0  0  0  0
 17 20  1  0  0  0  0
 20 21  1  0  0  0  0
 20 22  1  0  0  0  0
 22 23  1  0  0  0  0
 22 24  1  0  0  0  0
 22 25  1  0  0  0  0
 20 26  1  0  0  0  0
 26 27  1  0  0  0  0
 26 28  1  0  0  0  0
 26 29  1  0  0  0  0
M  END
> <VConfSearch Rank>
30

> <Conf_Id>
135

> <Delta U+W>
1.581

> <U+W>
-26.245

> <U>
25.974

> <W>
-52.219

> <W(PB)>
-54.709

> <W(SA)>
2.490

> <Valence>
4.811

> <Coulomb>
19.700

> <VdW>
1.463

> <VdW6>
-9.391

> <VdW12>
10.854

> <Bond>
0.285

> <Angle>
1.671

> <Pdih>
2.855

> <Idih>
0.000

> <Tether>
0.000

$$$$
VeraChem MOL file


 29 28  0  0  0  0  0  0  0  0999 V2000     
   23.3857   17.3574   23.9291 C   0  0  0  0  0  0  0  0  0  0  0  0
   23.6800   18.3804   23.6607 H   0  0  0  0  0  0  0  0  0  0  0  0
   23.0344   17.3619   24.9684 H   0  0  0  0  0  0  0  0  0  0  0  0
   24.2836   16.7275   23.8867 H   0  0  0  0  0  0  0  0  0  0  0  0
   22.3023   16.8205   22.9667 C   0  0  0  0  0  0  0  0  0  0  0  0
   22.0064   15.8071   23.2718 H   0  0  0  0  0  0  0  0  0  0  0  0
   22.7367   16.7245   21.9617 H   0  0  0  0  0  0  0  0  0  0  0  0
   21.0519   17.7285   22.8832 C   0  0  0  0  0  0  0  0  0  0  0  0
   21.3568   18.7290   22.5492 H   0  0  0  0  0  0  0  0  0  0  0  0
   20.3830   17.3314   22.1074 H   0  0  0  0  0  0  0  0  0  0  0  0
   20.2751   17.8271   24.2203 C   0  0  0  0  0  0  0  0  0  0  0  0
   20.8903   18.3315   24.9770 H   0  0  0  0  0  0  0  0  0  0  0  0
   20.0850   16.8139   24.6003 H   0  0  0  0  0  0  0  0  0  0  0  0
   18.9207   18.5659   24.0901 C   0  0  0  0  0  0  0  0  0  0  0  0
   18.2919   18.0358   23.3627 H   0  0  0  0  0  0  0  0  0  0  0  0
   18.3973   18.5082   25.0545 H   0  0  0  0  0  0  0  0  0  0  0  0
   19.0703   20.0548   23.6842 C   0  0  0  0  0  0  0  0  0  0  0  0
   19.4688   20.1291   22.6644 H   0  0  0  0  0  0  0  0  0  0  0  0
   19.8105   20.5250   24.3450 H   0  0  0  0  0  0  0  0  0  0  0  0
   17.7521   20.8563   23.7762 C   0  0  2  0  0  0  0  0  0  0  0  0
   17.3507   20.7419   24.7879 H   0  0  0  0  0  0  0  0  0  0  0  0
   16.6978   20.3532   22.7740 C   0  0  0  0  0  0  0  0  0  0  0  0
   17.0775   20.3927   21.7454 H   0  0  0  0  0  0  0  0  0  0  0  0
   16.4016   19.3206   22.9918 H   0  0  0  0  0  0  0  0  0  0  0  0
   15.7911   20.9685   22.8257 H   0  0  0  0  0  0  0  0  0  0  0  0
   17.9962   22.3268   23.5807 N   0  3  0  0  0  0  0  0  0  0  0  0
   17.1312   22.8659   23.6803 H   0  0  0  0  0  0  0  0  0  0  0  0
   18.3728   22.5229   22.6493 H   0  0  0  0  0  0  0  0  0  0  0  0
   18.6635   22.6927   24.2661 H   0  0  0  0  0  0  0  0  0  0  0  0
  1  2  1  0  0  0  0
  1  3  1  0  0  0  0
  1  4  1  0  0  0  0
  1  5  1  0  0  0  0
  5  6  1  0  0  0  0
  5  7  1  0  0  0  0
  5  8  1  0  0  0  0
  8  9  1  0  0  0  0
  8 10  1  0  0  0  0
  8 11  1  0  0  0  0
 11 12  1  0  0  0  0
 11 13  1  0  0  0  0
 11 14  1  0  0  0  0
 14 15  1  0  0  0  0
 14 16  1  0  0  0  0
 14 17  1  0  0  0  0
 17 18  1  0  0  0  0
 17 19  1  0  0  0  0
 17 20  1  0  0  0  0
 20 21  1  0  0  0  0
 20 22  1  0  0  0  0
 22 23  1  0  0  0  0
 22 24  1  0  0  0  0
 22 25  1  0  0  0  0
 20 26  1  0  0  0  0
 26 27  1  0  0  0  0
 26 28  1  0  0  0  0
 26 29  1  0  0  0  0
M  END
> <VConfSearch Rank>
31

> <Conf_Id>
130

> <Delta U+W>
1.359

> <U+W>
-26.467

> <U>
25.687

> <W>
-52.154

> <W(PB)>
-54.643

> <W(SA)>
2.489

> <Valence>
4.682

> <Coulomb>
19.653

> <VdW>
1.352

> <VdW6>
-9.477

> <VdW12>
10.829

> <Bond>
0.274

> <Angle>
1.550

> <Pdih>
2.858

> <Idih>
0.000

> <Tether>
0.000

$$$$
VeraChem MOL file


 29 28  0  0  0  0  0  0  0  0999 V2000     
   19.8736   19.4135   19.4327 C   0  0  0  0  0  0  0  0  0  0  0  0
   20.4925   19.2895   18.5346 H   0  0  0  0  0  0  0  0  0  0  0  0
   18.8212   19.3813   19.1222 H   0  0  0  0  0  0  0  0  0  0  0  0
   20.0821   20.4101   19.8410 H   0  0  0  0  0  0  0  0  0  0  0  0
   20.1840   18.3019   20.4606 C   0  0  0  0  0  0  0  0  0  0  0  0
   21.2329   18.3763   20.7801 H   0  0  0  0  0  0  0  0  0  0  0  0
   20.0817   17.3255   19.9668 H   0  0  0  0  0  0  0  0  0  0  0  0
   19.2565   18.3304   21.6995 C   0  0  0  0  0  0  0  0  0  0  0  0
   18.2110   18.2374   21.3750 H   0  0  0  0  0  0  0  0  0  0  0  0
   19.4691   17.4410   22.3058 H   0  0  0  0  0  0  0  0  0  0  0  0
   19.4221   19.6071   22.5632 C   0  0  0  0  0  0  0  0  0  0  0  0
   19.1409   20.4831   21.9644 H   0  0  0  0  0  0  0  0  0  0  0  0
   20.4784   19.7401   22.8260 H   0  0  0  0  0  0  0  0  0  0  0  0
   18.5414   19.5968   23.8397 C   0  0  0  0  0  0  0  0  0  0  0  0
   18.4685   20.6159   24.2442 H   0  0  0  0  0  0  0  0  0  0  0  0
   17.5170   19.3238   23.5509 H   0  0  0  0  0  0  0  0  0  0  0  0
   19.0257   18.6318   24.9573 C   0  0  0  0  0  0  0  0  0  0  0  0
   19.5843   17.7889   24.5334 H   0  0  0  0  0  0  0  0  0  0  0  0
   18.1360   18.1935   25.4284 H   0  0  0  0  0  0  0  0  0  0  0  0
   19.8602   19.3049   26.0732 C   0  0  2  0  0  0  0  0  0  0  0  0
   19.2630   20.1143   26.5042 H   0  0  0  0  0  0  0  0  0  0  0  0
   21.1767   19.9045   25.5510 C   0  0  0  0  0  0  0  0  0  0  0  0
   20.9846   20.7354   24.8623 H   0  0  0  0  0  0  0  0  0  0  0  0
   21.7755   20.3036   26.3789 H   0  0  0  0  0  0  0  0  0  0  0  0
   21.7775   19.1499   25.0283 H   0  0  0  0  0  0  0  0  0  0  0  0
   20.1372   18.3423   27.1944 N   0  3  0  0  0  0  0  0  0  0  0  0
   19.2712   17.9651   27.5904 H   0  0  0  0  0  0  0  0  0  0  0  0
   20.6492   18.7944   27.9573 H   0  0  0  0  0  0  0  0  0  0  0  0
   20.7010   17.5496   26.8758 H   0  0  0  0  0  0  0  0  0  0  0  0
  1  2  1  0  0  0  0
  1  3  1  0  0  0  0
  1  4  1  0  0  0  0
  1  5  1  0  0  0  0
  5  6  1  0  0  0  0
  5  7  1  0  0  0  0
  5  8  1  0  0  0  0
  8  9  1  0  0  0  0
  8 10  1  0  0  0  0
  8 11  1  0  0  0  0
 11 12  1  0  0  0  0
 11 13  1  0  0  0  0
 11 14  1  0  0  0  0
 14 15  1  0  0  0  0
 14 16  1  0  0  0  0
 14 17  1  0  0  0  0
 17 18  1  0  0  0  0
 17 19  1  0  0  0  0
 17 20  1  0  0  0  0
 20 21  1  0  0  0  0
 20 22  1  0  0  0  0
 22 23  1  0  0  0  0
 22 24  1  0  0  0  0
 22 25  1  0  0  0  0
 20 26  1  0  0  0  0
 26 27  1  0  0  0  0
 26 28  1  0  0  0  0
 26 29  1  0  0  0  0
M  END
> <VConfSearch Rank>
32

> <Conf_Id>
157

> <Delta U+W>
4.354

> <U+W>
-23.472

> <U>
28.780

> <W>
-52.252

> <W(PB)>
-54.715

> <W(SA)>
2.462

> <Valence>
7.566

> <Coulomb>
19.822

> <VdW>
1.392

> <VdW6>
-10.248

> <VdW12>
11.641

> <Bond>
0.340

> <Angle>
2.096

> <Pdih>
5.129

> <Idih>
0.000

> <Tether>
0.000

$$$$
VeraChem MOL file


 29 28  0  0  0  0  0  0  0  0999 V2000     
   20.1628   16.6069   20.8613 C   0  0  0  0  0  0  0  0  0  0  0  0
   20.4933   15.5776   20.6711 H   0  0  0  0  0  0  0  0  0  0  0  0
   19.4300   16.5756   21.6751 H   0  0  0  0  0  0  0  0  0  0  0  0
   19.6496   16.9638   19.9589 H   0  0  0  0  0  0  0  0  0  0  0  0
   21.3721   17.5092   21.2008 C   0  0  0  0  0  0  0  0  0  0  0  0
   22.0678   17.4766   20.3506 H   0  0  0  0  0  0  0  0  0  0  0  0
   21.9245   17.1015   22.0587 H   0  0  0  0  0  0  0  0  0  0  0  0
   20.9814   18.9864   21.4633 C   0  0  0  0  0  0  0  0  0  0  0  0
   21.7760   19.6271   21.0563 H   0  0  0  0  0  0  0  0  0  0  0  0
   20.0752   19.2459   20.8989 H   0  0  0  0  0  0  0  0  0  0  0  0
   20.8033   19.3586   22.9579 C   0  0  0  0  0  0  0  0  0  0  0  0
   20.6043   20.4367   23.0124 H   0  0  0  0  0  0  0  0  0  0  0  0
   21.7512   19.1955   23.4889 H   0  0  0  0  0  0  0  0  0  0  0  0
   19.6724   18.5826   23.6769 C   0  0  0  0  0  0  0  0  0  0  0  0
   18.7380   18.6697   23.1069 H   0  0  0  0  0  0  0  0  0  0  0  0
   19.9252   17.5149   23.6957 H   0  0  0  0  0  0  0  0  0  0  0  0
   19.4486   19.0415   25.1410 C   0  0  0  0  0  0  0  0  0  0  0  0
   20.3714   18.8681   25.7104 H   0  0  0  0  0  0  0  0  0  0  0  0
   18.6813   18.4042   25.6003 H   0  0  0  0  0  0  0  0  0  0  0  0
   19.0351   20.5229   25.2909 C   0  0  2  0  0  0  0  0  0  0  0  0
   19.8221   21.1473   24.8583 H   0  0  0  0  0  0  0  0  0  0  0  0
   18.8961   20.8912   26.7765 C   0  0  0  0  0  0  0  0  0  0  0  0
   18.1112   20.2972   27.2613 H   0  0  0  0  0  0  0  0  0  0  0  0
   19.8377   20.7148   27.3112 H   0  0  0  0  0  0  0  0  0  0  0  0
   18.6418   21.9521   26.8912 H   0  0  0  0  0  0  0  0  0  0  0  0
   17.7692   20.8435   24.5449 N   0  3  0  0  0  0  0  0  0  0  0  0
   17.8653   20.6376   23.5467 H   0  0  0  0  0  0  0  0  0  0  0  0
   17.5225   21.8334   24.6332 H   0  0  0  0  0  0  0  0  0  0  0  0
   16.9796   20.2971   24.8989 H   0  0  0  0  0  0  0  0  0  0  0  0
  1  2  1  0  0  0  0
  1  3  1  0  0  0  0
  1  4  1  0  0  0  0
  1  5  1  0  0  0  0
  5  6  1  0  0  0  0
  5  7  1  0  0  0  0
  5  8  1  0  0  0  0
  8  9  1  0  0  0  0
  8 10  1  0  0  0  0
  8 11  1  0  0  0  0
 11 12  1  0  0  0  0
 11 13  1  0  0  0  0
 11 14  1  0  0  0  0
 14 15  1  0  0  0  0
 14 16  1  0  0  0  0
 14 17  1  0  0  0  0
 17 18  1  0  0  0  0
 17 19  1  0  0  0  0
 17 20  1  0  0  0  0
 20 21  1  0  0  0  0
 20 22  1  0  0  0  0
 22 23  1  0  0  0  0
 22 24  1  0  0  0  0
 22 25  1  0  0  0  0
 20 26  1  0  0  0  0
 26 27  1  0  0  0  0
 26 28  1  0  0  0  0
 26 29  1  0  0  0  0
M  END
> <VConfSearch Rank>
33

> <Conf_Id>
158

> <Delta U+W>
3.648

> <U+W>
-24.178

> <U>
28.057

> <W>
-52.235

> <W(PB)>
-54.696

> <W(SA)>
2.460

> <Valence>
6.543

> <Coulomb>
20.387

> <VdW>
1.127

> <VdW6>
-10.342

> <VdW12>
11.469

> <Bond>
0.308

> <Angle>
1.938

> <Pdih>
4.297

> <Idih>
0.000

> <Tether>
0.000

$$$$
VeraChem MOL file


 29 28  0  0  0  0  0  0  0  0999 V2000     
   16.3731   18.0559   22.5346 C   0  0  0  0  0  0  0  0  0  0  0  0
   16.0071   18.9429   23.0677 H   0  0  0  0  0  0  0  0  0  0  0  0
   17.1193   18.3799   21.7986 H   0  0  0  0  0  0  0  0  0  0  0  0
   15.5291   17.6252   21.9804 H   0  0  0  0  0  0  0  0  0  0  0  0
   16.9590   17.0184   23.5190 C   0  0  0  0  0  0  0  0  0  0  0  0
   17.3474   16.1559   22.9594 H   0  0  0  0  0  0  0  0  0  0  0  0
   16.1473   16.6338   24.1522 H   0  0  0  0  0  0  0  0  0  0  0  0
   18.0693   17.5939   24.4309 C   0  0  0  0  0  0  0  0  0  0  0  0
   17.6707   18.4443   25.0011 H   0  0  0  0  0  0  0  0  0  0  0  0
   18.3456   16.8287   25.1694 H   0  0  0  0  0  0  0  0  0  0  0  0
   19.3364   18.0318   23.6583 C   0  0  0  0  0  0  0  0  0  0  0  0
   19.0816   18.8332   22.9563 H   0  0  0  0  0  0  0  0  0  0  0  0
   19.7035   17.1905   23.0546 H   0  0  0  0  0  0  0  0  0  0  0  0
   20.4572   18.5016   24.6179 C   0  0  0  0  0  0  0  0  0  0  0  0
   20.0866   19.2930   25.2840 H   0  0  0  0  0  0  0  0  0  0  0  0
   20.7250   17.6584   25.2696 H   0  0  0  0  0  0  0  0  0  0  0  0
   21.7371   18.9804   23.8826 C   0  0  0  0  0  0  0  0  0  0  0  0
   21.8289   18.4778   22.9106 H   0  0  0  0  0  0  0  0  0  0  0  0
   22.6039   18.6523   24.4715 H   0  0  0  0  0  0  0  0  0  0  0  0
   21.8499   20.5138   23.7046 C   0  0  2  0  0  0  0  0  0  0  0  0
   21.8043   20.9755   24.6957 H   0  0  0  0  0  0  0  0  0  0  0  0
   20.7150   21.1021   22.8495 C   0  0  0  0  0  0  0  0  0  0  0  0
   20.6544   20.6060   21.8729 H   0  0  0  0  0  0  0  0  0  0  0  0
   19.7478   20.9985   23.3548 H   0  0  0  0  0  0  0  0  0  0  0  0
   20.8753   22.1736   22.6779 H   0  0  0  0  0  0  0  0  0  0  0  0
   23.1849   20.8912   23.1251 N   0  3  0  0  0  0  0  0  0  0  0  0
   23.9576   20.5512   23.7050 H   0  0  0  0  0  0  0  0  0  0  0  0
   23.2856   21.9074   23.0490 H   0  0  0  0  0  0  0  0  0  0  0  0
   23.3090   20.5008   22.1871 H   0  0  0  0  0  0  0  0  0  0  0  0
  1  2  1  0  0  0  0
  1  3  1  0  0  0  0
  1  4  1  0  0  0  0
  1  5  1  0  0  0  0
  5  6  1  0  0  0  0
  5  7  1  0  0  0  0
  5  8  1  0  0  0  0
  8  9  1  0  0  0  0
  8 10  1  0  0  0  0
  8 11  1  0  0  0  0
 11 12  1  0  0  0  0
 11 13  1  0  0  0  0
 11 14  1  0  0  0  0
 14 15  1  0  0  0  0
 14 16  1  0  0  0  0
 14 17  1  0  0  0  0
 17 18  1  0  0  0  0
 17 19  1  0  0  0  0
 17 20  1  0  0  0  0
 20 21  1  0  0  0  0
 20 22  1  0  0  0  0
 22 23  1  0  0  0  0
 22 24  1  0  0  0  0
 22 25  1  0  0  0  0
 20 26  1  0  0  0  0
 26 27  1  0  0  0  0
 26 28  1  0  0  0  0
 26 29  1  0  0  0  0
M  END
> <VConfSearch Rank>
34

> <Conf_Id>
156

> <Delta U+W>
3.393

> <U+W>
-24.433

> <U>
27.713

> <W>
-52.146

> <W(PB)>
-54.603

> <W(SA)>
2.458

> <Valence>
6.758

> <Coulomb>
19.720

> <VdW>
1.235

> <VdW6>
-9.782

> <VdW12>
11.017

> <Bond>
0.287

> <Angle>
1.880

> <Pdih>
4.591

> <Idih>
0.000

> <Tether>
0.000

$$$$
VeraChem MOL file


 29 28  0  0  0  0  0  0  0  0999 V2000     
   18.5573   16.9181   26.4761 C   0  0  0  0  0  0  0  0  0  0  0  0
   18.7517   16.0686   25.8083 H   0  0  0  0  0  0  0  0  0  0  0  0
   19.1047   16.7492   27.4126 H   0  0  0  0  0  0  0  0  0  0  0  0
   17.4847   16.9251   26.7094 H   0  0  0  0  0  0  0  0  0  0  0  0
   18.9804   18.2483   25.8180 C   0  0  0  0  0  0  0  0  0  0  0  0
   18.7473   19.0812   26.4959 H   0  0  0  0  0  0  0  0  0  0  0  0
   18.3846   18.4005   24.9084 H   0  0  0  0  0  0  0  0  0  0  0  0
   20.4887   18.2605   25.4755 C   0  0  0  0  0  0  0  0  0  0  0  0
   21.0621   18.0300   26.3839 H   0  0  0  0  0  0  0  0  0  0  0  0
   20.7152   17.4540   24.7658 H   0  0  0  0  0  0  0  0  0  0  0  0
   20.9888   19.6178   24.9163 C   0  0  0  0  0  0  0  0  0  0  0  0
   22.0682   19.5438   24.7248 H   0  0  0  0  0  0  0  0  0  0  0  0
   20.8748   20.3849   25.6945 H   0  0  0  0  0  0  0  0  0  0  0  0
   20.2822   20.1106   23.6268 C   0  0  0  0  0  0  0  0  0  0  0  0
   19.2234   20.3054   23.8383 H   0  0  0  0  0  0  0  0  0  0  0  0
   20.7202   21.0798   23.3559 H   0  0  0  0  0  0  0  0  0  0  0  0
   20.4197   19.1262   22.4333 C   0  0  0  0  0  0  0  0  0  0  0  0
   19.9561   18.1668   22.6938 H   0  0  0  0  0  0  0  0  0  0  0  0
   21.4825   18.9126   22.2589 H   0  0  0  0  0  0  0  0  0  0  0  0
   19.7855   19.6153   21.1098 C   0  0  2  0  0  0  0  0  0  0  0  0
   19.9060   18.8119   20.3764 H   0  0  0  0  0  0  0  0  0  0  0  0
   20.4939   20.8619   20.5513 C   0  0  0  0  0  0  0  0  0  0  0  0
   20.1186   21.0980   19.5480 H   0  0  0  0  0  0  0  0  0  0  0  0
   20.3293   21.7414   21.1847 H   0  0  0  0  0  0  0  0  0  0  0  0
   21.5748   20.6929   20.4705 H   0  0  0  0  0  0  0  0  0  0  0  0
   18.3049   19.8472   21.2344 N   0  3  0  0  0  0  0  0  0  0  0  0
   17.8194   19.0064   21.5601 H   0  0  0  0  0  0  0  0  0  0  0  0
   17.8911   20.1113   20.3357 H   0  0  0  0  0  0  0  0  0  0  0  0
   18.1023   20.5984   21.8985 H   0  0  0  0  0  0  0  0  0  0  0  0
  1  2  1  0  0  0  0
  1  3  1  0  0  0  0
  1  4  1  0  0  0  0
  1  5  1  0  0  0  0
  5  6  1  0  0  0  0
  5  7  1  0  0  0  0
  5  8  1  0  0  0  0
  8  9  1  0  0  0  0
  8 10  1  0  0  0  0
  8 11  1  0  0  0  0
 11 12  1  0  0  0  0
 11 13  1  0  0  0  0
 11 14  1  0  0  0  0
 14 15  1  0  0  0  0
 14 16  1  0  0  0  0
 14 17  1  0  0  0  0
 17 18  1  0  0  0  0
 17 19  1  0  0  0  0
 17 20  1  0  0  0  0
 20 21  1  0  0  0  0
 20 22  1  0  0  0  0
 22 23  1  0  0  0  0
 22 24  1  0  0  0  0
 22 25  1  0  0  0  0
 20 26  1  0  0  0  0
 26 27  1  0  0  0  0
 26 28  1  0  0  0  0
 26 29  1  0  0  0  0
M  END
> <VConfSearch Rank>
35

> <Conf_Id>
78

> <Delta U+W>
1.477

> <U+W>
-26.349

> <U>
26.385

> <W>
-52.734

> <W(PB)>
-55.179

> <W(SA)>
2.445

> <Valence>
4.726

> <Coulomb>
20.482

> <VdW>
1.177

> <VdW6>
-10.349

> <VdW12>
11.526

> <Bond>
0.319

> <Angle>
1.933

> <Pdih>
2.474

> <Idih>
0.000

> <Tether>
0.000

$$$$
VeraChem MOL file


 29 28  0  0  0  0  0  0  0  0999 V2000     
   22.6605   16.8007   24.2770 C   0  0  0  0  0  0  0  0  0  0  0  0
   23.5198   17.4065   24.5927 H   0  0  0  0  0  0  0  0  0  0  0  0
   21.8239   17.0285   24.9467 H   0  0  0  0  0  0  0  0  0  0  0  0
   22.9258   15.7455   24.4225 H   0  0  0  0  0  0  0  0  0  0  0  0
   22.3105   17.0711   22.7951 C   0  0  0  0  0  0  0  0  0  0  0  0
   21.5009   16.4052   22.4657 H   0  0  0  0  0  0  0  0  0  0  0  0
   23.1863   16.8056   22.1866 H   0  0  0  0  0  0  0  0  0  0  0  0
   21.9415   18.5501   22.5117 C   0  0  0  0  0  0  0  0  0  0  0  0
   22.4519   19.2125   23.2244 H   0  0  0  0  0  0  0  0  0  0  0  0
   22.3391   18.8178   21.5230 H   0  0  0  0  0  0  0  0  0  0  0  0
   20.4208   18.8524   22.4995 C   0  0  0  0  0  0  0  0  0  0  0  0
   19.9384   18.2622   21.7082 H   0  0  0  0  0  0  0  0  0  0  0  0
   20.2922   19.9056   22.2180 H   0  0  0  0  0  0  0  0  0  0  0  0
   19.7076   18.5848   23.8477 C   0  0  0  0  0  0  0  0  0  0  0  0
   19.7692   17.5142   24.0807 H   0  0  0  0  0  0  0  0  0  0  0  0
   20.2316   19.1071   24.6587 H   0  0  0  0  0  0  0  0  0  0  0  0
   18.2080   18.9801   23.8377 C   0  0  0  0  0  0  0  0  0  0  0  0
   17.7668   18.7231   24.8099 H   0  0  0  0  0  0  0  0  0  0  0  0
   17.6906   18.3583   23.0953 H   0  0  0  0  0  0  0  0  0  0  0  0
   17.9179   20.4677   23.5268 C   0  0  2  0  0  0  0  0  0  0  0  0
   18.3453   20.7070   22.5488 H   0  0  0  0  0  0  0  0  0  0  0  0
   18.5385   21.4102   24.5731 C   0  0  0  0  0  0  0  0  0  0  0  0
   18.2748   22.4532   24.3588 H   0  0  0  0  0  0  0  0  0  0  0  0
   18.1842   21.1699   25.5833 H   0  0  0  0  0  0  0  0  0  0  0  0
   19.6328   21.3446   24.5675 H   0  0  0  0  0  0  0  0  0  0  0  0
   16.4400   20.7178   23.4116 N   0  3  0  0  0  0  0  0  0  0  0  0
   15.9578   20.5217   24.2930 H   0  0  0  0  0  0  0  0  0  0  0  0
   16.0131   20.1299   22.6898 H   0  0  0  0  0  0  0  0  0  0  0  0
   16.2435   21.6925   23.1663 H   0  0  0  0  0  0  0  0  0  0  0  0
  1  2  1  0  0  0  0
  1  3  1  0  0  0  0
  1  4  1  0  0  0  0
  1  5  1  0  0  0  0
  5  6  1  0  0  0  0
  5  7  1  0  0  0  0
  5  8  1  0  0  0  0
  8  9  1  0  0  0  0
  8 10  1  0  0  0  0
  8 11  1  0  0  0  0
 11 12  1  0  0  0  0
 11 13  1  0  0  0  0
 11 14  1  0  0  0  0
 14 15  1  0  0  0  0
 14 16  1  0  0  0  0
 14 17  1  0  0  0  0
 17 18  1  0  0  0  0
 17 19  1  0  0  0  0
 17 20  1  0  0  0  0
 20 21  1  0  0  0  0
 20 22  1  0  0  0  0
 22 23  1  0  0  0  0
 22 24  1  0  0  0  0
 22 25  1  0  0  0  0
 20 26  1  0  0  0  0
 26 27  1  0  0  0  0
 26 28  1  0  0  0  0
 26 29  1  0  0  0  0
M  END
> <VConfSearch Rank>
36

> <Conf_Id>
145

> <Delta U+W>
3.784

> <U+W>
-24.042

> <U>
28.220

> <W>
-52.262

> <W(PB)>
-54.724

> <W(SA)>
2.462

> <Valence>
7.040

> <Coulomb>
19.984

> <VdW>
1.197

> <VdW6>
-10.566

> <VdW12>
11.763

> <Bond>
0.320

> <Angle>
2.280

> <Pdih>
4.439

> <Idih>
0.000

> <Tether>
0.000

$$$$
VeraChem MOL file


 29 28  0  0  0  0  0  0  0  0999 V2000     
   19.9381   15.2218   23.7158 C   0  0  0  0  0  0  0  0  0  0  0  0
   20.8403   14.6459   23.9598 H   0  0  0  0  0  0  0  0  0  0  0  0
   19.4018   15.4299   24.6508 H   0  0  0  0  0  0  0  0  0  0  0  0
   19.2936   14.5899   23.0910 H   0  0  0  0  0  0  0  0  0  0  0  0
   20.2970   16.5300   22.9800 C   0  0  0  0  0  0  0  0  0  0  0  0
   19.3733   17.0576   22.7135 H   0  0  0  0  0  0  0  0  0  0  0  0
   20.8007   16.2865   22.0341 H   0  0  0  0  0  0  0  0  0  0  0  0
   21.2159   17.4328   23.8378 C   0  0  0  0  0  0  0  0  0  0  0  0
   20.7561   17.6296   24.8160 H   0  0  0  0  0  0  0  0  0  0  0  0
   22.1415   16.8780   24.0450 H   0  0  0  0  0  0  0  0  0  0  0  0
   21.5891   18.7689   23.1441 C   0  0  0  0  0  0  0  0  0  0  0  0
   21.5722   18.6498   22.0520 H   0  0  0  0  0  0  0  0  0  0  0  0
   22.6313   19.0065   23.3987 H   0  0  0  0  0  0  0  0  0  0  0  0
   20.7192   19.9828   23.5616 C   0  0  0  0  0  0  0  0  0  0  0  0
   20.8356   20.1514   24.6403 H   0  0  0  0  0  0  0  0  0  0  0  0
   21.1276   20.8721   23.0651 H   0  0  0  0  0  0  0  0  0  0  0  0
   19.2142   19.8348   23.2124 C   0  0  0  0  0  0  0  0  0  0  0  0
   18.7924   18.9977   23.7817 H   0  0  0  0  0  0  0  0  0  0  0  0
   19.1090   19.5720   22.1516 H   0  0  0  0  0  0  0  0  0  0  0  0
   18.3514   21.0853   23.5046 C   0  0  2  0  0  0  0  0  0  0  0  0
   17.3123   20.8200   23.2866 H   0  0  0  0  0  0  0  0  0  0  0  0
   18.7242   22.2733   22.6004 C   0  0  0  0  0  0  0  0  0  0  0  0
   18.0057   23.0921   22.7291 H   0  0  0  0  0  0  0  0  0  0  0  0
   19.7213   22.6651   22.8326 H   0  0  0  0  0  0  0  0  0  0  0  0
   18.7071   21.9796   21.5435 H   0  0  0  0  0  0  0  0  0  0  0  0
   18.3854   21.4802   24.9553 N   0  3  0  0  0  0  0  0  0  0  0  0
   19.3279   21.7565   25.2417 H   0  0  0  0  0  0  0  0  0  0  0  0
   18.0919   20.7088   25.5613 H   0  0  0  0  0  0  0  0  0  0  0  0
   17.7627   22.2712   25.1424 H   0  0  0  0  0  0  0  0  0  0  0  0
  1  2  1  0  0  0  0
  1  3  1  0  0  0  0
  1  4  1  0  0  0  0
  1  5  1  0  0  0  0
  5  6  1  0  0  0  0
  5  7  1  0  0  0  0
  5  8  1  0  0  0  0
  8  9  1  0  0  0  0
  8 10  1  0  0  0  0
  8 11  1  0  0  0  0
 11 12  1  0  0  0  0
 11 13  1  0  0  0  0
 11 14  1  0  0  0  0
 14 15  1  0  0  0  0
 14 16  1  0  0  0  0
 14 17  1  0  0  0  0
 17 18  1  0  0  0  0
 17 19  1  0  0  0  0
 17 20  1  0  0  0  0
 20 21  1  0  0  0  0
 20 22  1  0  0  0  0
 22 23  1  0  0  0  0
 22 24  1  0  0  0  0
 22 25  1  0  0  0  0
 20 26  1  0  0  0  0
 26 27  1  0  0  0  0
 26 28  1  0  0  0  0
 26 29  1  0  0  0  0
M  END
> <VConfSearch Rank>
37

> <Conf_Id>
71

> <Delta U+W>
3.542

> <U+W>
-24.284

> <U>
28.217

> <W>
-52.501

> <W(PB)>
-54.947

> <W(SA)>
2.446

> <Valence>
6.821

> <Coulomb>
20.147

> <VdW>
1.249

> <VdW6>
-10.237

> <VdW12>
11.486

> <Bond>
0.317

> <Angle>
1.990

> <Pdih>
4.515

> <Idih>
0.000

> <Tether>
0.000

$$$$
VeraChem MOL file


 29 28  0  0  0  0  0  0  0  0999 V2000     
   21.8225   22.4586   22.7764 C   0  0  0  0  0  0  0  0  0  0  0  0
   20.9776   22.8852   23.3326 H   0  0  0  0  0  0  0  0  0  0  0  0
   22.7502   22.7556   23.2828 H   0  0  0  0  0  0  0  0  0  0  0  0
   21.8273   22.9068   21.7743 H   0  0  0  0  0  0  0  0  0  0  0  0
   21.7070   20.9223   22.6858 C   0  0  0  0  0  0  0  0  0  0  0  0
   22.5472   20.5306   22.0956 H   0  0  0  0  0  0  0  0  0  0  0  0
   20.7937   20.6629   22.1374 H   0  0  0  0  0  0  0  0  0  0  0  0
   21.7096   20.2671   24.0880 C   0  0  0  0  0  0  0  0  0  0  0  0
   22.6545   20.5284   24.5843 H   0  0  0  0  0  0  0  0  0  0  0  0
   20.9122   20.6934   24.7121 H   0  0  0  0  0  0  0  0  0  0  0  0
   21.5879   18.7213   24.0485 C   0  0  0  0  0  0  0  0  0  0  0  0
   22.2081   18.3096   24.8567 H   0  0  0  0  0  0  0  0  0  0  0  0
   22.0178   18.3279   23.1171 H   0  0  0  0  0  0  0  0  0  0  0  0
   20.1486   18.1787   24.2439 C   0  0  0  0  0  0  0  0  0  0  0  0
   20.2026   17.0829   24.2802 H   0  0  0  0  0  0  0  0  0  0  0  0
   19.7777   18.5011   25.2259 H   0  0  0  0  0  0  0  0  0  0  0  0
   19.1513   18.6124   23.1370 C   0  0  0  0  0  0  0  0  0  0  0  0
   19.5922   18.4111   22.1521 H   0  0  0  0  0  0  0  0  0  0  0  0
   18.9966   19.6971   23.1917 H   0  0  0  0  0  0  0  0  0  0  0  0
   17.7669   17.9254   23.2046 C   0  0  2  0  0  0  0  0  0  0  0  0
   17.1687   18.3172   22.3761 H   0  0  0  0  0  0  0  0  0  0  0  0
   17.0235   18.2519   24.5115 C   0  0  0  0  0  0  0  0  0  0  0  0
   16.9632   19.3365   24.6650 H   0  0  0  0  0  0  0  0  0  0  0  0
   15.9984   17.8633   24.4771 H   0  0  0  0  0  0  0  0  0  0  0  0
   17.5211   17.8084   25.3821 H   0  0  0  0  0  0  0  0  0  0  0  0
   17.8513   16.4392   22.9895 N   0  3  0  0  0  0  0  0  0  0  0  0
   18.3069   16.2139   22.1006 H   0  0  0  0  0  0  0  0  0  0  0  0
   16.9216   16.0102   22.9746 H   0  0  0  0  0  0  0  0  0  0  0  0
   18.3865   15.9859   23.7341 H   0  0  0  0  0  0  0  0  0  0  0  0
  1  2  1  0  0  0  0
  1  3  1  0  0  0  0
  1  4  1  0  0  0  0
  1  5  1  0  0  0  0
  5  6  1  0  0  0  0
  5  7  1  0  0  0  0
  5  8  1  0  0  0  0
  8  9  1  0  0  0  0
  8 10  1  0  0  0  0
  8 11  1  0  0  0  0
 11 12  1  0  0  0  0
 11 13  1  0  0  0  0
 11 14  1  0  0  0  0
 14 15  1  0  0  0  0
 14 16  1  0  0  0  0
 14 17  1  0  0  0  0
 17 18  1  0  0  0  0
 17 19  1  0  0  0  0
 17 20  1  0  0  0  0
 20 21  1  0  0  0  0
 20 22  1  0  0  0  0
 22 23  1  0  0  0  0
 22 24  1  0  0  0  0
 22 25  1  0  0  0  0
 20 26  1  0  0  0  0
 26 27  1  0  0  0  0
 26 28  1  0  0  0  0
 26 29  1  0  0  0  0
M  END
> <VConfSearch Rank>
38

> <Conf_Id>
163

> <Delta U+W>
3.309

> <U+W>
-24.517

> <U>
27.916

> <W>
-52.433

> <W(PB)>
-54.866

> <W(SA)>
2.433

> <Valence>
6.693

> <Coulomb>
20.015

> <VdW>
1.208

> <VdW6>
-10.294

> <VdW12>
11.503

> <Bond>
0.312

> <Angle>
1.939

> <Pdih>
4.441

> <Idih>
0.000

> <Tether>
0.000

$$$$
VeraChem MOL file


 29 28  0  0  0  0  0  0  0  0999 V2000     
   18.2282   17.4813   20.2674 C   0  0  0  0  0  0  0  0  0  0  0  0
   18.5251   18.1621   19.4591 H   0  0  0  0  0  0  0  0  0  0  0  0
   19.0673   16.8059   20.4746 H   0  0  0  0  0  0  0  0  0  0  0  0
   17.3949   16.8681   19.9006 H   0  0  0  0  0  0  0  0  0  0  0  0
   17.8055   18.2677   21.5291 C   0  0  0  0  0  0  0  0  0  0  0  0
   17.5473   17.5654   22.3339 H   0  0  0  0  0  0  0  0  0  0  0  0
   16.8872   18.8279   21.3038 H   0  0  0  0  0  0  0  0  0  0  0  0
   18.8821   19.2622   22.0270 C   0  0  0  0  0  0  0  0  0  0  0  0
   19.1340   19.9646   21.2207 H   0  0  0  0  0  0  0  0  0  0  0  0
   18.4413   19.8611   22.8342 H   0  0  0  0  0  0  0  0  0  0  0  0
   20.1705   18.5701   22.5395 C   0  0  0  0  0  0  0  0  0  0  0  0
   20.6088   17.9710   21.7311 H   0  0  0  0  0  0  0  0  0  0  0  0
   19.9161   17.8612   23.3383 H   0  0  0  0  0  0  0  0  0  0  0  0
   21.2530   19.5649   23.0335 C   0  0  0  0  0  0  0  0  0  0  0  0
   22.1486   18.9986   23.3223 H   0  0  0  0  0  0  0  0  0  0  0  0
   21.5641   20.2007   22.1931 H   0  0  0  0  0  0  0  0  0  0  0  0
   20.8199   20.4757   24.2135 C   0  0  0  0  0  0  0  0  0  0  0  0
   20.0567   21.1821   23.8630 H   0  0  0  0  0  0  0  0  0  0  0  0
   21.6762   21.0900   24.5219 H   0  0  0  0  0  0  0  0  0  0  0  0
   20.2760   19.7067   25.4377 C   0  0  2  0  0  0  0  0  0  0  0  0
   19.4226   19.1036   25.1136 H   0  0  0  0  0  0  0  0  0  0  0  0
   19.7880   20.6888   26.5142 C   0  0  0  0  0  0  0  0  0  0  0  0
   19.3662   20.1482   27.3704 H   0  0  0  0  0  0  0  0  0  0  0  0
   20.6091   21.3190   26.8784 H   0  0  0  0  0  0  0  0  0  0  0  0
   19.0042   21.3452   26.1160 H   0  0  0  0  0  0  0  0  0  0  0  0
   21.2893   18.7535   26.0091 N   0  3  0  0  0  0  0  0  0  0  0  0
   21.5981   18.0760   25.3066 H   0  0  0  0  0  0  0  0  0  0  0  0
   20.9054   18.2268   26.7989 H   0  0  0  0  0  0  0  0  0  0  0  0
   22.1191   19.2497   26.3450 H   0  0  0  0  0  0  0  0  0  0  0  0
  1  2  1  0  0  0  0
  1  3  1  0  0  0  0
  1  4  1  0  0  0  0
  1  5  1  0  0  0  0
  5  6  1  0  0  0  0
  5  7  1  0  0  0  0
  5  8  1  0  0  0  0
  8  9  1  0  0  0  0
  8 10  1  0  0  0  0
  8 11  1  0  0  0  0
 11 12  1  0  0  0  0
 11 13  1  0  0  0  0
 11 14  1  0  0  0  0
 14 15  1  0  0  0  0
 14 16  1  0  0  0  0
 14 17  1  0  0  0  0
 17 18  1  0  0  0  0
 17 19  1  0  0  0  0
 17 20  1  0  0  0  0
 20 21  1  0  0  0  0
 20 22  1  0  0  0  0
 22 23  1  0  0  0  0
 22 24  1  0  0  0  0
 22 25  1  0  0  0  0
 20 26  1  0  0  0  0
 26 27  1  0  0  0  0
 26 28  1  0  0  0  0
 26 29  1  0  0  0  0
M  END
> <VConfSearch Rank>
39

> <Conf_Id>
173

> <Delta U+W>
1.363

> <U+W>
-26.462

> <U>
25.816

> <W>
-52.279

> <W(PB)>
-54.727

> <W(SA)>
2.449

> <Valence>
4.504

> <Coulomb>
20.342

> <VdW>
0.971

> <VdW6>
-10.532

> <VdW12>
11.503

> <Bond>
0.307

> <Angle>
1.715

> <Pdih>
2.481

> <Idih>
0.000

> <Tether>
0.000

$$$$
VeraChem MOL file


 29 28  0  0  0  0  0  0  0  0999 V2000     
   23.0010   17.1313   24.5464 C   0  0  0  0  0  0  0  0  0  0  0  0
   22.9237   17.2595   25.6340 H   0  0  0  0  0  0  0  0  0  0  0  0
   23.1788   16.0679   24.3391 H   0  0  0  0  0  0  0  0  0  0  0  0
   23.8792   17.6928   24.2023 H   0  0  0  0  0  0  0  0  0  0  0  0
   21.7238   17.6292   23.8376 C   0  0  0  0  0  0  0  0  0  0  0  0
   21.8412   17.5131   22.7512 H   0  0  0  0  0  0  0  0  0  0  0  0
   21.6032   18.7018   24.0390 H   0  0  0  0  0  0  0  0  0  0  0  0
   20.4706   16.8600   24.3140 C   0  0  0  0  0  0  0  0  0  0  0  0
   20.6556   15.7813   24.2163 H   0  0  0  0  0  0  0  0  0  0  0  0
   20.3141   17.0469   25.3853 H   0  0  0  0  0  0  0  0  0  0  0  0
   19.1733   17.2031   23.5369 C   0  0  0  0  0  0  0  0  0  0  0  0
   18.3707   16.5689   23.9383 H   0  0  0  0  0  0  0  0  0  0  0  0
   19.2777   16.9145   22.4819 H   0  0  0  0  0  0  0  0  0  0  0  0
   18.7231   18.6829   23.6504 C   0  0  0  0  0  0  0  0  0  0  0  0
   17.6261   18.7038   23.6951 H   0  0  0  0  0  0  0  0  0  0  0  0
   19.0751   19.1013   24.6020 H   0  0  0  0  0  0  0  0  0  0  0  0
   19.1859   19.5553   22.4504 C   0  0  0  0  0  0  0  0  0  0  0  0
   18.7702   19.1357   21.5250 H   0  0  0  0  0  0  0  0  0  0  0  0
   20.2743   19.4996   22.3369 H   0  0  0  0  0  0  0  0  0  0  0  0
   18.7781   21.0449   22.5342 C   0  0  2  0  0  0  0  0  0  0  0  0
   19.1076   21.5244   21.6072 H   0  0  0  0  0  0  0  0  0  0  0  0
   19.4716   21.7680   23.7020 C   0  0  0  0  0  0  0  0  0  0  0  0
   20.5586   21.6257   23.6587 H   0  0  0  0  0  0  0  0  0  0  0  0
   19.2757   22.8463   23.6553 H   0  0  0  0  0  0  0  0  0  0  0  0
   19.1159   21.4057   24.6737 H   0  0  0  0  0  0  0  0  0  0  0  0
   17.2871   21.2319   22.5929 N   0  3  0  0  0  0  0  0  0  0  0  0
   16.8219   20.7913   21.7940 H   0  0  0  0  0  0  0  0  0  0  0  0
   17.0339   22.2241   22.5859 H   0  0  0  0  0  0  0  0  0  0  0  0
   16.8952   20.8206   23.4436 H   0  0  0  0  0  0  0  0  0  0  0  0
  1  2  1  0  0  0  0
  1  3  1  0  0  0  0
  1  4  1  0  0  0  0
  1  5  1  0  0  0  0
  5  6  1  0  0  0  0
  5  7  1  0  0  0  0
  5  8  1  0  0  0  0
  8  9  1  0  0  0  0
  8 10  1  0  0  0  0
  8 11  1  0  0  0  0
 11 12  1  0  0  0  0
 11 13  1  0  0  0  0
 11 14  1  0  0  0  0
 14 15  1  0  0  0  0
 14 16  1  0  0  0  0
 14 17  1  0  0  0  0
 17 18  1  0  0  0  0
 17 19  1  0  0  0  0
 17 20  1  0  0  0  0
 20 21  1  0  0  0  0
 20 22  1  0  0  0  0
 22 23  1  0  0  0  0
 22 24  1  0  0  0  0
 22 25  1  0  0  0  0
 20 26  1  0  0  0  0
 26 27  1  0  0  0  0
 26 28  1  0  0  0  0
 26 29  1  0  0  0  0
M  END
> <VConfSearch Rank>
40

> <Conf_Id>
117

> <Delta U+W>
3.377

> <U+W>
-24.449

> <U>
27.947

> <W>
-52.396

> <W(PB)>
-54.842

> <W(SA)>
2.447

> <Valence>
6.731

> <Coulomb>
20.067

> <VdW>
1.149

> <VdW6>
-10.427

> <VdW12>
11.575

> <Bond>
0.324

> <Angle>
1.943

> <Pdih>
4.465

> <Idih>
0.000

> <Tether>
0.000

$$$$
VeraChem MOL file


 29 28  0  0  0  0  0  0  0  0999 V2000     
   20.7852   23.2559   21.1882 C   0  0  0  0  0  0  0  0  0  0  0  0
   21.3224   23.6755   22.0488 H   0  0  0  0  0  0  0  0  0  0  0  0
   21.5228   22.8065   20.5106 H   0  0  0  0  0  0  0  0  0  0  0  0
   20.3003   24.0850   20.6567 H   0  0  0  0  0  0  0  0  0  0  0  0
   19.7406   22.2139   21.6409 C   0  0  0  0  0  0  0  0  0  0  0  0
   19.1970   21.8376   20.7630 H   0  0  0  0  0  0  0  0  0  0  0  0
   18.9982   22.6998   22.2894 H   0  0  0  0  0  0  0  0  0  0  0  0
   20.3974   21.0350   22.3924 C   0  0  0  0  0  0  0  0  0  0  0  0
   21.1403   20.5539   21.7411 H   0  0  0  0  0  0  0  0  0  0  0  0
   20.9415   21.4163   23.2676 H   0  0  0  0  0  0  0  0  0  0  0  0
   19.3544   19.9893   22.8472 C   0  0  0  0  0  0  0  0  0  0  0  0
   18.8103   19.6099   21.9711 H   0  0  0  0  0  0  0  0  0  0  0  0
   18.6121   20.4711   23.4986 H   0  0  0  0  0  0  0  0  0  0  0  0
   20.0120   18.8097   23.5983 C   0  0  0  0  0  0  0  0  0  0  0  0
   20.7516   18.3262   22.9449 H   0  0  0  0  0  0  0  0  0  0  0  0
   20.5588   19.1974   24.4681 H   0  0  0  0  0  0  0  0  0  0  0  0
   18.9650   17.7644   24.0538 C   0  0  0  0  0  0  0  0  0  0  0  0
   18.3931   17.4301   23.1779 H   0  0  0  0  0  0  0  0  0  0  0  0
   18.2451   18.2333   24.7379 H   0  0  0  0  0  0  0  0  0  0  0  0
   19.6001   16.5319   24.7332 C   0  0  2  0  0  0  0  0  0  0  0  0
   20.3294   16.0974   24.0426 H   0  0  0  0  0  0  0  0  0  0  0  0
   18.5264   15.4731   25.0305 C   0  0  0  0  0  0  0  0  0  0  0  0
   18.9765   14.5794   25.4802 H   0  0  0  0  0  0  0  0  0  0  0  0
   17.7686   15.8598   25.7233 H   0  0  0  0  0  0  0  0  0  0  0  0
   18.0196   15.1621   24.1084 H   0  0  0  0  0  0  0  0  0  0  0  0
   20.3501   16.8885   25.9874 N   0  3  0  0  0  0  0  0  0  0  0  0
   21.0984   17.5604   25.7971 H   0  0  0  0  0  0  0  0  0  0  0  0
   20.7807   16.0628   26.4133 H   0  0  0  0  0  0  0  0  0  0  0  0
   19.7303   17.3063   26.6866 H   0  0  0  0  0  0  0  0  0  0  0  0
  1  2  1  0  0  0  0
  1  3  1  0  0  0  0
  1  4  1  0  0  0  0
  1  5  1  0  0  0  0
  5  6  1  0  0  0  0
  5  7  1  0  0  0  0
  5  8  1  0  0  0  0
  8  9  1  0  0  0  0
  8 10  1  0  0  0  0
  8 11  1  0  0  0  0
 11 12  1  0  0  0  0
 11 13  1  0  0  0  0
 11 14  1  0  0  0  0
 14 15  1  0  0  0  0
 14 16  1  0  0  0  0
 14 17  1  0  0  0  0
 17 18  1  0  0  0  0
 17 19  1  0  0  0  0
 17 20  1  0  0  0  0
 20 21  1  0  0  0  0
 20 22  1  0  0  0  0
 22 23  1  0  0  0  0
 22 24  1  0  0  0  0
 22 25  1  0  0  0  0
 20 26  1  0  0  0  0
 26 27  1  0  0  0  0
 26 28  1  0  0  0  0
 26 29  1  0  0  0  0
M  END
> <VConfSearch Rank>
41

> <Conf_Id>
164

> <Delta U+W>
0.000

> <U+W>
-27.826

> <U>
23.963

> <W>
-51.789

> <W(PB)>
-54.342

> <W(SA)>
2.554

> <Valence>
3.166

> <Coulomb>
19.734

> <VdW>
1.062

> <VdW6>
-7.938

> <VdW12>
9.001

> <Bond>
0.188

> <Angle>
0.880

> <Pdih>
2.098

> <Idih>
0.000

> <Tether>
0.000

$$$$
VeraChem MOL file


 29 28  0  0  0  0  0  0  0  0999 V2000     
   16.6362   22.7516   23.6819 C   0  0  0  0  0  0  0  0  0  0  0  0
   17.0405   23.1858   24.6057 H   0  0  0  0  0  0  0  0  0  0  0  0
   17.0937   23.2723   22.8305 H   0  0  0  0  0  0  0  0  0  0  0  0
   15.5572   22.9519   23.6594 H   0  0  0  0  0  0  0  0  0  0  0  0
   16.9102   21.2342   23.6162 C   0  0  0  0  0  0  0  0  0  0  0  0
   16.4655   20.8228   22.6992 H   0  0  0  0  0  0  0  0  0  0  0  0
   16.4127   20.7370   24.4607 H   0  0  0  0  0  0  0  0  0  0  0  0
   18.4232   20.9244   23.6465 C   0  0  0  0  0  0  0  0  0  0  0  0
   18.9164   21.4255   22.8021 H   0  0  0  0  0  0  0  0  0  0  0  0
   18.8636   21.3394   24.5637 H   0  0  0  0  0  0  0  0  0  0  0  0
   18.7015   19.4057   23.5808 C   0  0  0  0  0  0  0  0  0  0  0  0
   18.2610   18.9915   22.6632 H   0  0  0  0  0  0  0  0  0  0  0  0
   18.2065   18.9060   24.4250 H   0  0  0  0  0  0  0  0  0  0  0  0
   20.2154   19.0963   23.6116 C   0  0  0  0  0  0  0  0  0  0  0  0
   20.7012   19.6068   22.7698 H   0  0  0  0  0  0  0  0  0  0  0  0
   20.6547   19.5062   24.5317 H   0  0  0  0  0  0  0  0  0  0  0  0
   20.4916   17.5743   23.5409 C   0  0  0  0  0  0  0  0  0  0  0  0
   20.1116   17.1725   22.5922 H   0  0  0  0  0  0  0  0  0  0  0  0
   19.9228   17.0786   24.3388 H   0  0  0  0  0  0  0  0  0  0  0  0
   21.9836   17.2037   23.7021 C   0  0  2  0  0  0  0  0  0  0  0  0
   22.3496   17.6497   24.6321 H   0  0  0  0  0  0  0  0  0  0  0  0
   22.8419   17.7307   22.5381 C   0  0  0  0  0  0  0  0  0  0  0  0
   22.4729   17.3602   21.5736 H   0  0  0  0  0  0  0  0  0  0  0  0
   22.8439   18.8263   22.5079 H   0  0  0  0  0  0  0  0  0  0  0  0
   23.8843   17.4080   22.6499 H   0  0  0  0  0  0  0  0  0  0  0  0
   22.1602   15.7177   23.8465 N   0  3  0  0  0  0  0  0  0  0  0  0
   23.1430   15.4703   23.9932 H   0  0  0  0  0  0  0  0  0  0  0  0
   21.8415   15.2202   23.0105 H   0  0  0  0  0  0  0  0  0  0  0  0
   21.6317   15.3507   24.6433 H   0  0  0  0  0  0  0  0  0  0  0  0
  1  2  1  0  0  0  0
  1  3  1  0  0  0  0
  1  4  1  0  0  0  0
  1  5  1  0  0  0  0
  5  6  1  0  0  0  0
  5  7  1  0  0  0  0
  5  8  1  0  0  0  0
  8  9  1  0  0  0  0
  8 10  1  0  0  0  0
  8 11  1  0  0  0  0
 11 12  1  0  0  0  0
 11 13  1  0  0  0  0
 11 14  1  0  0  0  0
 14 15  1  0  0  0  0
 14 16  1  0  0  0  0
 14 17  1  0  0  0  0
 17 18  1  0  0  0  0
 17 19  1  0  0  0  0
 17 20  1  0  0  0  0
 20 21  1  0  0  0  0
 20 22  1  0  0  0  0
 22 23  1  0  0  0  0
 22 24  1  0  0  0  0
 22 25  1  0  0  0  0
 20 26  1  0  0  0  0
 26 27  1  0  0  0  0
 26 28  1  0  0  0  0
 26 29  1  0  0  0  0
M  END
> <VConfSearch Rank>
42

> <Conf_Id>
58

> <Delta U+W>
0.412

> <U+W>
-27.414

> <U>
24.279

> <W>
-51.694

> <W(PB)>
-54.271

> <W(SA)>
2.577

> <Valence>
3.709

> <Coulomb>
19.380

> <VdW>
1.191

> <VdW6>
-8.093

> <VdW12>
9.284

> <Bond>
0.200

> <Angle>
1.161

> <Pdih>
2.348

> <Idih>
0.000

> <Tether>
0.000

$$$$
VeraChem MOL file


 29 28  0  0  0  0  0  0  0  0999 V2000     
   17.2679   18.7346   19.5049 C   0  0  0  0  0  0  0  0  0  0  0  0
   17.9060   19.4581   18.9809 H   0  0  0  0  0  0  0  0  0  0  0  0
   17.6567   17.7277   19.3045 H   0  0  0  0  0  0  0  0  0  0  0  0
   16.2605   18.7991   19.0735 H   0  0  0  0  0  0  0  0  0  0  0  0
   17.2311   19.0234   21.0206 C   0  0  0  0  0  0  0  0  0  0  0  0
   16.5595   18.3058   21.5123 H   0  0  0  0  0  0  0  0  0  0  0  0
   16.8070   20.0229   21.1911 H   0  0  0  0  0  0  0  0  0  0  0  0
   18.6378   18.9390   21.6531 C   0  0  0  0  0  0  0  0  0  0  0  0
   19.0584   17.9391   21.4783 H   0  0  0  0  0  0  0  0  0  0  0  0
   19.3060   19.6563   21.1567 H   0  0  0  0  0  0  0  0  0  0  0  0
   18.6049   19.2279   23.1708 C   0  0  0  0  0  0  0  0  0  0  0  0
   17.9359   18.5105   23.6659 H   0  0  0  0  0  0  0  0  0  0  0  0
   18.1837   20.2279   23.3445 H   0  0  0  0  0  0  0  0  0  0  0  0
   20.0124   19.1436   23.8034 C   0  0  0  0  0  0  0  0  0  0  0  0
   20.4280   18.1430   23.6251 H   0  0  0  0  0  0  0  0  0  0  0  0
   20.6741   19.8600   23.2992 H   0  0  0  0  0  0  0  0  0  0  0  0
   19.9732   19.4378   25.3257 C   0  0  0  0  0  0  0  0  0  0  0  0
   19.2703   18.7463   25.8085 H   0  0  0  0  0  0  0  0  0  0  0  0
   19.5672   20.4448   25.4903 H   0  0  0  0  0  0  0  0  0  0  0  0
   21.3380   19.3286   26.0459 C   0  0  2  0  0  0  0  0  0  0  0  0
   21.1621   19.5282   27.1076 H   0  0  0  0  0  0  0  0  0  0  0  0
   22.3463   20.3735   25.5372 C   0  0  0  0  0  0  0  0  0  0  0  0
   23.2526   20.3641   26.1550 H   0  0  0  0  0  0  0  0  0  0  0  0
   22.6459   20.1774   24.5009 H   0  0  0  0  0  0  0  0  0  0  0  0
   21.9202   21.3832   25.5873 H   0  0  0  0  0  0  0  0  0  0  0  0
   21.9161   17.9422   25.9729 N   0  3  0  0  0  0  0  0  0  0  0  0
   21.2683   17.2450   26.3510 H   0  0  0  0  0  0  0  0  0  0  0  0
   22.7874   17.8717   26.5062 H   0  0  0  0  0  0  0  0  0  0  0  0
   22.1249   17.6777   25.0070 H   0  0  0  0  0  0  0  0  0  0  0  0
  1  2  1  0  0  0  0
  1  3  1  0  0  0  0
  1  4  1  0  0  0  0
  1  5  1  0  0  0  0
  5  6  1  0  0  0  0
  5  7  1  0  0  0  0
  5  8  1  0  0  0  0
  8  9  1  0  0  0  0
  8 10  1  0  0  0  0
  8 11  1  0  0  0  0
 11 12  1  0  0  0  0
 11 13  1  0  0  0  0
 11 14  1  0  0  0  0
 14 15  1  0  0  0  0
 14 16  1  0  0  0  0
 14 17  1  0  0  0  0
 17 18  1  0  0  0  0
 17 19  1  0  0  0  0
 17 20  1  0  0  0  0
 20 21  1  0  0  0  0
 20 22  1  0  0  0  0
 22 23  1  0  0  0  0
 22 24  1  0  0  0  0
 22 25  1  0  0  0  0
 20 26  1  0  0  0  0
 26 27  1  0  0  0  0
 26 28  1  0  0  0  0
 26 29  1  0  0  0  0
M  END
> <VConfSearch Rank>
43

> <Conf_Id>
137

> <Delta U+W>
0.280

> <U+W>
-27.546

> <U>
24.513

> <W>
-52.059

> <W(PB)>
-54.556

> <W(SA)>
2.497

> <Valence>
3.677

> <Coulomb>
19.662

> <VdW>
1.174

> <VdW6>
-8.569

> <VdW12>
9.743

> <Bond>
0.224

> <Angle>
1.211

> <Pdih>
2.243

> <Idih>
0.000

> <Tether>
0.000

$$$$
VeraChem MOL file


 29 28  0  0  0  0  0  0  0  0999 V2000     
   20.8524   17.5410   19.5047 C   0  0  0  0  0  0  0  0  0  0  0  0
   21.4377   18.4687   19.4599 H   0  0  0  0  0  0  0  0  0  0  0  0
   21.4978   16.7483   19.9050 H   0  0  0  0  0  0  0  0  0  0  0  0
   20.5778   17.2658   18.4781 H   0  0  0  0  0  0  0  0  0  0  0  0
   19.5914   17.7222   20.3760 C   0  0  0  0  0  0  0  0  0  0  0  0
   19.0097   16.7897   20.3730 H   0  0  0  0  0  0  0  0  0  0  0  0
   18.9504   18.4974   19.9332 H   0  0  0  0  0  0  0  0  0  0  0  0
   19.9501   18.1094   21.8278 C   0  0  0  0  0  0  0  0  0  0  0  0
   20.5887   17.3304   22.2666 H   0  0  0  0  0  0  0  0  0  0  0  0
   20.5388   19.0356   21.8143 H   0  0  0  0  0  0  0  0  0  0  0  0
   18.6856   18.2954   22.7008 C   0  0  0  0  0  0  0  0  0  0  0  0
   18.0692   17.3885   22.6306 H   0  0  0  0  0  0  0  0  0  0  0  0
   18.0739   19.1150   22.2990 H   0  0  0  0  0  0  0  0  0  0  0  0
   18.9929   18.5611   24.1954 C   0  0  0  0  0  0  0  0  0  0  0  0
   18.0430   18.5266   24.7440 H   0  0  0  0  0  0  0  0  0  0  0  0
   19.6110   17.7451   24.5944 H   0  0  0  0  0  0  0  0  0  0  0  0
   19.6922   19.9216   24.4523 C   0  0  0  0  0  0  0  0  0  0  0  0
   19.0695   20.7379   24.0630 H   0  0  0  0  0  0  0  0  0  0  0  0
   20.6331   19.9517   23.8900 H   0  0  0  0  0  0  0  0  0  0  0  0
   20.0194   20.1821   25.9408 C   0  0  2  0  0  0  0  0  0  0  0  0
   20.5872   19.3278   26.3221 H   0  0  0  0  0  0  0  0  0  0  0  0
   18.7507   20.3466   26.7970 C   0  0  0  0  0  0  0  0  0  0  0  0
   18.1124   21.1508   26.4102 H   0  0  0  0  0  0  0  0  0  0  0  0
   18.1624   19.4224   26.8226 H   0  0  0  0  0  0  0  0  0  0  0  0
   19.0137   20.5906   27.8336 H   0  0  0  0  0  0  0  0  0  0  0  0
   20.9081   21.3848   26.0969 N   0  3  0  0  0  0  0  0  0  0  0  0
   21.7810   21.2798   25.5717 H   0  0  0  0  0  0  0  0  0  0  0  0
   21.1596   21.5389   27.0776 H   0  0  0  0  0  0  0  0  0  0  0  0
   20.4478   22.2357   25.7624 H   0  0  0  0  0  0  0  0  0  0  0  0
  1  2  1  0  0  0  0
  1  3  1  0  0  0  0
  1  4  1  0  0  0  0
  1  5  1  0  0  0  0
  5  6  1  0  0  0  0
  5  7  1  0  0  0  0
  5  8  1  0  0  0  0
  8  9  1  0  0  0  0
  8 10  1  0  0  0  0
  8 11  1  0  0  0  0
 11 12  1  0  0  0  0
 11 13  1  0  0  0  0
 11 14  1  0  0  0  0
 14 15  1  0  0  0  0
 14 16  1  0  0  0  0
 14 17  1  0  0  0  0
 17 18  1  0  0  0  0
 17 19  1  0  0  0  0
 17 20  1  0  0  0  0
 20 21  1  0  0  0  0
 20 22  1  0  0  0  0
 22 23  1  0  0  0  0
 22 24  1  0  0  0  0
 22 25  1  0  0  0  0
 20 26  1  0  0  0  0
 26 27  1  0  0  0  0
 26 28  1  0  0  0  0
 26 29  1  0  0  0  0
M  END
> <VConfSearch Rank>
44

> <Conf_Id>
40

> <Delta U+W>
1.128

> <U+W>
-26.698

> <U>
25.442

> <W>
-52.140

> <W(PB)>
-54.658

> <W(SA)>
2.519

> <Valence>
4.343

> <Coulomb>
19.740

> <VdW>
1.360

> <VdW6>
-8.739

> <VdW12>
10.099

> <Bond>
0.251

> <Angle>
1.483

> <Pdih>
2.608

> <Idih>
0.000

> <Tether>
0.000

$$$$
VeraChem MOL file


 29 28  0  0  0  0  0  0  0  0999 V2000     
   23.1865   21.7945   23.0852 C   0  0  0  0  0  0  0  0  0  0  0  0
   22.4698   22.2297   22.3781 H   0  0  0  0  0  0  0  0  0  0  0  0
   23.0285   22.2600   24.0667 H   0  0  0  0  0  0  0  0  0  0  0  0
   24.1932   22.0670   22.7428 H   0  0  0  0  0  0  0  0  0  0  0  0
   23.0423   20.2579   23.1691 C   0  0  0  0  0  0  0  0  0  0  0  0
   23.8609   19.8606   23.7854 H   0  0  0  0  0  0  0  0  0  0  0  0
   23.1693   19.8188   22.1697 H   0  0  0  0  0  0  0  0  0  0  0  0
   21.6959   19.7953   23.7772 C   0  0  0  0  0  0  0  0  0  0  0  0
   21.7471   18.7090   23.9225 H   0  0  0  0  0  0  0  0  0  0  0  0
   21.5742   20.2369   24.7758 H   0  0  0  0  0  0  0  0  0  0  0  0
   20.4692   20.1453   22.8967 C   0  0  0  0  0  0  0  0  0  0  0  0
   20.5879   19.6991   21.8997 H   0  0  0  0  0  0  0  0  0  0  0  0
   20.4288   21.2317   22.7457 H   0  0  0  0  0  0  0  0  0  0  0  0
   19.1175   19.6996   23.5077 C   0  0  0  0  0  0  0  0  0  0  0  0
   19.0087   20.1305   24.5126 H   0  0  0  0  0  0  0  0  0  0  0  0
   18.3130   20.1310   22.8980 H   0  0  0  0  0  0  0  0  0  0  0  0
   18.9436   18.1602   23.5764 C   0  0  0  0  0  0  0  0  0  0  0  0
   19.7313   17.7328   24.2086 H   0  0  0  0  0  0  0  0  0  0  0  0
   19.0728   17.7265   22.5759 H   0  0  0  0  0  0  0  0  0  0  0  0
   17.5758   17.7345   24.1532 C   0  0  2  0  0  0  0  0  0  0  0  0
   17.4542   18.2078   25.1324 H   0  0  0  0  0  0  0  0  0  0  0  0
   17.5279   16.2101   24.3449 C   0  0  0  0  0  0  0  0  0  0  0  0
   16.5717   15.9042   24.7870 H   0  0  0  0  0  0  0  0  0  0  0  0
   17.6456   15.6859   23.3882 H   0  0  0  0  0  0  0  0  0  0  0  0
   18.3273   15.8762   25.0181 H   0  0  0  0  0  0  0  0  0  0  0  0
   16.4222   18.1931   23.3034 N   0  3  0  0  0  0  0  0  0  0  0  0
   16.4690   17.7917   22.3631 H   0  0  0  0  0  0  0  0  0  0  0  0
   16.4125   19.2118   23.2042 H   0  0  0  0  0  0  0  0  0  0  0  0
   15.5244   17.9165   23.7109 H   0  0  0  0  0  0  0  0  0  0  0  0
  1  2  1  0  0  0  0
  1  3  1  0  0  0  0
  1  4  1  0  0  0  0
  1  5  1  0  0  0  0
  5  6  1  0  0  0  0
  5  7  1  0  0  0  0
  5  8  1  0  0  0  0
  8  9  1  0  0  0  0
  8 10  1  0  0  0  0
  8 11  1  0  0  0  0
 11 12  1  0  0  0  0
 11 13  1  0  0  0  0
 11 14  1  0  0  0  0
 14 15  1  0  0  0  0
 14 16  1  0  0  0  0
 14 17  1  0  0  0  0
 17 18  1  0  0  0  0
 17 19  1  0  0  0  0
 17 20  1  0  0  0  0
 20 21  1  0  0  0  0
 20 22  1  0  0  0  0
 22 23  1  0  0  0  0
 22 24  1  0  0  0  0
 22 25  1  0  0  0  0
 20 26  1  0  0  0  0
 26 27  1  0  0  0  0
 26 28  1  0  0  0  0
 26 29  1  0  0  0  0
M  END
> <VConfSearch Rank>
45

> <Conf_Id>
134

> <Delta U+W>
1.228

> <U+W>
-26.598

> <U>
25.451

> <W>
-52.048

> <W(PB)>
-54.539

> <W(SA)>
2.490

> <Valence>
4.319

> <Coulomb>
19.732

> <VdW>
1.400

> <VdW6>
-9.173

> <VdW12>
10.573

> <Bond>
0.281

> <Angle>
1.459

> <Pdih>
2.580

> <Idih>
0.000

> <Tether>
0.000

$$$$
VeraChem MOL file


 29 28  0  0  0  0  0  0  0  0999 V2000     
   16.9076   16.6777   25.6593 C   0  0  0  0  0  0  0  0  0  0  0  0
   17.8278   16.3134   26.1324 H   0  0  0  0  0  0  0  0  0  0  0  0
   16.5572   17.5556   26.2175 H   0  0  0  0  0  0  0  0  0  0  0  0
   16.1502   15.8900   25.7629 H   0  0  0  0  0  0  0  0  0  0  0  0
   17.1308   17.0197   24.1686 C   0  0  0  0  0  0  0  0  0  0  0  0
   16.1591   17.2541   23.7118 H   0  0  0  0  0  0  0  0  0  0  0  0
   17.5140   16.1362   23.6393 H   0  0  0  0  0  0  0  0  0  0  0  0
   18.0844   18.2184   23.9456 C   0  0  0  0  0  0  0  0  0  0  0  0
   18.0709   18.4675   22.8768 H   0  0  0  0  0  0  0  0  0  0  0  0
   17.6959   19.0993   24.4748 H   0  0  0  0  0  0  0  0  0  0  0  0
   19.5415   17.9388   24.3938 C   0  0  0  0  0  0  0  0  0  0  0  0
   19.9303   17.0588   23.8634 H   0  0  0  0  0  0  0  0  0  0  0  0
   19.5532   17.6859   25.4617 H   0  0  0  0  0  0  0  0  0  0  0  0
   20.4949   19.1397   24.1767 C   0  0  0  0  0  0  0  0  0  0  0  0
   20.1061   20.0091   24.7232 H   0  0  0  0  0  0  0  0  0  0  0  0
   21.4670   18.8977   24.6284 H   0  0  0  0  0  0  0  0  0  0  0  0
   20.7096   19.4975   22.6832 C   0  0  0  0  0  0  0  0  0  0  0  0
   19.7782   19.8821   22.2491 H   0  0  0  0  0  0  0  0  0  0  0  0
   20.9558   18.5787   22.1348 H   0  0  0  0  0  0  0  0  0  0  0  0
   21.8407   20.5247   22.4508 C   0  0  2  0  0  0  0  0  0  0  0  0
   22.7531   20.1425   22.9190 H   0  0  0  0  0  0  0  0  0  0  0  0
   21.5133   21.8956   23.0693 C   0  0  0  0  0  0  0  0  0  0  0  0
   20.5716   22.2951   22.6727 H   0  0  0  0  0  0  0  0  0  0  0  0
   21.4268   21.8302   24.1601 H   0  0  0  0  0  0  0  0  0  0  0  0
   22.3087   22.6184   22.8497 H   0  0  0  0  0  0  0  0  0  0  0  0
   22.1461   20.6738   20.9863 N   0  3  0  0  0  0  0  0  0  0  0  0
   22.4089   19.7790   20.5629 H   0  0  0  0  0  0  0  0  0  0  0  0
   22.9218   21.3239   20.8304 H   0  0  0  0  0  0  0  0  0  0  0  0
   21.3382   21.0329   20.4704 H   0  0  0  0  0  0  0  0  0  0  0  0
  1  2  1  0  0  0  0
  1  3  1  0  0  0  0
  1  4  1  0  0  0  0
  1  5  1  0  0  0  0
  5  6  1  0  0  0  0
  5  7  1  0  0  0  0
  5  8  1  0  0  0  0
  8  9  1  0  0  0  0
  8 10  1  0  0  0  0
  8 11  1  0  0  0  0
 11 12  1  0  0  0  0
 11 13  1  0  0  0  0
 11 14  1  0  0  0  0
 14 15  1  0  0  0  0
 14 16  1  0  0  0  0
 14 17  1  0  0  0  0
 17 18  1  0  0  0  0
 17 19  1  0  0  0  0
 17 20  1  0  0  0  0
 20 21  1  0  0  0  0
 20 22  1  0  0  0  0
 22 23  1  0  0  0  0
 22 24  1  0  0  0  0
 22 25  1  0  0  0  0
 20 26  1  0  0  0  0
 26 27  1  0  0  0  0
 26 28  1  0  0  0  0
 26 29  1  0  0  0  0
M  END
> <VConfSearch Rank>
46

> <Conf_Id>
73

> <Delta U+W>
1.580

> <U+W>
-26.246

> <U>
25.821

> <W>
-52.067

> <W(PB)>
-54.581

> <W(SA)>
2.514

> <Valence>
4.779

> <Coulomb>
19.614

> <VdW>
1.428

> <VdW6>
-9.390

> <VdW12>
10.818

> <Bond>
0.283

> <Angle>
1.640

> <Pdih>
2.856

> <Idih>
0.000

> <Tether>
0.000

$$$$
VeraChem MOL file


 29 28  0  0  0  0  0  0  0  0999 V2000     
   18.3398   15.9680   20.6880 C   0  0  0  0  0  0  0  0  0  0  0  0
   19.2082   16.2964   20.1021 H   0  0  0  0  0  0  0  0  0  0  0  0
   18.1479   14.9149   20.4447 H   0  0  0  0  0  0  0  0  0  0  0  0
   17.4686   16.5528   20.3653 H   0  0  0  0  0  0  0  0  0  0  0  0
   18.5939   16.1402   22.2005 C   0  0  0  0  0  0  0  0  0  0  0  0
   19.4497   15.5189   22.4997 H   0  0  0  0  0  0  0  0  0  0  0  0
   17.7230   15.7713   22.7603 H   0  0  0  0  0  0  0  0  0  0  0  0
   18.8662   17.6150   22.5705 C   0  0  0  0  0  0  0  0  0  0  0  0
   19.7311   17.9726   21.9971 H   0  0  0  0  0  0  0  0  0  0  0  0
   18.0070   18.2314   22.2720 H   0  0  0  0  0  0  0  0  0  0  0  0
   19.1258   17.7876   24.0865 C   0  0  0  0  0  0  0  0  0  0  0  0
   20.0202   17.2193   24.3769 H   0  0  0  0  0  0  0  0  0  0  0  0
   18.2871   17.3476   24.6436 H   0  0  0  0  0  0  0  0  0  0  0  0
   19.2833   19.2639   24.5271 C   0  0  0  0  0  0  0  0  0  0  0  0
   18.3871   19.8307   24.2388 H   0  0  0  0  0  0  0  0  0  0  0  0
   19.3243   19.2875   25.6239 H   0  0  0  0  0  0  0  0  0  0  0  0
   20.5457   19.9520   23.9466 C   0  0  0  0  0  0  0  0  0  0  0  0
   20.4889   19.9497   22.8511 H   0  0  0  0  0  0  0  0  0  0  0  0
   21.4406   19.3760   24.2169 H   0  0  0  0  0  0  0  0  0  0  0  0
   20.7065   21.4129   24.4207 C   0  0  2  0  0  0  0  0  0  0  0  0
   19.7896   21.9567   24.1734 H   0  0  0  0  0  0  0  0  0  0  0  0
   21.8789   22.0860   23.6892 C   0  0  0  0  0  0  0  0  0  0  0  0
   21.7219   22.0702   22.6034 H   0  0  0  0  0  0  0  0  0  0  0  0
   21.9771   23.1347   23.9956 H   0  0  0  0  0  0  0  0  0  0  0  0
   22.8264   21.5765   23.9049 H   0  0  0  0  0  0  0  0  0  0  0  0
   20.8861   21.5203   25.9105 N   0  3  0  0  0  0  0  0  0  0  0  0
   20.9734   22.4965   26.2072 H   0  0  0  0  0  0  0  0  0  0  0  0
   21.7284   21.0288   26.2209 H   0  0  0  0  0  0  0  0  0  0  0  0
   20.0906   21.1176   26.4132 H   0  0  0  0  0  0  0  0  0  0  0  0
  1  2  1  0  0  0  0
  1  3  1  0  0  0  0
  1  4  1  0  0  0  0
  1  5  1  0  0  0  0
  5  6  1  0  0  0  0
  5  7  1  0  0  0  0
  5  8  1  0  0  0  0
  8  9  1  0  0  0  0
  8 10  1  0  0  0  0
  8 11  1  0  0  0  0
 11 12  1  0  0  0  0
 11 13  1  0  0  0  0
 11 14  1  0  0  0  0
 14 15  1  0  0  0  0
 14 16  1  0  0  0  0
 14 17  1  0  0  0  0
 17 18  1  0  0  0  0
 17 19  1  0  0  0  0
 17 20  1  0  0  0  0
 20 21  1  0  0  0  0
 20 22  1  0  0  0  0
 22 23  1  0  0  0  0
 22 24  1  0  0  0  0
 22 25  1  0  0  0  0
 20 26  1  0  0  0  0
 26 27  1  0  0  0  0
 26 28  1  0  0  0  0
 26 29  1  0  0  0  0
M  END
> <VConfSearch Rank>
47

> <Conf_Id>
111

> <Delta U+W>
0.580

> <U+W>
-27.246

> <U>
24.710

> <W>
-51.957

> <W(PB)>
-54.511

> <W(SA)>
2.555

> <Valence>
3.735

> <Coulomb>
19.760

> <VdW>
1.216

> <VdW6>
-8.624

> <VdW12>
9.840

> <Bond>
0.236

> <Angle>
1.168

> <Pdih>
2.330

> <Idih>
0.000

> <Tether>
0.000

$$$$
VeraChem MOL file


 29 28  0  0  0  0  0  0  0  0999 V2000     
   19.2524   23.3513   24.4152 C   0  0  0  0  0  0  0  0  0  0  0  0
   20.3372   23.5190   24.3985 H   0  0  0  0  0  0  0  0  0  0  0  0
   18.8880   23.3665   23.3797 H   0  0  0  0  0  0  0  0  0  0  0  0
   18.7894   24.1922   24.9477 H   0  0  0  0  0  0  0  0  0  0  0  0
   18.9085   22.0141   25.1047 C   0  0  0  0  0  0  0  0  0  0  0  0
   17.8170   21.8898   25.1358 H   0  0  0  0  0  0  0  0  0  0  0  0
   19.2543   22.0426   26.1475 H   0  0  0  0  0  0  0  0  0  0  0  0
   19.5492   20.8129   24.3748 C   0  0  0  0  0  0  0  0  0  0  0  0
   19.2030   20.8011   23.3330 H   0  0  0  0  0  0  0  0  0  0  0  0
   20.6401   20.9406   24.3479 H   0  0  0  0  0  0  0  0  0  0  0  0
   19.2017   19.4711   25.0630 C   0  0  0  0  0  0  0  0  0  0  0  0
   18.1141   19.3160   25.0450 H   0  0  0  0  0  0  0  0  0  0  0  0
   19.4874   19.5275   26.1225 H   0  0  0  0  0  0  0  0  0  0  0  0
   19.9110   18.2499   24.4280 C   0  0  0  0  0  0  0  0  0  0  0  0
   20.9975   18.4003   24.4796 H   0  0  0  0  0  0  0  0  0  0  0  0
   19.6902   17.3627   25.0374 H   0  0  0  0  0  0  0  0  0  0  0  0
   19.4770   17.9780   22.9645 C   0  0  0  0  0  0  0  0  0  0  0  0
   19.8140   18.7944   22.3133 H   0  0  0  0  0  0  0  0  0  0  0  0
   18.3799   17.9733   22.9197 H   0  0  0  0  0  0  0  0  0  0  0  0
   19.9959   16.6337   22.4057 C   0  0  2  0  0  0  0  0  0  0  0  0
   19.6813   15.8353   23.0848 H   0  0  0  0  0  0  0  0  0  0  0  0
   21.5311   16.6056   22.2984 C   0  0  0  0  0  0  0  0  0  0  0  0
   21.9002   17.4274   21.6722 H   0  0  0  0  0  0  0  0  0  0  0  0
   22.0011   16.6873   23.2853 H   0  0  0  0  0  0  0  0  0  0  0  0
   21.8701   15.6613   21.8548 H   0  0  0  0  0  0  0  0  0  0  0  0
   19.3751   16.3247   21.0717 N   0  3  0  0  0  0  0  0  0  0  0  0
   18.3529   16.2956   21.1291 H   0  0  0  0  0  0  0  0  0  0  0  0
   19.6859   15.4160   20.7162 H   0  0  0  0  0  0  0  0  0  0  0  0
   19.6241   17.0281   20.3711 H   0  0  0  0  0  0  0  0  0  0  0  0
  1  2  1  0  0  0  0
  1  3  1  0  0  0  0
  1  4  1  0  0  0  0
  1  5  1  0  0  0  0
  5  6  1  0  0  0  0
  5  7  1  0  0  0  0
  5  8  1  0  0  0  0
  8  9  1  0  0  0  0
  8 10  1  0  0  0  0
  8 11  1  0  0  0  0
 11 12  1  0  0  0  0
 11 13  1  0  0  0  0
 11 14  1  0  0  0  0
 14 15  1  0  0  0  0
 14 16  1  0  0  0  0
 14 17  1  0  0  0  0
 17 18  1  0  0  0  0
 17 19  1  0  0  0  0
 17 20  1  0  0  0  0
 20 21  1  0  0  0  0
 20 22  1  0  0  0  0
 22 23  1  0  0  0  0
 22 24  1  0  0  0  0
 22 25  1  0  0  0  0
 20 26  1  0  0  0  0
 26 27  1  0  0  0  0
 26 28  1  0  0  0  0
 26 29  1  0  0  0  0
M  END
> <VConfSearch Rank>
48

> <Conf_Id>
39

> <Delta U+W>
0.965

> <U+W>
-26.861

> <U>
25.129

> <W>
-51.990

> <W(PB)>
-54.526

> <W(SA)>
2.536

> <Valence>
4.206

> <Coulomb>
19.678

> <VdW>
1.245

> <VdW6>
-8.834

> <VdW12>
10.079

> <Bond>
0.240

> <Angle>
1.353

> <Pdih>
2.613

> <Idih>
0.000

> <Tether>
0.000

$$$$
VeraChem MOL file


 29 28  0  0  0  0  0  0  0  0999 V2000     
   16.8869   20.8473   20.8985 C   0  0  0  0  0  0  0  0  0  0  0  0
   17.0783   20.0716   20.1457 H   0  0  0  0  0  0  0  0  0  0  0  0
   16.2578   20.4150   21.6863 H   0  0  0  0  0  0  0  0  0  0  0  0
   16.3086   21.6465   20.4172 H   0  0  0  0  0  0  0  0  0  0  0  0
   18.2100   21.4065   21.4691 C   0  0  0  0  0  0  0  0  0  0  0  0
   17.9922   22.1545   22.2442 H   0  0  0  0  0  0  0  0  0  0  0  0
   18.7412   21.9397   20.6683 H   0  0  0  0  0  0  0  0  0  0  0  0
   19.1462   20.3153   22.0426 C   0  0  0  0  0  0  0  0  0  0  0  0
   19.3614   19.5708   21.2638 H   0  0  0  0  0  0  0  0  0  0  0  0
   20.1040   20.7889   22.2923 H   0  0  0  0  0  0  0  0  0  0  0  0
   18.5736   19.6092   23.2980 C   0  0  0  0  0  0  0  0  0  0  0  0
   17.6119   19.1435   23.0474 H   0  0  0  0  0  0  0  0  0  0  0  0
   18.3626   20.3531   24.0784 H   0  0  0  0  0  0  0  0  0  0  0  0
   19.5025   18.5084   23.8670 C   0  0  0  0  0  0  0  0  0  0  0  0
   18.9563   17.9781   24.6579 H   0  0  0  0  0  0  0  0  0  0  0  0
   19.7055   17.7691   23.0809 H   0  0  0  0  0  0  0  0  0  0  0  0
   20.8365   19.0603   24.4404 C   0  0  0  0  0  0  0  0  0  0  0  0
   20.6187   19.8771   25.1408 H   0  0  0  0  0  0  0  0  0  0  0  0
   21.4319   19.5032   23.6325 H   0  0  0  0  0  0  0  0  0  0  0  0
   21.7128   18.0128   25.1669 C   0  0  2  0  0  0  0  0  0  0  0  0
   22.6083   18.5302   25.5249 H   0  0  0  0  0  0  0  0  0  0  0  0
   22.1710   16.8883   24.2221 C   0  0  0  0  0  0  0  0  0  0  0  0
   21.3294   16.2661   23.8948 H   0  0  0  0  0  0  0  0  0  0  0  0
   22.6596   17.3024   23.3314 H   0  0  0  0  0  0  0  0  0  0  0  0
   22.8947   16.2354   24.7253 H   0  0  0  0  0  0  0  0  0  0  0  0
   21.0418   17.4495   26.3893 N   0  3  0  0  0  0  0  0  0  0  0  0
   20.7718   18.1894   27.0438 H   0  0  0  0  0  0  0  0  0  0  0  0
   21.6597   16.8062   26.8922 H   0  0  0  0  0  0  0  0  0  0  0  0
   20.1947   16.9317   26.1427 H   0  0  0  0  0  0  0  0  0  0  0  0
  1  2  1  0  0  0  0
  1  3  1  0  0  0  0
  1  4  1  0  0  0  0
  1  5  1  0  0  0  0
  5  6  1  0  0  0  0
  5  7  1  0  0  0  0
  5  8  1  0  0  0  0
  8  9  1  0  0  0  0
  8 10  1  0  0  0  0
  8 11  1  0  0  0  0
 11 12  1  0  0  0  0
 11 13  1  0  0  0  0
 11 14  1  0  0  0  0
 14 15  1  0  0  0  0
 14 16  1  0  0  0  0
 14 17  1  0  0  0  0
 17 18  1  0  0  0  0
 17 19  1  0  0  0  0
 17 20  1  0  0  0  0
 20 21  1  0  0  0  0
 20 22  1  0  0  0  0
 22 23  1  0  0  0  0
 22 24  1  0  0  0  0
 22 25  1  0  0  0  0
 20 26  1  0  0  0  0
 26 27  1  0  0  0  0
 26 28  1  0  0  0  0
 26 29  1  0  0  0  0
M  END
> <VConfSearch Rank>
49

> <Conf_Id>
155

> <Delta U+W>
1.624

> <U+W>
-26.202

> <U>
25.894

> <W>
-52.096

> <W(PB)>
-54.602

> <W(SA)>
2.506

> <Valence>
4.779

> <Coulomb>
19.659

> <VdW>
1.456

> <VdW6>
-9.843

> <VdW12>
11.299

> <Bond>
0.315

> <Angle>
1.725

> <Pdih>
2.740

> <Idih>
0.000

> <Tether>
0.000

$$$$
VeraChem MOL file


 29 28  0  0  0  0  0  0  0  0999 V2000     
   23.5088   18.4438   24.8999 C   0  0  0  0  0  0  0  0  0  0  0  0
   23.5345   18.0784   23.8658 H   0  0  0  0  0  0  0  0  0  0  0  0
   23.4867   19.5410   24.8769 H   0  0  0  0  0  0  0  0  0  0  0  0
   24.4459   18.1367   25.3822 H   0  0  0  0  0  0  0  0  0  0  0  0
   22.2937   17.8797   25.6704 C   0  0  0  0  0  0  0  0  0  0  0  0
   22.3734   18.1769   26.7255 H   0  0  0  0  0  0  0  0  0  0  0  0
   22.3253   16.7813   25.6572 H   0  0  0  0  0  0  0  0  0  0  0  0
   20.9348   18.3714   25.1165 C   0  0  0  0  0  0  0  0  0  0  0  0
   20.1361   18.0074   25.7773 H   0  0  0  0  0  0  0  0  0  0  0  0
   20.9050   19.4676   25.1658 H   0  0  0  0  0  0  0  0  0  0  0  0
   20.6539   17.8930   23.6695 C   0  0  0  0  0  0  0  0  0  0  0  0
   20.8226   16.8087   23.6142 H   0  0  0  0  0  0  0  0  0  0  0  0
   21.3688   18.3533   22.9747 H   0  0  0  0  0  0  0  0  0  0  0  0
   19.2122   18.1887   23.1870 C   0  0  0  0  0  0  0  0  0  0  0  0
   19.0750   17.6939   22.2170 H   0  0  0  0  0  0  0  0  0  0  0  0
   18.4916   17.7262   23.8755 H   0  0  0  0  0  0  0  0  0  0  0  0
   18.9056   19.7026   23.0473 C   0  0  0  0  0  0  0  0  0  0  0  0
   19.6183   20.1625   22.3500 H   0  0  0  0  0  0  0  0  0  0  0  0
   19.0607   20.1893   24.0177 H   0  0  0  0  0  0  0  0  0  0  0  0
   17.4605   20.0054   22.5885 C   0  0  2  0  0  0  0  0  0  0  0  0
   16.7708   19.4877   23.2621 H   0  0  0  0  0  0  0  0  0  0  0  0
   17.1922   19.5249   21.1508 C   0  0  0  0  0  0  0  0  0  0  0  0
   17.9066   19.9664   20.4449 H   0  0  0  0  0  0  0  0  0  0  0  0
   17.2617   18.4339   21.0740 H   0  0  0  0  0  0  0  0  0  0  0  0
   16.1812   19.8071   20.8320 H   0  0  0  0  0  0  0  0  0  0  0  0
   17.1503   21.4716   22.7100 N   0  3  0  0  0  0  0  0  0  0  0  0
   17.2780   21.8060   23.6696 H   0  0  0  0  0  0  0  0  0  0  0  0
   16.1819   21.6721   22.4442 H   0  0  0  0  0  0  0  0  0  0  0  0
   17.7556   22.0333   22.1050 H   0  0  0  0  0  0  0  0  0  0  0  0
  1  2  1  0  0  0  0
  1  3  1  0  0  0  0
  1  4  1  0  0  0  0
  1  5  1  0  0  0  0
  5  6  1  0  0  0  0
  5  7  1  0  0  0  0
  5  8  1  0  0  0  0
  8  9  1  0  0  0  0
  8 10  1  0  0  0  0
  8 11  1  0  0  0  0
 11 12  1  0  0  0  0
 11 13  1  0  0  0  0
 11 14  1  0  0  0  0
 14 15  1  0  0  0  0
 14 16  1  0  0  0  0
 14 17  1  0  0  0  0
 17 18  1  0  0  0  0
 17 19  1  0  0  0  0
 17 20  1  0  0  0  0
 20 21  1  0  0  0  0
 20 22  1  0  0  0  0
 22 23  1  0  0  0  0
 22 24  1  0  0  0  0
 22 25  1  0  0  0  0
 20 26  1  0  0  0  0
 26 27  1  0  0  0  0
 26 28  1  0  0  0  0
 26 29  1  0  0  0  0
M  END
> <VConfSearch Rank>
50

> <Conf_Id>
135

> <Delta U+W>
1.581

> <U+W>
-26.245

> <U>
25.974

> <W>
-52.219

> <W(PB)>
-54.709

> <W(SA)>
2.490

> <Valence>
4.811

> <Coulomb>
19.700

> <VdW>
1.463

> <VdW6>
-9.391

> <VdW12>
10.854

> <Bond>
0.285

> <Angle>
1.671

> <Pdih>
2.855

> <Idih>
0.000

> <Tether>
0.000

$$$$
VeraChem MOL file


 29 28  0  0  0  0  0  0  0  0999 V2000     
   18.4384   18.9127   19.6808 C   0  0  0  0  0  0  0  0  0  0  0  0
   19.5129   19.0764   19.5272 H   0  0  0  0  0  0  0  0  0  0  0  0
   18.2922   17.8780   20.0149 H   0  0  0  0  0  0  0  0  0  0  0  0
   17.9400   19.0193   18.7086 H   0  0  0  0  0  0  0  0  0  0  0  0
   17.8622   19.9237   20.6978 C   0  0  0  0  0  0  0  0  0  0  0  0
   16.7931   19.7225   20.8537 H   0  0  0  0  0  0  0  0  0  0  0  0
   17.9257   20.9335   20.2688 H   0  0  0  0  0  0  0  0  0  0  0  0
   18.6008   19.9138   22.0577 C   0  0  0  0  0  0  0  0  0  0  0  0
   19.6612   20.1450   21.8916 H   0  0  0  0  0  0  0  0  0  0  0  0
   18.1986   20.7253   22.6796 H   0  0  0  0  0  0  0  0  0  0  0  0
   18.4613   18.5730   22.8218 C   0  0  0  0  0  0  0  0  0  0  0  0
   18.9642   17.7696   22.2674 H   0  0  0  0  0  0  0  0  0  0  0  0
   17.3989   18.2974   22.8716 H   0  0  0  0  0  0  0  0  0  0  0  0
   19.0240   18.6267   24.2632 C   0  0  0  0  0  0  0  0  0  0  0  0
   18.4911   19.4035   24.8271 H   0  0  0  0  0  0  0  0  0  0  0  0
   18.8013   17.6726   24.7608 H   0  0  0  0  0  0  0  0  0  0  0  0
   20.5528   18.8798   24.3162 C   0  0  0  0  0  0  0  0  0  0  0  0
   20.7809   19.8872   23.9454 H   0  0  0  0  0  0  0  0  0  0  0  0
   21.0480   18.1754   23.6349 H   0  0  0  0  0  0  0  0  0  0  0  0
   21.1598   18.7061   25.7269 C   0  0  2  0  0  0  0  0  0  0  0  0
   20.8925   17.7109   26.0953 H   0  0  0  0  0  0  0  0  0  0  0  0
   20.6249   19.7533   26.7200 C   0  0  0  0  0  0  0  0  0  0  0  0
   20.8171   20.7729   26.3633 H   0  0  0  0  0  0  0  0  0  0  0  0
   19.5456   19.6410   26.8748 H   0  0  0  0  0  0  0  0  0  0  0  0
   21.1066   19.6389   27.6988 H   0  0  0  0  0  0  0  0  0  0  0  0
   22.6618   18.7520   25.6808 N   0  3  0  0  0  0  0  0  0  0  0  0
   23.0691   18.5977   26.6076 H   0  0  0  0  0  0  0  0  0  0  0  0
   22.9983   19.6590   25.3464 H   0  0  0  0  0  0  0  0  0  0  0  0
   23.0420   18.0336   25.0577 H   0  0  0  0  0  0  0  0  0  0  0  0
  1  2  1  0  0  0  0
  1  3  1  0  0  0  0
  1  4  1  0  0  0  0
  1  5  1  0  0  0  0
  5  6  1  0  0  0  0
  5  7  1  0  0  0  0
  5  8  1  0  0  0  0
  8  9  1  0  0  0  0
  8 10  1  0  0  0  0
  8 11  1  0  0  0  0
 11 12  1  0  0  0  0
 11 13  1  0  0  0  0
 11 14  1  0  0  0  0
 14 15  1  0  0  0  0
 14 16  1  0  0  0  0
 14 17  1  0  0  0  0
 17 18  1  0  0  0  0
 17 19  1  0  0  0  0
 17 20  1  0  0  0  0
 20 21  1  0  0  0  0
 20 22  1  0  0  0  0
 22 23  1  0  0  0  0
 22 24  1  0  0  0  0
 22 25  1  0  0  0  0
 20 26  1  0  0  0  0
 26 27  1  0  0  0  0
 26 28  1  0  0  0  0
 26 29  1  0  0  0  0
M  END
> <VConfSearch Rank>
51

> <Conf_Id>
130

> <Delta U+W>
1.359

> <U+W>
-26.467

> <U>
25.687

> <W>
-52.154

> <W(PB)>
-54.643

> <W(SA)>
2.489

> <Valence>
4.682

> <Coulomb>
19.653

> <VdW>
1.352

> <VdW6>
-9.477

> <VdW12>
10.829

> <Bond>
0.274

> <Angle>
1.550

> <Pdih>
2.858

> <Idih>
0.000

> <Tether>
0.000

$$$$
VeraChem MOL file


 29 28  0  0  0  0  0  0  0  0999 V2000     
   22.9802   21.5292   22.9423 C   0  0  0  0  0  0  0  0  0  0  0  0
   23.4005   22.3266   22.3160 H   0  0  0  0  0  0  0  0  0  0  0  0
   23.4741   21.5758   23.9215 H   0  0  0  0  0  0  0  0  0  0  0  0
   23.2366   20.5717   22.4723 H   0  0  0  0  0  0  0  0  0  0  0  0
   21.4507   21.7017   23.0826 C   0  0  0  0  0  0  0  0  0  0  0  0
   20.9771   21.6179   22.0945 H   0  0  0  0  0  0  0  0  0  0  0  0
   21.2413   22.7202   23.4384 H   0  0  0  0  0  0  0  0  0  0  0  0
   20.8028   20.6920   24.0607 C   0  0  0  0  0  0  0  0  0  0  0  0
   21.2677   20.7932   25.0510 H   0  0  0  0  0  0  0  0  0  0  0  0
   19.7486   20.9681   24.1878 H   0  0  0  0  0  0  0  0  0  0  0  0
   20.9069   19.2204   23.5845 C   0  0  0  0  0  0  0  0  0  0  0  0
   21.9659   18.9369   23.5271 H   0  0  0  0  0  0  0  0  0  0  0  0
   20.5093   19.1332   22.5662 H   0  0  0  0  0  0  0  0  0  0  0  0
   20.1946   18.2217   24.5335 C   0  0  0  0  0  0  0  0  0  0  0  0
   20.5437   17.2014   24.3225 H   0  0  0  0  0  0  0  0  0  0  0  0
   20.5164   18.4331   25.5626 H   0  0  0  0  0  0  0  0  0  0  0  0
   18.6423   18.2587   24.4716 C   0  0  0  0  0  0  0  0  0  0  0  0
   18.2849   19.2494   24.1664 H   0  0  0  0  0  0  0  0  0  0  0  0
   18.2640   18.1060   25.4909 H   0  0  0  0  0  0  0  0  0  0  0  0
   18.0070   17.1724   23.5710 C   0  0  2  0  0  0  0  0  0  0  0  0
   18.3489   16.1945   23.9237 H   0  0  0  0  0  0  0  0  0  0  0  0
   18.4074   17.3171   22.0931 C   0  0  0  0  0  0  0  0  0  0  0  0
   19.4808   17.1420   21.9574 H   0  0  0  0  0  0  0  0  0  0  0  0
   17.8797   16.5803   21.4751 H   0  0  0  0  0  0  0  0  0  0  0  0
   18.1661   18.3172   21.7120 H   0  0  0  0  0  0  0  0  0  0  0  0
   16.5095   17.1691   23.7050 N   0  3  0  0  0  0  0  0  0  0  0  0
   16.2180   17.0264   24.6763 H   0  0  0  0  0  0  0  0  0  0  0  0
   16.0860   16.4220   23.1471 H   0  0  0  0  0  0  0  0  0  0  0  0
   16.1039   18.0540   23.3886 H   0  0  0  0  0  0  0  0  0  0  0  0
  1  2  1  0  0  0  0
  1  3  1  0  0  0  0
  1  4  1  0  0  0  0
  1  5  1  0  0  0  0
  5  6  1  0  0  0  0
  5  7  1  0  0  0  0
  5  8  1  0  0  0  0
  8  9  1  0  0  0  0
  8 10  1  0  0  0  0
  8 11  1  0  0  0  0
 11 12  1  0  0  0  0
 11 13  1  0  0  0  0
 11 14  1  0  0  0  0
 14 15  1  0  0  0  0
 14 16  1  0  0  0  0
 14 17  1  0  0  0  0
 17 18  1  0  0  0  0
 17 19  1  0  0  0  0
 17 20  1  0  0  0  0
 20 21  1  0  0  0  0
 20 22  1  0  0  0  0
 22 23  1  0  0  0  0
 22 24  1  0  0  0  0
 22 25  1  0  0  0  0
 20 26  1  0  0  0  0
 26 27  1  0  0  0  0
 26 28  1  0  0  0  0
 26 29  1  0  0  0  0
M  END
> <VConfSearch Rank>
52

> <Conf_Id>
157

> <Delta U+W>
4.354

> <U+W>
-23.472

> <U>
28.780

> <W>
-52.252

> <W(PB)>
-54.715

> <W(SA)>
2.462

> <Valence>
7.566

> <Coulomb>
19.822

> <VdW>
1.392

> <VdW6>
-10.248

> <VdW12>
11.641

> <Bond>
0.340

> <Angle>
2.096

> <Pdih>
5.129

> <Idih>
0.000

> <Tether>
0.000

$$$$
VeraChem MOL file


 29 28  0  0  0  0  0  0  0  0999 V2000     
   22.6803   19.9151   25.6505 C   0  0  0  0  0  0  0  0  0  0  0  0
   23.7689   19.7916   25.7188 H   0  0  0  0  0  0  0  0  0  0  0  0
   22.4552   20.3398   24.6660 H   0  0  0  0  0  0  0  0  0  0  0  0
   22.3802   20.6480   26.4107 H   0  0  0  0  0  0  0  0  0  0  0  0
   21.9671   18.5618   25.8779 C   0  0  0  0  0  0  0  0  0  0  0  0
   22.2534   18.1914   26.8722 H   0  0  0  0  0  0  0  0  0  0  0  0
   22.3305   17.8128   25.1606 H   0  0  0  0  0  0  0  0  0  0  0  0
   20.4214   18.6641   25.8147 C   0  0  0  0  0  0  0  0  0  0  0  0
   20.0030   17.9751   26.5613 H   0  0  0  0  0  0  0  0  0  0  0  0
   20.0940   19.6667   26.1223 H   0  0  0  0  0  0  0  0  0  0  0  0
   19.7987   18.2978   24.4427 C   0  0  0  0  0  0  0  0  0  0  0  0
   18.7071   18.3366   24.5502 H   0  0  0  0  0  0  0  0  0  0  0  0
   20.0450   17.2554   24.1981 H   0  0  0  0  0  0  0  0  0  0  0  0
   20.2408   19.2166   23.2772 C   0  0  0  0  0  0  0  0  0  0  0  0
   20.0769   20.2682   23.5469 H   0  0  0  0  0  0  0  0  0  0  0  0
   21.3208   19.1021   23.1195 H   0  0  0  0  0  0  0  0  0  0  0  0
   19.5305   18.8926   21.9376 C   0  0  0  0  0  0  0  0  0  0  0  0
   19.7763   17.8623   21.6475 H   0  0  0  0  0  0  0  0  0  0  0  0
   19.9425   19.5386   21.1510 H   0  0  0  0  0  0  0  0  0  0  0  0
   17.9938   19.0526   21.9734 C   0  0  2  0  0  0  0  0  0  0  0  0
   17.5938   18.3809   22.7383 H   0  0  0  0  0  0  0  0  0  0  0  0
   17.3833   18.6531   20.6208 C   0  0  0  0  0  0  0  0  0  0  0  0
   17.7463   19.3019   19.8139 H   0  0  0  0  0  0  0  0  0  0  0  0
   17.6408   17.6169   20.3681 H   0  0  0  0  0  0  0  0  0  0  0  0
   16.2892   18.7260   20.6520 H   0  0  0  0  0  0  0  0  0  0  0  0
   17.5707   20.4443   22.3553 N   0  3  0  0  0  0  0  0  0  0  0  0
   17.9410   20.7052   23.2733 H   0  0  0  0  0  0  0  0  0  0  0  0
   16.5510   20.5273   22.3991 H   0  0  0  0  0  0  0  0  0  0  0  0
   17.9066   21.1347   21.6785 H   0  0  0  0  0  0  0  0  0  0  0  0
  1  2  1  0  0  0  0
  1  3  1  0  0  0  0
  1  4  1  0  0  0  0
  1  5  1  0  0  0  0
  5  6  1  0  0  0  0
  5  7  1  0  0  0  0
  5  8  1  0  0  0  0
  8  9  1  0  0  0  0
  8 10  1  0  0  0  0
  8 11  1  0  0  0  0
 11 12  1  0  0  0  0
 11 13  1  0  0  0  0
 11 14  1  0  0  0  0
 14 15  1  0  0  0  0
 14 16  1  0  0  0  0
 14 17  1  0  0  0  0
 17 18  1  0  0  0  0
 17 19  1  0  0  0  0
 17 20  1  0  0  0  0
 20 21  1  0  0  0  0
 20 22  1  0  0  0  0
 22 23  1  0  0  0  0
 22 24  1  0  0  0  0
 22 25  1  0  0  0  0
 20 26  1  0  0  0  0
 26 27  1  0  0  0  0
 26 28  1  0  0  0  0
 26 29  1  0  0  0  0
M  END
> <VConfSearch Rank>
53

> <Conf_Id>
158

> <Delta U+W>
3.648

> <U+W>
-24.178

> <U>
28.057

> <W>
-52.235

> <W(PB)>
-54.696

> <W(SA)>
2.460

> <Valence>
6.543

> <Coulomb>
20.387

> <VdW>
1.127

> <VdW6>
-10.342

> <VdW12>
11.469

> <Bond>
0.308

> <Angle>
1.938

> <Pdih>
4.297

> <Idih>
0.000

> <Tether>
0.000

$$$$
VeraChem MOL file


 29 28  0  0  0  0  0  0  0  0999 V2000     
   18.8251   20.5801   20.3070 C   0  0  0  0  0  0  0  0  0  0  0  0
   18.4840   19.5933   19.9680 H   0  0  0  0  0  0  0  0  0  0  0  0
   18.3160   20.8154   21.2498 H   0  0  0  0  0  0  0  0  0  0  0  0
   18.5017   21.3206   19.5641 H   0  0  0  0  0  0  0  0  0  0  0  0
   20.3620   20.6117   20.4678 C   0  0  0  0  0  0  0  0  0  0  0  0
   20.6749   21.5978   20.8385 H   0  0  0  0  0  0  0  0  0  0  0  0
   20.8237   20.4947   19.4775 H   0  0  0  0  0  0  0  0  0  0  0  0
   20.9058   19.5043   21.4025 C   0  0  0  0  0  0  0  0  0  0  0  0
   20.6054   18.5200   21.0177 H   0  0  0  0  0  0  0  0  0  0  0  0
   22.0038   19.5276   21.3689 H   0  0  0  0  0  0  0  0  0  0  0  0
   20.4417   19.6541   22.8710 C   0  0  0  0  0  0  0  0  0  0  0  0
   19.3500   19.5783   22.9222 H   0  0  0  0  0  0  0  0  0  0  0  0
   20.7041   20.6569   23.2352 H   0  0  0  0  0  0  0  0  0  0  0  0
   21.0924   18.5893   23.7877 C   0  0  0  0  0  0  0  0  0  0  0  0
   20.9051   17.5794   23.3972 H   0  0  0  0  0  0  0  0  0  0  0  0
   22.1818   18.7292   23.7545 H   0  0  0  0  0  0  0  0  0  0  0  0
   20.6295   18.6831   25.2658 C   0  0  0  0  0  0  0  0  0  0  0  0
   20.3347   19.7127   25.5084 H   0  0  0  0  0  0  0  0  0  0  0  0
   21.4965   18.4629   25.9026 H   0  0  0  0  0  0  0  0  0  0  0  0
   19.5024   17.6976   25.6584 C   0  0  2  0  0  0  0  0  0  0  0  0
   19.8509   16.6815   25.4491 H   0  0  0  0  0  0  0  0  0  0  0  0
   18.2026   17.9300   24.8699 C   0  0  0  0  0  0  0  0  0  0  0  0
   17.8573   18.9666   24.9686 H   0  0  0  0  0  0  0  0  0  0  0  0
   18.3434   17.7082   23.8057 H   0  0  0  0  0  0  0  0  0  0  0  0
   17.4060   17.2694   25.2336 H   0  0  0  0  0  0  0  0  0  0  0  0
   19.2297   17.7533   27.1359 N   0  3  0  0  0  0  0  0  0  0  0  0
   20.0721   17.5531   27.6829 H   0  0  0  0  0  0  0  0  0  0  0  0
   18.5185   17.0697   27.4109 H   0  0  0  0  0  0  0  0  0  0  0  0
   18.8912   18.6769   27.4189 H   0  0  0  0  0  0  0  0  0  0  0  0
  1  2  1  0  0  0  0
  1  3  1  0  0  0  0
  1  4  1  0  0  0  0
  1  5  1  0  0  0  0
  5  6  1  0  0  0  0
  5  7  1  0  0  0  0
  5  8  1  0  0  0  0
  8  9  1  0  0  0  0
  8 10  1  0  0  0  0
  8 11  1  0  0  0  0
 11 12  1  0  0  0  0
 11 13  1  0  0  0  0
 11 14  1  0  0  0  0
 14 15  1  0  0  0  0
 14 16  1  0  0  0  0
 14 17  1  0  0  0  0
 17 18  1  0  0  0  0
 17 19  1  0  0  0  0
 17 20  1  0  0  0  0
 20 21  1  0  0  0  0
 20 22  1  0  0  0  0
 22 23  1  0  0  0  0
 22 24  1  0  0  0  0
 22 25  1  0  0  0  0
 20 26  1  0  0  0  0
 26 27  1  0  0  0  0
 26 28  1  0  0  0  0
 26 29  1  0  0  0  0
M  END
> <VConfSearch Rank>
54

> <Conf_Id>
156

> <Delta U+W>
3.393

> <U+W>
-24.433

> <U>
27.713

> <W>
-52.146

> <W(PB)>
-54.603

> <W(SA)>
2.458

> <Valence>
6.758

> <Coulomb>
19.720

> <VdW>
1.235

> <VdW6>
-9.782

> <VdW12>
11.017

> <Bond>
0.287

> <Angle>
1.880

> <Pdih>
4.591

> <Idih>
0.000

> <Tether>
0.000

$$$$
VeraChem MOL file


 29 28  0  0  0  0  0  0  0  0999 V2000     
   20.7445   16.9027   26.5338 C   0  0  0  0  0  0  0  0  0  0  0  0
   21.4927   16.4660   25.8595 H   0  0  0  0  0  0  0  0  0  0  0  0
   21.2585   17.2383   27.4439 H   0  0  0  0  0  0  0  0  0  0  0  0
   20.0416   16.1086   26.8173 H   0  0  0  0  0  0  0  0  0  0  0  0
   20.0006   18.0713   25.8535 C   0  0  0  0  0  0  0  0  0  0  0  0
   19.2396   18.4684   26.5397 H   0  0  0  0  0  0  0  0  0  0  0  0
   19.4680   17.6893   24.9726 H   0  0  0  0  0  0  0  0  0  0  0  0
   20.9719   19.2019   25.4404 C   0  0  0  0  0  0  0  0  0  0  0  0
   21.5487   19.5156   26.3213 H   0  0  0  0  0  0  0  0  0  0  0  0
   21.7076   18.8160   24.7227 H   0  0  0  0  0  0  0  0  0  0  0  0
   20.2611   20.4499   24.8552 C   0  0  0  0  0  0  0  0  0  0  0  0
   21.0201   21.2066   24.6133 H   0  0  0  0  0  0  0  0  0  0  0  0
   19.6308   20.8970   25.6362 H   0  0  0  0  0  0  0  0  0  0  0  0
   19.3880   20.1944   23.5993 C   0  0  0  0  0  0  0  0  0  0  0  0
   18.5521   19.5332   23.8600 H   0  0  0  0  0  0  0  0  0  0  0  0
   18.9373   21.1511   23.3059 H   0  0  0  0  0  0  0  0  0  0  0  0
   20.1853   19.6066   22.4029 C   0  0  0  0  0  0  0  0  0  0  0  0
   20.6114   18.6367   22.6871 H   0  0  0  0  0  0  0  0  0  0  0  0
   21.0390   20.2598   22.1792 H   0  0  0  0  0  0  0  0  0  0  0  0
   19.3616   19.4019   21.1096 C   0  0  2  0  0  0  0  0  0  0  0  0
   20.0247   18.9375   20.3731 H   0  0  0  0  0  0  0  0  0  0  0  0
   18.8710   20.7339   20.5156 C   0  0  0  0  0  0  0  0  0  0  0  0
   18.4174   20.5696   19.5305 H   0  0  0  0  0  0  0  0  0  0  0  0
   18.1186   21.2115   21.1540 H   0  0  0  0  0  0  0  0  0  0  0  0
   19.7058   21.4335   20.3844 H   0  0  0  0  0  0  0  0  0  0  0  0
   18.2182   18.4445   21.3032 N   0  3  0  0  0  0  0  0  0  0  0  0
   18.5425   17.5385   21.6532 H   0  0  0  0  0  0  0  0  0  0  0  0
   17.7212   18.2734   20.4243 H   0  0  0  0  0  0  0  0  0  0  0  0
   17.5384   18.8103   21.9744 H   0  0  0  0  0  0  0  0  0  0  0  0
  1  2  1  0  0  0  0
  1  3  1  0  0  0  0
  1  4  1  0  0  0  0
  1  5  1  0  0  0  0
  5  6  1  0  0  0  0
  5  7  1  0  0  0  0
  5  8  1  0  0  0  0
  8  9  1  0  0  0  0
  8 10  1  0  0  0  0
  8 11  1  0  0  0  0
 11 12  1  0  0  0  0
 11 13  1  0  0  0  0
 11 14  1  0  0  0  0
 14 15  1  0  0  0  0
 14 16  1  0  0  0  0
 14 17  1  0  0  0  0
 17 18  1  0  0  0  0
 17 19  1  0  0  0  0
 17 20  1  0  0  0  0
 20 21  1  0  0  0  0
 20 22  1  0  0  0  0
 22 23  1  0  0  0  0
 22 24  1  0  0  0  0
 22 25  1  0  0  0  0
 20 26  1  0  0  0  0
 26 27  1  0  0  0  0
 26 28  1  0  0  0  0
 26 29  1  0  0  0  0
M  END
> <VConfSearch Rank>
55

> <Conf_Id>
78

> <Delta U+W>
1.477

> <U+W>
-26.349

> <U>
26.385

> <W>
-52.734

> <W(PB)>
-55.179

> <W(SA)>
2.445

> <Valence>
4.726

> <Coulomb>
20.482

> <VdW>
1.177

> <VdW6>
-10.349

> <VdW12>
11.526

> <Bond>
0.319

> <Angle>
1.933

> <Pdih>
2.474

> <Idih>
0.000

> <Tether>
0.000

$$$$
VeraChem MOL file


 29 28  0  0  0  0  0  0  0  0999 V2000     
   16.4439   19.6644   25.0151 C   0  0  0  0  0  0  0  0  0  0  0  0
   16.0776   20.6434   24.6797 H   0  0  0  0  0  0  0  0  0  0  0  0
   16.6596   19.0629   24.1252 H   0  0  0  0  0  0  0  0  0  0  0  0
   15.6277   19.1725   25.5598 H   0  0  0  0  0  0  0  0  0  0  0  0
   17.6838   19.8225   25.9257 C   0  0  0  0  0  0  0  0  0  0  0  0
   17.9963   18.8453   26.3194 H   0  0  0  0  0  0  0  0  0  0  0  0
   17.3879   20.4194   26.7998 H   0  0  0  0  0  0  0  0  0  0  0  0
   18.8738   20.5276   25.2254 C   0  0  0  0  0  0  0  0  0  0  0  0
   18.5063   21.2115   24.4479 H   0  0  0  0  0  0  0  0  0  0  0  0
   19.3766   21.1652   25.9657 H   0  0  0  0  0  0  0  0  0  0  0  0
   19.9411   19.5720   24.6322 C   0  0  0  0  0  0  0  0  0  0  0  0
   20.3784   18.9683   25.4394 H   0  0  0  0  0  0  0  0  0  0  0  0
   20.7571   20.1890   24.2343 H   0  0  0  0  0  0  0  0  0  0  0  0
   19.4090   18.6351   23.5201 C   0  0  0  0  0  0  0  0  0  0  0  0
   18.6520   17.9647   23.9463 H   0  0  0  0  0  0  0  0  0  0  0  0
   18.8986   19.2239   22.7468 H   0  0  0  0  0  0  0  0  0  0  0  0
   20.5130   17.7539   22.8798 C   0  0  0  0  0  0  0  0  0  0  0  0
   20.0516   17.0930   22.1341 H   0  0  0  0  0  0  0  0  0  0  0  0
   20.9245   17.0955   23.6562 H   0  0  0  0  0  0  0  0  0  0  0  0
   21.6777   18.5287   22.2188 C   0  0  2  0  0  0  0  0  0  0  0  0
   22.1412   19.1690   22.9749 H   0  0  0  0  0  0  0  0  0  0  0  0
   21.1976   19.4165   21.0570 C   0  0  0  0  0  0  0  0  0  0  0  0
   22.0475   19.9136   20.5734 H   0  0  0  0  0  0  0  0  0  0  0  0
   20.6713   18.8254   20.2973 H   0  0  0  0  0  0  0  0  0  0  0  0
   20.5208   20.2028   21.4113 H   0  0  0  0  0  0  0  0  0  0  0  0
   22.7531   17.5899   21.7473 N   0  3  0  0  0  0  0  0  0  0  0  0
   22.4031   16.9520   21.0274 H   0  0  0  0  0  0  0  0  0  0  0  0
   23.1173   17.0179   22.5148 H   0  0  0  0  0  0  0  0  0  0  0  0
   23.5448   18.0997   21.3450 H   0  0  0  0  0  0  0  0  0  0  0  0
  1  2  1  0  0  0  0
  1  3  1  0  0  0  0
  1  4  1  0  0  0  0
  1  5  1  0  0  0  0
  5  6  1  0  0  0  0
  5  7  1  0  0  0  0
  5  8  1  0  0  0  0
  8  9  1  0  0  0  0
  8 10  1  0  0  0  0
  8 11  1  0  0  0  0
 11 12  1  0  0  0  0
 11 13  1  0  0  0  0
 11 14  1  0  0  0  0
 14 15  1  0  0  0  0
 14 16  1  0  0  0  0
 14 17  1  0  0  0  0
 17 18  1  0  0  0  0
 17 19  1  0  0  0  0
 17 20  1  0  0  0  0
 20 21  1  0  0  0  0
 20 22  1  0  0  0  0
 22 23  1  0  0  0  0
 22 24  1  0  0  0  0
 22 25  1  0  0  0  0
 20 26  1  0  0  0  0
 26 27  1  0  0  0  0
 26 28  1  0  0  0  0
 26 29  1  0  0  0  0
M  END
> <VConfSearch Rank>
56

> <Conf_Id>
145

> <Delta U+W>
3.784

> <U+W>
-24.042

> <U>
28.220

> <W>
-52.262

> <W(PB)>
-54.724

> <W(SA)>
2.462

> <Valence>
7.040

> <Coulomb>
19.984

> <VdW>
1.197

> <VdW6>
-10.566

> <VdW12>
11.763

> <Bond>
0.320

> <Angle>
2.280

> <Pdih>
4.439

> <Idih>
0.000

> <Tether>
0.000

$$$$
VeraChem MOL file


 29 28  0  0  0  0  0  0  0  0999 V2000     
   19.3706   16.2870   20.8547 C   0  0  0  0  0  0  0  0  0  0  0  0
   19.3599   16.4473   19.7687 H   0  0  0  0  0  0  0  0  0  0  0  0
   20.4074   16.0984   21.1624 H   0  0  0  0  0  0  0  0  0  0  0  0
   18.7860   15.3827   21.0677 H   0  0  0  0  0  0  0  0  0  0  0  0
   18.7838   17.5037   21.6010 C   0  0  0  0  0  0  0  0  0  0  0  0
   18.7694   17.2927   22.6771 H   0  0  0  0  0  0  0  0  0  0  0  0
   17.7371   17.6442   21.2970 H   0  0  0  0  0  0  0  0  0  0  0  0
   19.5857   18.7943   21.3062 C   0  0  0  0  0  0  0  0  0  0  0  0
   20.6489   18.6477   21.5407 H   0  0  0  0  0  0  0  0  0  0  0  0
   19.5381   18.9856   20.2252 H   0  0  0  0  0  0  0  0  0  0  0  0
   19.0414   20.0417   22.0501 C   0  0  0  0  0  0  0  0  0  0  0  0
   17.9649   19.9329   22.2410 H   0  0  0  0  0  0  0  0  0  0  0  0
   19.1360   20.9073   21.3799 H   0  0  0  0  0  0  0  0  0  0  0  0
   19.7838   20.3883   23.3666 C   0  0  0  0  0  0  0  0  0  0  0  0
   20.8368   20.5998   23.1377 H   0  0  0  0  0  0  0  0  0  0  0  0
   19.3589   21.3235   23.7527 H   0  0  0  0  0  0  0  0  0  0  0  0
   19.6940   19.2855   24.4550 C   0  0  0  0  0  0  0  0  0  0  0  0
   20.1999   18.3814   24.0951 H   0  0  0  0  0  0  0  0  0  0  0  0
   18.6426   19.0105   24.6111 H   0  0  0  0  0  0  0  0  0  0  0  0
   20.3188   19.6635   25.8188 C   0  0  2  0  0  0  0  0  0  0  0  0
   20.2552   18.7793   26.4605 H   0  0  0  0  0  0  0  0  0  0  0  0
   19.5480   20.7975   26.5174 C   0  0  0  0  0  0  0  0  0  0  0  0
   19.9239   20.9436   27.5375 H   0  0  0  0  0  0  0  0  0  0  0  0
   19.6518   21.7496   25.9841 H   0  0  0  0  0  0  0  0  0  0  0  0
   18.4800   20.5572   26.5884 H   0  0  0  0  0  0  0  0  0  0  0  0
   21.7817   19.9941   25.7084 N   0  3  0  0  0  0  0  0  0  0  0  0
   21.9311   20.8237   25.1286 H   0  0  0  0  0  0  0  0  0  0  0  0
   22.3099   19.2241   25.2881 H   0  0  0  0  0  0  0  0  0  0  0  0
   22.1930   20.1827   26.6270 H   0  0  0  0  0  0  0  0  0  0  0  0
  1  2  1  0  0  0  0
  1  3  1  0  0  0  0
  1  4  1  0  0  0  0
  1  5  1  0  0  0  0
  5  6  1  0  0  0  0
  5  7  1  0  0  0  0
  5  8  1  0  0  0  0
  8  9  1  0  0  0  0
  8 10  1  0  0  0  0
  8 11  1  0  0  0  0
 11 12  1  0  0  0  0
 11 13  1  0  0  0  0
 11 14  1  0  0  0  0
 14 15  1  0  0  0  0
 14 16  1  0  0  0  0
 14 17  1  0  0  0  0
 17 18  1  0  0  0  0
 17 19  1  0  0  0  0
 17 20  1  0  0  0  0
 20 21  1  0  0  0  0
 20 22  1  0  0  0  0
 22 23  1  0  0  0  0
 22 24  1  0  0  0  0
 22 25  1  0  0  0  0
 20 26  1  0  0  0  0
 26 27  1  0  0  0  0
 26 28  1  0  0  0  0
 26 29  1  0  0  0  0
M  END
> <VConfSearch Rank>
57

> <Conf_Id>
71

> <Delta U+W>
3.542

> <U+W>
-24.284

> <U>
28.217

> <W>
-52.501

> <W(PB)>
-54.947

> <W(SA)>
2.446

> <Valence>
6.821

> <Coulomb>
20.147

> <VdW>
1.249

> <VdW6>
-10.237

> <VdW12>
11.486

> <Bond>
0.317

> <Angle>
1.990

> <Pdih>
4.515

> <Idih>
0.000

> <Tether>
0.000

$$$$
VeraChem MOL file


 29 28  0  0  0  0  0  0  0  0999 V2000     
   23.6944   18.7495   22.7483 C   0  0  0  0  0  0  0  0  0  0  0  0
   23.4715   19.5996   22.0904 H   0  0  0  0  0  0  0  0  0  0  0  0
   24.4974   19.0492   23.4343 H   0  0  0  0  0  0  0  0  0  0  0  0
   24.0730   17.9300   22.1237 H   0  0  0  0  0  0  0  0  0  0  0  0
   22.4371   18.3061   23.5257 C   0  0  0  0  0  0  0  0  0  0  0  0
   22.6849   17.4344   24.1474 H   0  0  0  0  0  0  0  0  0  0  0  0
   21.6734   17.9730   22.8129 H   0  0  0  0  0  0  0  0  0  0  0  0
   21.8913   19.4431   24.4227 C   0  0  0  0  0  0  0  0  0  0  0  0
   22.6780   19.7198   25.1382 H   0  0  0  0  0  0  0  0  0  0  0  0
   21.6964   20.3437   23.8244 H   0  0  0  0  0  0  0  0  0  0  0  0
   20.6213   19.0465   25.2198 C   0  0  0  0  0  0  0  0  0  0  0  0
   20.6730   19.5288   26.2058 H   0  0  0  0  0  0  0  0  0  0  0  0
   20.6175   17.9662   25.4197 H   0  0  0  0  0  0  0  0  0  0  0  0
   19.2832   19.4730   24.5627 C   0  0  0  0  0  0  0  0  0  0  0  0
   18.4700   19.2144   25.2531 H   0  0  0  0  0  0  0  0  0  0  0  0
   19.2681   20.5668   24.4655 H   0  0  0  0  0  0  0  0  0  0  0  0
   19.0181   18.8188   23.1808 C   0  0  0  0  0  0  0  0  0  0  0  0
   19.1714   17.7345   23.2572 H   0  0  0  0  0  0  0  0  0  0  0  0
   19.7563   19.1861   22.4570 H   0  0  0  0  0  0  0  0  0  0  0  0
   17.6072   19.0753   22.6007 C   0  0  2  0  0  0  0  0  0  0  0  0
   17.5547   18.5633   21.6349 H   0  0  0  0  0  0  0  0  0  0  0  0
   17.3493   20.5712   22.3497 C   0  0  0  0  0  0  0  0  0  0  0  0
   18.1443   21.0053   21.7308 H   0  0  0  0  0  0  0  0  0  0  0  0
   16.3997   20.7131   21.8193 H   0  0  0  0  0  0  0  0  0  0  0  0
   17.2968   21.1361   23.2881 H   0  0  0  0  0  0  0  0  0  0  0  0
   16.5191   18.4757   23.4484 N   0  3  0  0  0  0  0  0  0  0  0  0
   16.6603   17.4706   23.5847 H   0  0  0  0  0  0  0  0  0  0  0  0
   15.5983   18.6000   23.0179 H   0  0  0  0  0  0  0  0  0  0  0  0
   16.4866   18.9109   24.3736 H   0  0  0  0  0  0  0  0  0  0  0  0
  1  2  1  0  0  0  0
  1  3  1  0  0  0  0
  1  4  1  0  0  0  0
  1  5  1  0  0  0  0
  5  6  1  0  0  0  0
  5  7  1  0  0  0  0
  5  8  1  0  0  0  0
  8  9  1  0  0  0  0
  8 10  1  0  0  0  0
  8 11  1  0  0  0  0
 11 12  1  0  0  0  0
 11 13  1  0  0  0  0
 11 14  1  0  0  0  0
 14 15  1  0  0  0  0
 14 16  1  0  0  0  0
 14 17  1  0  0  0  0
 17 18  1  0  0  0  0
 17 19  1  0  0  0  0
 17 20  1  0  0  0  0
 20 21  1  0  0  0  0
 20 22  1  0  0  0  0
 22 23  1  0  0  0  0
 22 24  1  0  0  0  0
 22 25  1  0  0  0  0
 20 26  1  0  0  0  0
 26 27  1  0  0  0  0
 26 28  1  0  0  0  0
 26 29  1  0  0  0  0
M  END
> <VConfSearch Rank>
58

> <Conf_Id>
163

> <Delta U+W>
3.309

> <U+W>
-24.517

> <U>
27.916

> <W>
-52.433

> <W(PB)>
-54.866

> <W(SA)>
2.433

> <Valence>
6.693

> <Coulomb>
20.015

> <VdW>
1.208

> <VdW6>
-10.294

> <VdW12>
11.503

> <Bond>
0.312

> <Angle>
1.939

> <Pdih>
4.441

> <Idih>
0.000

> <Tether>
0.000

$$$$
VeraChem MOL file


 29 28  0  0  0  0  0  0  0  0999 V2000     
   22.0906   16.3454   21.8543 C   0  0  0  0  0  0  0  0  0  0  0  0
   23.0454   16.8594   21.6833 H   0  0  0  0  0  0  0  0  0  0  0  0
   22.0609   16.0124   22.8990 H   0  0  0  0  0  0  0  0  0  0  0  0
   22.0747   15.4481   21.2223 H   0  0  0  0  0  0  0  0  0  0  0  0
   20.8957   17.2656   21.5159 C   0  0  0  0  0  0  0  0  0  0  0  0
   19.9533   16.7418   21.7284 H   0  0  0  0  0  0  0  0  0  0  0  0
   20.8996   17.4647   20.4351 H   0  0  0  0  0  0  0  0  0  0  0  0
   20.9247   18.6179   22.2683 C   0  0  0  0  0  0  0  0  0  0  0  0
   21.8665   19.1396   22.0497 H   0  0  0  0  0  0  0  0  0  0  0  0
   20.1206   19.2465   21.8646 H   0  0  0  0  0  0  0  0  0  0  0  0
   20.7499   18.4742   23.8014 C   0  0  0  0  0  0  0  0  0  0  0  0
   21.5543   17.8445   24.2026 H   0  0  0  0  0  0  0  0  0  0  0  0
   19.8133   17.9440   24.0182 H   0  0  0  0  0  0  0  0  0  0  0  0
   20.7844   19.8277   24.5580 C   0  0  0  0  0  0  0  0  0  0  0  0
   20.7131   19.6321   25.6364 H   0  0  0  0  0  0  0  0  0  0  0  0
   21.7668   20.2961   24.4075 H   0  0  0  0  0  0  0  0  0  0  0  0
   19.6816   20.8396   24.1465 C   0  0  0  0  0  0  0  0  0  0  0  0
   19.8744   21.1874   23.1237 H   0  0  0  0  0  0  0  0  0  0  0  0
   19.7597   21.7300   24.7843 H   0  0  0  0  0  0  0  0  0  0  0  0
   18.2457   20.2766   24.2293 C   0  0  2  0  0  0  0  0  0  0  0  0
   18.1850   19.3934   23.5864 H   0  0  0  0  0  0  0  0  0  0  0  0
   17.2332   21.3131   23.7175 C   0  0  0  0  0  0  0  0  0  0  0  0
   16.2152   20.9048   23.7390 H   0  0  0  0  0  0  0  0  0  0  0  0
   17.2502   22.2219   24.3320 H   0  0  0  0  0  0  0  0  0  0  0  0
   17.4563   21.5968   22.6814 H   0  0  0  0  0  0  0  0  0  0  0  0
   17.8883   19.8271   25.6193 N   0  3  0  0  0  0  0  0  0  0  0  0
   18.5404   19.1140   25.9573 H   0  0  0  0  0  0  0  0  0  0  0  0
   16.9468   19.4260   25.6535 H   0  0  0  0  0  0  0  0  0  0  0  0
   17.9142   20.6074   26.2810 H   0  0  0  0  0  0  0  0  0  0  0  0
  1  2  1  0  0  0  0
  1  3  1  0  0  0  0
  1  4  1  0  0  0  0
  1  5  1  0  0  0  0
  5  6  1  0  0  0  0
  5  7  1  0  0  0  0
  5  8  1  0  0  0  0
  8  9  1  0  0  0  0
  8 10  1  0  0  0  0
  8 11  1  0  0  0  0
 11 12  1  0  0  0  0
 11 13  1  0  0  0  0
 11 14  1  0  0  0  0
 14 15  1  0  0  0  0
 14 16  1  0  0  0  0
 14 17  1  0  0  0  0
 17 18  1  0  0  0  0
 17 19  1  0  0  0  0
 17 20  1  0  0  0  0
 20 21  1  0  0  0  0
 20 22  1  0  0  0  0
 22 23  1  0  0  0  0
 22 24  1  0  0  0  0
 22 25  1  0  0  0  0
 20 26  1  0  0  0  0
 26 27  1  0  0  0  0
 26 28  1  0  0  0  0
 26 29  1  0  0  0  0
M  END
> <VConfSearch Rank>
59

> <Conf_Id>
173

> <Delta U+W>
1.363

> <U+W>
-26.462

> <U>
25.816

> <W>
-52.279

> <W(PB)>
-54.727

> <W(SA)>
2.449

> <Valence>
4.504

> <Coulomb>
20.342

> <VdW>
0.971

> <VdW6>
-10.532

> <VdW12>
11.503

> <Bond>
0.307

> <Angle>
1.715

> <Pdih>
2.481

> <Idih>
0.000

> <Tether>
0.000

$$$$
VeraChem MOL file


 29 28  0  0  0  0  0  0  0  0999 V2000     
   16.8096   18.6767   25.9206 C   0  0  0  0  0  0  0  0  0  0  0  0
   17.2996   18.0819   26.7025 H   0  0  0  0  0  0  0  0  0  0  0  0
   16.2969   19.5194   26.4025 H   0  0  0  0  0  0  0  0  0  0  0  0
   16.0470   18.0461   25.4453 H   0  0  0  0  0  0  0  0  0  0  0  0
   17.8336   19.1726   24.8779 C   0  0  0  0  0  0  0  0  0  0  0  0
   17.3113   19.7407   24.0957 H   0  0  0  0  0  0  0  0  0  0  0  0
   18.2953   18.3017   24.3941 H   0  0  0  0  0  0  0  0  0  0  0  0
   18.9250   20.0550   25.5257 C   0  0  0  0  0  0  0  0  0  0  0  0
   18.4409   20.8532   26.1052 H   0  0  0  0  0  0  0  0  0  0  0  0
   19.4957   19.4561   26.2487 H   0  0  0  0  0  0  0  0  0  0  0  0
   19.9021   20.7113   24.5162 C   0  0  0  0  0  0  0  0  0  0  0  0
   20.5981   21.3382   25.0906 H   0  0  0  0  0  0  0  0  0  0  0  0
   19.3572   21.4019   23.8580 H   0  0  0  0  0  0  0  0  0  0  0  0
   20.7351   19.7083   23.6762 C   0  0  0  0  0  0  0  0  0  0  0  0
   21.7403   20.1287   23.5402 H   0  0  0  0  0  0  0  0  0  0  0  0
   20.8679   18.7775   24.2424 H   0  0  0  0  0  0  0  0  0  0  0  0
   20.1222   19.4286   22.2757 C   0  0  0  0  0  0  0  0  0  0  0  0
   20.0555   20.3742   21.7219 H   0  0  0  0  0  0  0  0  0  0  0  0
   19.0911   19.0718   22.3759 H   0  0  0  0  0  0  0  0  0  0  0  0
   20.9092   18.4148   21.4124 C   0  0  2  0  0  0  0  0  0  0  0  0
   20.4098   18.3597   20.4401 H   0  0  0  0  0  0  0  0  0  0  0  0
   20.8927   17.0023   22.0227 C   0  0  0  0  0  0  0  0  0  0  0  0
   19.8651   16.6786   22.2294 H   0  0  0  0  0  0  0  0  0  0  0  0
   21.3351   16.2792   21.3265 H   0  0  0  0  0  0  0  0  0  0  0  0
   21.4623   16.9567   22.9583 H   0  0  0  0  0  0  0  0  0  0  0  0
   22.3164   18.8656   21.1331 N   0  3  0  0  0  0  0  0  0  0  0  0
   22.3336   19.7865   20.6854 H   0  0  0  0  0  0  0  0  0  0  0  0
   22.8018   18.2132   20.5108 H   0  0  0  0  0  0  0  0  0  0  0  0
   22.8626   18.9315   21.9956 H   0  0  0  0  0  0  0  0  0  0  0  0
  1  2  1  0  0  0  0
  1  3  1  0  0  0  0
  1  4  1  0  0  0  0
  1  5  1  0  0  0  0
  5  6  1  0  0  0  0
  5  7  1  0  0  0  0
  5  8  1  0  0  0  0
  8  9  1  0  0  0  0
  8 10  1  0  0  0  0
  8 11  1  0  0  0  0
 11 12  1  0  0  0  0
 11 13  1  0  0  0  0
 11 14  1  0  0  0  0
 14 15  1  0  0  0  0
 14 16  1  0  0  0  0
 14 17  1  0  0  0  0
 17 18  1  0  0  0  0
 17 19  1  0  0  0  0
 17 20  1  0  0  0  0
 20 21  1  0  0  0  0
 20 22  1  0  0  0  0
 22 23  1  0  0  0  0
 22 24  1  0  0  0  0
 22 25  1  0  0  0  0
 20 26  1  0  0  0  0
 26 27  1  0  0  0  0
 26 28  1  0  0  0  0
 26 29  1  0  0  0  0
M  END
> <VConfSearch Rank>
60

> <Conf_Id>
117

> <Delta U+W>
3.377

> <U+W>
-24.449

> <U>
27.947

> <W>
-52.396

> <W(PB)>
-54.842

> <W(SA)>
2.447

> <Valence>
6.731

> <Coulomb>
20.067

> <VdW>
1.149

> <VdW6>
-10.427

> <VdW12>
11.575

> <Bond>
0.324

> <Angle>
1.943

> <Pdih>
4.465

> <Idih>
0.000

> <Tether>
0.000

$$$$
VeraChem MOL file


 29 28  0  0  0  0  0  0  0  0999 V2000     
   16.2059   19.4735   20.2522 C   0  0  0  0  0  0  0  0  0  0  0  0
   16.8967   19.7313   19.4389 H   0  0  0  0  0  0  0  0  0  0  0  0
   16.0120   18.3939   20.2070 H   0  0  0  0  0  0  0  0  0  0  0  0
   15.2576   19.9944   20.0669 H   0  0  0  0  0  0  0  0  0  0  0  0
   16.7892   19.8752   21.6235 C   0  0  0  0  0  0  0  0  0  0  0  0
   16.0628   19.6363   22.4128 H   0  0  0  0  0  0  0  0  0  0  0  0
   16.9407   20.9634   21.6506 H   0  0  0  0  0  0  0  0  0  0  0  0
   18.1257   19.1554   21.9094 C   0  0  0  0  0  0  0  0  0  0  0  0
   17.9698   18.0681   21.8790 H   0  0  0  0  0  0  0  0  0  0  0  0
   18.8477   19.3954   21.1167 H   0  0  0  0  0  0  0  0  0  0  0  0
   18.7128   19.5551   23.2819 C   0  0  0  0  0  0  0  0  0  0  0  0
   17.9892   19.3158   24.0734 H   0  0  0  0  0  0  0  0  0  0  0  0
   18.8687   20.6425   23.3114 H   0  0  0  0  0  0  0  0  0  0  0  0
   20.0495   18.8342   23.5679 C   0  0  0  0  0  0  0  0  0  0  0  0
   19.8920   17.7469   23.5417 H   0  0  0  0  0  0  0  0  0  0  0  0
   20.7647   19.0730   22.7696 H   0  0  0  0  0  0  0  0  0  0  0  0
   20.6360   19.2373   24.9426 C   0  0  0  0  0  0  0  0  0  0  0  0
   19.8854   19.0413   25.7199 H   0  0  0  0  0  0  0  0  0  0  0  0
   20.8314   20.3178   24.9608 H   0  0  0  0  0  0  0  0  0  0  0  0
   21.9287   18.4698   25.2946 C   0  0  2  0  0  0  0  0  0  0  0  0
   21.7149   17.3976   25.2463 H   0  0  0  0  0  0  0  0  0  0  0  0
   22.3786   18.8083   26.7248 C   0  0  0  0  0  0  0  0  0  0  0  0
   23.2763   18.2385   26.9945 H   0  0  0  0  0  0  0  0  0  0  0  0
   22.6081   19.8765   26.8263 H   0  0  0  0  0  0  0  0  0  0  0  0
   21.5946   18.5568   27.4499 H   0  0  0  0  0  0  0  0  0  0  0  0
   23.0400   18.7345   24.3160 N   0  3  0  0  0  0  0  0  0  0  0  0
   22.7703   18.4719   23.3642 H   0  0  0  0  0  0  0  0  0  0  0  0
   23.8823   18.2026   24.5536 H   0  0  0  0  0  0  0  0  0  0  0  0
   23.2966   19.7252   24.3021 H   0  0  0  0  0  0  0  0  0  0  0  0
  1  2  1  0  0  0  0
  1  3  1  0  0  0  0
  1  4  1  0  0  0  0
  1  5  1  0  0  0  0
  5  6  1  0  0  0  0
  5  7  1  0  0  0  0
  5  8  1  0  0  0  0
  8  9  1  0  0  0  0
  8 10  1  0  0  0  0
  8 11  1  0  0  0  0
 11 12  1  0  0  0  0
 11 13  1  0  0  0  0
 11 14  1  0  0  0  0
 14 15  1  0  0  0  0
 14 16  1  0  0  0  0
 14 17  1  0  0  0  0
 17 18  1  0  0  0  0
 17 19  1  0  0  0  0
 17 20  1  0  0  0  0
 20 21  1  0  0  0  0
 20 22  1  0  0  0  0
 22 23  1  0  0  0  0
 22 24  1  0  0  0  0
 22 25  1  0  0  0  0
 20 26  1  0  0  0  0
 26 27  1  0  0  0  0
 26 28  1  0  0  0  0
 26 29  1  0  0  0  0
M  END
> <VConfSearch Rank>
61

> <Conf_Id>
164

> <Delta U+W>
0.000

> <U+W>
-27.826

> <U>
23.963

> <W>
-51.789

> <W(PB)>
-54.342

> <W(SA)>
2.554

> <Valence>
3.166

> <Coulomb>
19.734

> <VdW>
1.062

> <VdW6>
-7.938

> <VdW12>
9.001

> <Bond>
0.188

> <Angle>
0.880

> <Pdih>
2.098

> <Idih>
0.000

> <Tether>
0.000

$$$$
VeraChem MOL file


 29 28  0  0  0  0  0  0  0  0999 V2000     
   21.1377   16.4518   19.6695 C   0  0  0  0  0  0  0  0  0  0  0  0
   20.3031   16.7801   19.0363 H   0  0  0  0  0  0  0  0  0  0  0  0
   22.0045   17.0890   19.4504 H   0  0  0  0  0  0  0  0  0  0  0  0
   21.3941   15.4236   19.3830 H   0  0  0  0  0  0  0  0  0  0  0  0
   20.7609   16.5230   21.1645 C   0  0  0  0  0  0  0  0  0  0  0  0
   21.6018   16.1573   21.7702 H   0  0  0  0  0  0  0  0  0  0  0  0
   19.9136   15.8507   21.3593 H   0  0  0  0  0  0  0  0  0  0  0  0
   20.3952   17.9609   21.5942 C   0  0  0  0  0  0  0  0  0  0  0  0
   21.2442   18.6295   21.3952 H   0  0  0  0  0  0  0  0  0  0  0  0
   19.5558   18.3230   20.9845 H   0  0  0  0  0  0  0  0  0  0  0  0
   20.0173   18.0363   23.0907 C   0  0  0  0  0  0  0  0  0  0  0  0
   20.8573   17.6743   23.6997 H   0  0  0  0  0  0  0  0  0  0  0  0
   19.1692   17.3661   23.2882 H   0  0  0  0  0  0  0  0  0  0  0  0
   19.6511   19.4750   23.5201 C   0  0  0  0  0  0  0  0  0  0  0  0
   20.5013   20.1373   23.3107 H   0  0  0  0  0  0  0  0  0  0  0  0
   18.8077   19.8349   22.9144 H   0  0  0  0  0  0  0  0  0  0  0  0
   19.2774   19.5485   25.0210 C   0  0  0  0  0  0  0  0  0  0  0  0
   20.1400   19.2518   25.6324 H   0  0  0  0  0  0  0  0  0  0  0  0
   18.4869   18.8130   25.2206 H   0  0  0  0  0  0  0  0  0  0  0  0
   18.7751   20.9395   25.4706 C   0  0  2  0  0  0  0  0  0  0  0  0
   17.9442   21.2310   24.8208 H   0  0  0  0  0  0  0  0  0  0  0  0
   19.8728   22.0138   25.3697 C   0  0  0  0  0  0  0  0  0  0  0  0
   20.7566   21.7344   25.9566 H   0  0  0  0  0  0  0  0  0  0  0  0
   20.1848   22.1692   24.3305 H   0  0  0  0  0  0  0  0  0  0  0  0
   19.5060   22.9771   25.7450 H   0  0  0  0  0  0  0  0  0  0  0  0
   18.2232   20.8904   26.8682 N   0  3  0  0  0  0  0  0  0  0  0  0
   17.8529   21.8007   27.1563 H   0  0  0  0  0  0  0  0  0  0  0  0
   18.9433   20.6254   27.5457 H   0  0  0  0  0  0  0  0  0  0  0  0
   17.4601   20.2121   26.9488 H   0  0  0  0  0  0  0  0  0  0  0  0
  1  2  1  0  0  0  0
  1  3  1  0  0  0  0
  1  4  1  0  0  0  0
  1  5  1  0  0  0  0
  5  6  1  0  0  0  0
  5  7  1  0  0  0  0
  5  8  1  0  0  0  0
  8  9  1  0  0  0  0
  8 10  1  0  0  0  0
  8 11  1  0  0  0  0
 11 12  1  0  0  0  0
 11 13  1  0  0  0  0
 11 14  1  0  0  0  0
 14 15  1  0  0  0  0
 14 16  1  0  0  0  0
 14 17  1  0  0  0  0
 17 18  1  0  0  0  0
 17 19  1  0  0  0  0
 17 20  1  0  0  0  0
 20 21  1  0  0  0  0
 20 22  1  0  0  0  0
 22 23  1  0  0  0  0
 22 24  1  0  0  0  0
 22 25  1  0  0  0  0
 20 26  1  0  0  0  0
 26 27  1  0  0  0  0
 26 28  1  0  0  0  0
 26 29  1  0  0  0  0
M  END
> <VConfSearch Rank>
62

> <Conf_Id>
58

> <Delta U+W>
0.412

> <U+W>
-27.414

> <U>
24.279

> <W>
-51.694

> <W(PB)>
-54.271

> <W(SA)>
2.577

> <Valence>
3.709

> <Coulomb>
19.380

> <VdW>
1.191

> <VdW6>
-8.093

> <VdW12>
9.284

> <Bond>
0.200

> <Angle>
1.161

> <Pdih>
2.348

> <Idih>
0.000

> <Tether>
0.000

$$$$
VeraChem MOL file


 29 28  0  0  0  0  0  0  0  0999 V2000     
   22.0835   16.8349   20.1228 C   0  0  0  0  0  0  0  0  0  0  0  0
   23.0543   17.2016   20.4812 H   0  0  0  0  0  0  0  0  0  0  0  0
   21.8949   15.8576   20.5859 H   0  0  0  0  0  0  0  0  0  0  0  0
   22.1595   16.6849   19.0380 H   0  0  0  0  0  0  0  0  0  0  0  0
   20.9556   17.8339   20.4570 C   0  0  0  0  0  0  0  0  0  0  0  0
   20.0040   17.4566   20.0570 H   0  0  0  0  0  0  0  0  0  0  0  0
   21.1545   18.7902   19.9532 H   0  0  0  0  0  0  0  0  0  0  0  0
   20.8272   18.0632   21.9791 C   0  0  0  0  0  0  0  0  0  0  0  0
   20.6306   17.1043   22.4785 H   0  0  0  0  0  0  0  0  0  0  0  0
   21.7814   18.4379   22.3747 H   0  0  0  0  0  0  0  0  0  0  0  0
   19.6988   19.0633   22.3176 C   0  0  0  0  0  0  0  0  0  0  0  0
   18.7454   18.6878   21.9210 H   0  0  0  0  0  0  0  0  0  0  0  0
   19.8962   20.0216   21.8174 H   0  0  0  0  0  0  0  0  0  0  0  0
   19.5707   19.2927   23.8405 C   0  0  0  0  0  0  0  0  0  0  0  0
   19.3751   18.3316   24.3342 H   0  0  0  0  0  0  0  0  0  0  0  0
   20.5290   19.6628   24.2279 H   0  0  0  0  0  0  0  0  0  0  0  0
   18.4391   20.2997   24.1735 C   0  0  0  0  0  0  0  0  0  0  0  0
   17.4975   19.9410   23.7374 H   0  0  0  0  0  0  0  0  0  0  0  0
   18.6520   21.2595   23.6842 H   0  0  0  0  0  0  0  0  0  0  0  0
   18.2136   20.5509   25.6832 C   0  0  2  0  0  0  0  0  0  0  0  0
   17.3760   21.2493   25.7749 H   0  0  0  0  0  0  0  0  0  0  0  0
   19.4373   21.2022   26.3508 C   0  0  0  0  0  0  0  0  0  0  0  0
   19.2020   21.4928   27.3820 H   0  0  0  0  0  0  0  0  0  0  0  0
   20.2939   20.5185   26.3831 H   0  0  0  0  0  0  0  0  0  0  0  0
   19.7400   22.1081   25.8110 H   0  0  0  0  0  0  0  0  0  0  0  0
   17.7995   19.3051   26.4167 N   0  3  0  0  0  0  0  0  0  0  0  0
   16.9587   18.8894   26.0055 H   0  0  0  0  0  0  0  0  0  0  0  0
   17.5944   19.5010   27.4007 H   0  0  0  0  0  0  0  0  0  0  0  0
   18.5376   18.5972   26.3918 H   0  0  0  0  0  0  0  0  0  0  0  0
  1  2  1  0  0  0  0
  1  3  1  0  0  0  0
  1  4  1  0  0  0  0
  1  5  1  0  0  0  0
  5  6  1  0  0  0  0
  5  7  1  0  0  0  0
  5  8  1  0  0  0  0
  8  9  1  0  0  0  0
  8 10  1  0  0  0  0
  8 11  1  0  0  0  0
 11 12  1  0  0  0  0
 11 13  1  0  0  0  0
 11 14  1  0  0  0  0
 14 15  1  0  0  0  0
 14 16  1  0  0  0  0
 14 17  1  0  0  0  0
 17 18  1  0  0  0  0
 17 19  1  0  0  0  0
 17 20  1  0  0  0  0
 20 21  1  0  0  0  0
 20 22  1  0  0  0  0
 22 23  1  0  0  0  0
 22 24  1  0  0  0  0
 22 25  1  0  0  0  0
 20 26  1  0  0  0  0
 26 27  1  0  0  0  0
 26 28  1  0  0  0  0
 26 29  1  0  0  0  0
M  END
> <VConfSearch Rank>
63

> <Conf_Id>
137

> <Delta U+W>
0.280

> <U+W>
-27.546

> <U>
24.513

> <W>
-52.059

> <W(PB)>
-54.556

> <W(SA)>
2.497

> <Valence>
3.677

> <Coulomb>
19.662

> <VdW>
1.174

> <VdW6>
-8.569

> <VdW12>
9.743

> <Bond>
0.224

> <Angle>
1.211

> <Pdih>
2.243

> <Idih>
0.000

> <Tether>
0.000

$$$$
VeraChem MOL file


 29 28  0  0  0  0  0  0  0  0999 V2000     
   23.1328   22.0592   23.4730 C   0  0  0  0  0  0  0  0  0  0  0  0
   23.6453   21.2284   22.9707 H   0  0  0  0  0  0  0  0  0  0  0  0
   22.6813   22.6983   22.7030 H   0  0  0  0  0  0  0  0  0  0  0  0
   23.8905   22.6523   24.0015 H   0  0  0  0  0  0  0  0  0  0  0  0
   22.0645   21.5382   24.4575 C   0  0  0  0  0  0  0  0  0  0  0  0
   21.5947   22.3899   24.9691 H   0  0  0  0  0  0  0  0  0  0  0  0
   22.5497   20.9301   25.2339 H   0  0  0  0  0  0  0  0  0  0  0  0
   20.9844   20.7001   23.7385 C   0  0  0  0  0  0  0  0  0  0  0  0
   20.5009   21.3129   22.9653 H   0  0  0  0  0  0  0  0  0  0  0  0
   21.4689   19.8601   23.2243 H   0  0  0  0  0  0  0  0  0  0  0  0
   19.9151   20.1737   24.7262 C   0  0  0  0  0  0  0  0  0  0  0  0
   19.5049   21.0225   25.2907 H   0  0  0  0  0  0  0  0  0  0  0  0
   20.3863   19.5114   25.4655 H   0  0  0  0  0  0  0  0  0  0  0  0
   18.7415   19.4330   24.0386 C   0  0  0  0  0  0  0  0  0  0  0  0
   17.9763   19.2377   24.8006 H   0  0  0  0  0  0  0  0  0  0  0  0
   18.2758   20.0933   23.2940 H   0  0  0  0  0  0  0  0  0  0  0  0
   19.1588   18.0986   23.3672 C   0  0  0  0  0  0  0  0  0  0  0  0
   19.6145   17.4345   24.1136 H   0  0  0  0  0  0  0  0  0  0  0  0
   19.9324   18.3023   22.6172 H   0  0  0  0  0  0  0  0  0  0  0  0
   17.9943   17.3658   22.6619 C   0  0  2  0  0  0  0  0  0  0  0  0
   17.5179   18.0656   21.9684 H   0  0  0  0  0  0  0  0  0  0  0  0
   16.9319   16.8651   23.6570 C   0  0  0  0  0  0  0  0  0  0  0  0
   17.3770   16.2109   24.4171 H   0  0  0  0  0  0  0  0  0  0  0  0
   16.4371   17.6990   24.1677 H   0  0  0  0  0  0  0  0  0  0  0  0
   16.1515   16.2975   23.1353 H   0  0  0  0  0  0  0  0  0  0  0  0
   18.5009   16.2220   21.8276 N   0  3  0  0  0  0  0  0  0  0  0  0
   19.1771   16.5372   21.1260 H   0  0  0  0  0  0  0  0  0  0  0  0
   17.7376   15.7573   21.3275 H   0  0  0  0  0  0  0  0  0  0  0  0
   18.9633   15.5143   22.4048 H   0  0  0  0  0  0  0  0  0  0  0  0
  1  2  1  0  0  0  0
  1  3  1  0  0  0  0
  1  4  1  0  0  0  0
  1  5  1  0  0  0  0
  5  6  1  0  0  0  0
  5  7  1  0  0  0  0
  5  8  1  0  0  0  0
  8  9  1  0  0  0  0
  8 10  1  0  0  0  0
  8 11  1  0  0  0  0
 11 12  1  0  0  0  0
 11 13  1  0  0  0  0
 11 14  1  0  0  0  0
 14 15  1  0  0  0  0
 14 16  1  0  0  0  0
 14 17  1  0  0  0  0
 17 18  1  0  0  0  0
 17 19  1  0  0  0  0
 17 20  1  0  0  0  0
 20 21  1  0  0  0  0
 20 22  1  0  0  0  0
 22 23  1  0  0  0  0
 22 24  1  0  0  0  0
 22 25  1  0  0  0  0
 20 26  1  0  0  0  0
 26 27  1  0  0  0  0
 26 28  1  0  0  0  0
 26 29  1  0  0  0  0
M  END
> <VConfSearch Rank>
64

> <Conf_Id>
40

> <Delta U+W>
1.128

> <U+W>
-26.698

> <U>
25.442

> <W>
-52.140

> <W(PB)>
-54.658

> <W(SA)>
2.519

> <Valence>
4.343

> <Coulomb>
19.740

> <VdW>
1.360

> <VdW6>
-8.739

> <VdW12>
10.099

> <Bond>
0.251

> <Angle>
1.483

> <Pdih>
2.608

> <Idih>
0.000

> <Tether>
0.000

$$$$
VeraChem MOL file


 29 28  0  0  0  0  0  0  0  0999 V2000     
   19.3971   22.4027   26.3551 C   0  0  0  0  0  0  0  0  0  0  0  0
   19.8220   21.6124   26.9860 H   0  0  0  0  0  0  0  0  0  0  0  0
   20.2244   22.9694   25.9085 H   0  0  0  0  0  0  0  0  0  0  0  0
   18.8399   23.0837   27.0115 H   0  0  0  0  0  0  0  0  0  0  0  0
   18.4678   21.8231   25.2645 C   0  0  0  0  0  0  0  0  0  0  0  0
   17.9700   22.6554   24.7476 H   0  0  0  0  0  0  0  0  0  0  0  0
   17.6695   21.2317   25.7342 H   0  0  0  0  0  0  0  0  0  0  0  0
   19.2095   20.9611   24.2141 C   0  0  0  0  0  0  0  0  0  0  0  0
   18.4977   20.7160   23.4158 H   0  0  0  0  0  0  0  0  0  0  0  0
   20.0061   21.5570   23.7479 H   0  0  0  0  0  0  0  0  0  0  0  0
   19.8060   19.6552   24.7985 C   0  0  0  0  0  0  0  0  0  0  0  0
   19.0088   19.0563   25.2598 H   0  0  0  0  0  0  0  0  0  0  0  0
   20.5089   19.9055   25.6034 H   0  0  0  0  0  0  0  0  0  0  0  0
   20.5635   18.7964   23.7556 C   0  0  0  0  0  0  0  0  0  0  0  0
   21.3479   19.4021   23.2809 H   0  0  0  0  0  0  0  0  0  0  0  0
   21.0792   17.9899   24.2932 H   0  0  0  0  0  0  0  0  0  0  0  0
   19.6435   18.1847   22.6675 C   0  0  0  0  0  0  0  0  0  0  0  0
   19.1502   18.9917   22.1123 H   0  0  0  0  0  0  0  0  0  0  0  0
   18.8471   17.5961   23.1419 H   0  0  0  0  0  0  0  0  0  0  0  0
   20.4099   17.3015   21.6587 C   0  0  2  0  0  0  0  0  0  0  0  0
   21.2200   17.8975   21.2272 H   0  0  0  0  0  0  0  0  0  0  0  0
   19.4773   16.8587   20.5200 C   0  0  0  0  0  0  0  0  0  0  0  0
   20.0238   16.2596   19.7812 H   0  0  0  0  0  0  0  0  0  0  0  0
   18.6443   16.2548   20.9013 H   0  0  0  0  0  0  0  0  0  0  0  0
   19.0582   17.7282   19.9984 H   0  0  0  0  0  0  0  0  0  0  0  0
   21.0503   16.1050   22.3081 N   0  3  0  0  0  0  0  0  0  0  0  0
   20.3503   15.4965   22.7408 H   0  0  0  0  0  0  0  0  0  0  0  0
   21.7105   16.3844   23.0385 H   0  0  0  0  0  0  0  0  0  0  0  0
   21.5675   15.5419   21.6268 H   0  0  0  0  0  0  0  0  0  0  0  0
  1  2  1  0  0  0  0
  1  3  1  0  0  0  0
  1  4  1  0  0  0  0
  1  5  1  0  0  0  0
  5  6  1  0  0  0  0
  5  7  1  0  0  0  0
  5  8  1  0  0  0  0
  8  9  1  0  0  0  0
  8 10  1  0  0  0  0
  8 11  1  0  0  0  0
 11 12  1  0  0  0  0
 11 13  1  0  0  0  0
 11 14  1  0  0  0  0
 14 15  1  0  0  0  0
 14 16  1  0  0  0  0
 14 17  1  0  0  0  0
 17 18  1  0  0  0  0
 17 19  1  0  0  0  0
 17 20  1  0  0  0  0
 20 21  1  0  0  0  0
 20 22  1  0  0  0  0
 22 23  1  0  0  0  0
 22 24  1  0  0  0  0
 22 25  1  0  0  0  0
 20 26  1  0  0  0  0
 26 27  1  0  0  0  0
 26 28  1  0  0  0  0
 26 29  1  0  0  0  0
M  END
> <VConfSearch Rank>
65

> <Conf_Id>
134

> <Delta U+W>
1.228

> <U+W>
-26.598

> <U>
25.451

> <W>
-52.048

> <W(PB)>
-54.539

> <W(SA)>
2.490

> <Valence>
4.319

> <Coulomb>
19.732

> <VdW>
1.400

> <VdW6>
-9.173

> <VdW12>
10.573

> <Bond>
0.281

> <Angle>
1.459

> <Pdih>
2.580

> <Idih>
0.000

> <Tether>
0.000

$$$$
VeraChem MOL file


 29 28  0  0  0  0  0  0  0  0999 V2000     
   22.6001   20.0643   20.3777 C   0  0  0  0  0  0  0  0  0  0  0  0
   21.6827   20.4525   19.9183 H   0  0  0  0  0  0  0  0  0  0  0  0
   23.0414   20.8600   20.9919 H   0  0  0  0  0  0  0  0  0  0  0  0
   23.3037   19.8374   19.5663 H   0  0  0  0  0  0  0  0  0  0  0  0
   22.3230   18.7996   21.2218 C   0  0  0  0  0  0  0  0  0  0  0  0
   23.2833   18.3787   21.5512 H   0  0  0  0  0  0  0  0  0  0  0  0
   21.8501   18.0315   20.5939 H   0  0  0  0  0  0  0  0  0  0  0  0
   21.4468   19.0688   22.4692 C   0  0  0  0  0  0  0  0  0  0  0  0
   21.4213   18.1504   23.0696 H   0  0  0  0  0  0  0  0  0  0  0  0
   21.9248   19.8354   23.0944 H   0  0  0  0  0  0  0  0  0  0  0  0
   19.9994   19.5023   22.1241 C   0  0  0  0  0  0  0  0  0  0  0  0
   19.5211   18.7348   21.5002 H   0  0  0  0  0  0  0  0  0  0  0  0
   20.0264   20.4184   21.5203 H   0  0  0  0  0  0  0  0  0  0  0  0
   19.1239   19.7778   23.3715 C   0  0  0  0  0  0  0  0  0  0  0  0
   19.6023   20.5567   23.9799 H   0  0  0  0  0  0  0  0  0  0  0  0
   18.1625   20.1913   23.0367 H   0  0  0  0  0  0  0  0  0  0  0  0
   18.8563   18.5152   24.2309 C   0  0  0  0  0  0  0  0  0  0  0  0
   19.7884   18.1696   24.6954 H   0  0  0  0  0  0  0  0  0  0  0  0
   18.5163   17.7070   23.5700 H   0  0  0  0  0  0  0  0  0  0  0  0
   17.7906   18.7305   25.3294 C   0  0  2  0  0  0  0  0  0  0  0  0
   16.8795   19.1073   24.8546 H   0  0  0  0  0  0  0  0  0  0  0  0
   18.2475   19.7519   26.3864 C   0  0  0  0  0  0  0  0  0  0  0  0
   19.1929   19.4458   26.8513 H   0  0  0  0  0  0  0  0  0  0  0  0
   18.3869   20.7459   25.9458 H   0  0  0  0  0  0  0  0  0  0  0  0
   17.4951   19.8508   27.1785 H   0  0  0  0  0  0  0  0  0  0  0  0
   17.4193   17.4308   25.9876 N   0  3  0  0  0  0  0  0  0  0  0  0
   17.0711   16.7494   25.3070 H   0  0  0  0  0  0  0  0  0  0  0  0
   16.6848   17.5633   26.6888 H   0  0  0  0  0  0  0  0  0  0  0  0
   18.2222   17.0091   26.4623 H   0  0  0  0  0  0  0  0  0  0  0  0
  1  2  1  0  0  0  0
  1  3  1  0  0  0  0
  1  4  1  0  0  0  0
  1  5  1  0  0  0  0
  5  6  1  0  0  0  0
  5  7  1  0  0  0  0
  5  8  1  0  0  0  0
  8  9  1  0  0  0  0
  8 10  1  0  0  0  0
  8 11  1  0  0  0  0
 11 12  1  0  0  0  0
 11 13  1  0  0  0  0
 11 14  1  0  0  0  0
 14 15  1  0  0  0  0
 14 16  1  0  0  0  0
 14 17  1  0  0  0  0
 17 18  1  0  0  0  0
 17 19  1  0  0  0  0
 17 20  1  0  0  0  0
 20 21  1  0  0  0  0
 20 22  1  0  0  0  0
 22 23  1  0  0  0  0
 22 24  1  0  0  0  0
 22 25  1  0  0  0  0
 20 26  1  0  0  0  0
 26 27  1  0  0  0  0
 26 28  1  0  0  0  0
 26 29  1  0  0  0  0
M  END
> <VConfSearch Rank>
66

> <Conf_Id>
73

> <Delta U+W>
1.580

> <U+W>
-26.246

> <U>
25.821

> <W>
-52.067

> <W(PB)>
-54.581

> <W(SA)>
2.514

> <Valence>
4.779

> <Coulomb>
19.614

> <VdW>
1.428

> <VdW6>
-9.390

> <VdW12>
10.818

> <Bond>
0.283

> <Angle>
1.640

> <Pdih>
2.856

> <Idih>
0.000

> <Tether>
0.000

$$$$
VeraChem MOL file


 29 28  0  0  0  0  0  0  0  0999 V2000     
   24.0592   17.7952   24.1092 C   0  0  0  0  0  0  0  0  0  0  0  0
   24.2599   18.8380   23.8308 H   0  0  0  0  0  0  0  0  0  0  0  0
   24.8701   17.4604   24.7690 H   0  0  0  0  0  0  0  0  0  0  0  0
   24.0932   17.1851   23.1971 H   0  0  0  0  0  0  0  0  0  0  0  0
   22.6928   17.6624   24.8145 C   0  0  0  0  0  0  0  0  0  0  0  0
   22.7004   18.2565   25.7390 H   0  0  0  0  0  0  0  0  0  0  0  0
   22.5365   16.6158   25.1113 H   0  0  0  0  0  0  0  0  0  0  0  0
   21.5328   18.1265   23.9062 C   0  0  0  0  0  0  0  0  0  0  0  0
   21.7072   19.1688   23.6097 H   0  0  0  0  0  0  0  0  0  0  0  0
   21.5279   17.5279   22.9848 H   0  0  0  0  0  0  0  0  0  0  0  0
   20.1627   17.9981   24.6147 C   0  0  0  0  0  0  0  0  0  0  0  0
   20.1435   18.6420   25.5048 H   0  0  0  0  0  0  0  0  0  0  0  0
   20.0450   16.9676   24.9776 H   0  0  0  0  0  0  0  0  0  0  0  0
   18.9567   18.3356   23.7038 C   0  0  0  0  0  0  0  0  0  0  0  0
   18.9753   17.6891   22.8154 H   0  0  0  0  0  0  0  0  0  0  0  0
   18.0385   18.0835   24.2503 H   0  0  0  0  0  0  0  0  0  0  0  0
   18.9077   19.8225   23.2669 C   0  0  0  0  0  0  0  0  0  0  0  0
   19.8146   20.0639   22.6989 H   0  0  0  0  0  0  0  0  0  0  0  0
   18.9092   20.4707   24.1532 H   0  0  0  0  0  0  0  0  0  0  0  0
   17.6824   20.1509   22.3863 C   0  0  2  0  0  0  0  0  0  0  0  0
   17.6825   19.4691   21.5303 H   0  0  0  0  0  0  0  0  0  0  0  0
   17.7758   21.5907   21.8563 C   0  0  0  0  0  0  0  0  0  0  0  0
   18.6934   21.7325   21.2717 H   0  0  0  0  0  0  0  0  0  0  0  0
   16.9259   21.8194   21.2015 H   0  0  0  0  0  0  0  0  0  0  0  0
   17.7790   22.3170   22.6788 H   0  0  0  0  0  0  0  0  0  0  0  0
   16.3793   19.9407   23.1081 N   0  3  0  0  0  0  0  0  0  0  0  0
   15.5792   20.1466   22.5030 H   0  0  0  0  0  0  0  0  0  0  0  0
   16.3063   20.5463   23.9299 H   0  0  0  0  0  0  0  0  0  0  0  0
   16.2804   18.9733   23.4276 H   0  0  0  0  0  0  0  0  0  0  0  0
  1  2  1  0  0  0  0
  1  3  1  0  0  0  0
  1  4  1  0  0  0  0
  1  5  1  0  0  0  0
  5  6  1  0  0  0  0
  5  7  1  0  0  0  0
  5  8  1  0  0  0  0
  8  9  1  0  0  0  0
  8 10  1  0  0  0  0
  8 11  1  0  0  0  0
 11 12  1  0  0  0  0
 11 13  1  0  0  0  0
 11 14  1  0  0  0  0
 14 15  1  0  0  0  0
 14 16  1  0  0  0  0
 14 17  1  0  0  0  0
 17 18  1  0  0  0  0
 17 19  1  0  0  0  0
 17 20  1  0  0  0  0
 20 21  1  0  0  0  0
 20 22  1  0  0  0  0
 22 23  1  0  0  0  0
 22 24  1  0  0  0  0
 22 25  1  0  0  0  0
 20 26  1  0  0  0  0
 26 27  1  0  0  0  0
 26 28  1  0  0  0  0
 26 29  1  0  0  0  0
M  END
> <VConfSearch Rank>
67

> <Conf_Id>
111

> <Delta U+W>
0.580

> <U+W>
-27.246

> <U>
24.710

> <W>
-51.957

> <W(PB)>
-54.511

> <W(SA)>
2.555

> <Valence>
3.735

> <Coulomb>
19.760

> <VdW>
1.216

> <VdW6>
-8.624

> <VdW12>
9.840

> <Bond>
0.236

> <Angle>
1.168

> <Pdih>
2.330

> <Idih>
0.000

> <Tether>
0.000

$$$$
VeraChem MOL file


 29 28  0  0  0  0  0  0  0  0999 V2000     
   23.8197   18.7831   22.0468 C   0  0  0  0  0  0  0  0  0  0  0  0
   23.5226   19.0471   21.0234 H   0  0  0  0  0  0  0  0  0  0  0  0
   23.9260   19.7118   22.6225 H   0  0  0  0  0  0  0  0  0  0  0  0
   24.8053   18.3021   21.9982 H   0  0  0  0  0  0  0  0  0  0  0  0
   22.7854   17.8414   22.6989 C   0  0  0  0  0  0  0  0  0  0  0  0
   23.1255   17.5687   23.7078 H   0  0  0  0  0  0  0  0  0  0  0  0
   22.7269   16.9085   22.1209 H   0  0  0  0  0  0  0  0  0  0  0  0
   21.3879   18.4946   22.7790 C   0  0  0  0  0  0  0  0  0  0  0  0
   21.4617   19.4290   23.3506 H   0  0  0  0  0  0  0  0  0  0  0  0
   21.0514   18.7636   21.7682 H   0  0  0  0  0  0  0  0  0  0  0  0
   20.3508   17.5527   23.4364 C   0  0  0  0  0  0  0  0  0  0  0  0
   20.6586   17.3236   24.4660 H   0  0  0  0  0  0  0  0  0  0  0  0
   20.3435   16.5956   22.8967 H   0  0  0  0  0  0  0  0  0  0  0  0
   18.9121   18.1251   23.4396 C   0  0  0  0  0  0  0  0  0  0  0  0
   18.6024   18.3208   22.4045 H   0  0  0  0  0  0  0  0  0  0  0  0
   18.2313   17.3549   23.8280 H   0  0  0  0  0  0  0  0  0  0  0  0
   18.7622   19.4094   24.2953 C   0  0  0  0  0  0  0  0  0  0  0  0
   19.3282   20.2329   23.8419 H   0  0  0  0  0  0  0  0  0  0  0  0
   19.2090   19.2272   25.2816 H   0  0  0  0  0  0  0  0  0  0  0  0
   17.2945   19.8503   24.4963 C   0  0  2  0  0  0  0  0  0  0  0  0
   16.7372   19.0071   24.9158 H   0  0  0  0  0  0  0  0  0  0  0  0
   16.6282   20.2642   23.1720 C   0  0  0  0  0  0  0  0  0  0  0  0
   17.1872   21.0709   22.6817 H   0  0  0  0  0  0  0  0  0  0  0  0
   16.5636   19.4190   22.4771 H   0  0  0  0  0  0  0  0  0  0  0  0
   15.6049   20.6180   23.3485 H   0  0  0  0  0  0  0  0  0  0  0  0
   17.1954   20.9654   25.4998 N   0  3  0  0  0  0  0  0  0  0  0  0
   17.5948   20.6960   26.4035 H   0  0  0  0  0  0  0  0  0  0  0  0
   16.2211   21.2337   25.6654 H   0  0  0  0  0  0  0  0  0  0  0  0
   17.6923   21.8013   25.1805 H   0  0  0  0  0  0  0  0  0  0  0  0
  1  2  1  0  0  0  0
  1  3  1  0  0  0  0
  1  4  1  0  0  0  0
  1  5  1  0  0  0  0
  5  6  1  0  0  0  0
  5  7  1  0  0  0  0
  5  8  1  0  0  0  0
  8  9  1  0  0  0  0
  8 10  1  0  0  0  0
  8 11  1  0  0  0  0
 11 12  1  0  0  0  0
 11 13  1  0  0  0  0
 11 14  1  0  0  0  0
 14 15  1  0  0  0  0
 14 16  1  0  0  0  0
 14 17  1  0  0  0  0
 17 18  1  0  0  0  0
 17 19  1  0  0  0  0
 17 20  1  0  0  0  0
 20 21  1  0  0  0  0
 20 22  1  0  0  0  0
 22 23  1  0  0  0  0
 22 24  1  0  0  0  0
 22 25  1  0  0  0  0
 20 26  1  0  0  0  0
 26 27  1  0  0  0  0
 26 28  1  0  0  0  0
 26 29  1  0  0  0  0
M  END
> <VConfSearch Rank>
68

> <Conf_Id>
39

> <Delta U+W>
0.965

> <U+W>
-26.861

> <U>
25.129

> <W>
-51.990

> <W(PB)>
-54.526

> <W(SA)>
2.536

> <Valence>
4.206

> <Coulomb>
19.678

> <VdW>
1.245

> <VdW6>
-8.834

> <VdW12>
10.079

> <Bond>
0.240

> <Angle>
1.353

> <Pdih>
2.613

> <Idih>
0.000

> <Tether>
0.000

$$$$
VeraChem MOL file


 29 28  0  0  0  0  0  0  0  0999 V2000     
   20.9503   21.4931   26.8035 C   0  0  0  0  0  0  0  0  0  0  0  0
   19.9041   21.6118   27.1138 H   0  0  0  0  0  0  0  0  0  0  0  0
   21.2869   20.4929   27.1027 H   0  0  0  0  0  0  0  0  0  0  0  0
   21.5507   22.2229   27.3619 H   0  0  0  0  0  0  0  0  0  0  0  0
   21.1075   21.7154   25.2821 C   0  0  0  0  0  0  0  0  0  0  0  0
   22.1553   21.5567   24.9909 H   0  0  0  0  0  0  0  0  0  0  0  0
   20.8813   22.7665   25.0547 H   0  0  0  0  0  0  0  0  0  0  0  0
   20.1840   20.8143   24.4270 C   0  0  0  0  0  0  0  0  0  0  0  0
   19.1381   20.9774   24.7213 H   0  0  0  0  0  0  0  0  0  0  0  0
   20.2668   21.1402   23.3824 H   0  0  0  0  0  0  0  0  0  0  0  0
   20.5276   19.3063   24.5287 C   0  0  0  0  0  0  0  0  0  0  0  0
   20.4519   18.9852   25.5755 H   0  0  0  0  0  0  0  0  0  0  0  0
   21.5721   19.1427   24.2301 H   0  0  0  0  0  0  0  0  0  0  0  0
   19.5976   18.4009   23.6838 C   0  0  0  0  0  0  0  0  0  0  0  0
   19.8273   17.3556   23.9281 H   0  0  0  0  0  0  0  0  0  0  0  0
   18.5571   18.5699   23.9910 H   0  0  0  0  0  0  0  0  0  0  0  0
   19.7462   18.6190   22.1531 C   0  0  0  0  0  0  0  0  0  0  0  0
   20.8079   18.5592   21.8805 H   0  0  0  0  0  0  0  0  0  0  0  0
   19.4215   19.6333   21.8901 H   0  0  0  0  0  0  0  0  0  0  0  0
   18.9582   17.6177   21.2758 C   0  0  2  0  0  0  0  0  0  0  0  0
   19.1550   17.8762   20.2307 H   0  0  0  0  0  0  0  0  0  0  0  0
   17.4401   17.7212   21.5034 C   0  0  0  0  0  0  0  0  0  0  0  0
   17.1573   17.3862   22.5085 H   0  0  0  0  0  0  0  0  0  0  0  0
   17.0964   18.7552   21.3758 H   0  0  0  0  0  0  0  0  0  0  0  0
   16.9003   17.0994   20.7787 H   0  0  0  0  0  0  0  0  0  0  0  0
   19.4339   16.2017   21.4503 N   0  3  0  0  0  0  0  0  0  0  0  0
   20.4362   16.1161   21.2587 H   0  0  0  0  0  0  0  0  0  0  0  0
   18.9454   15.5623   20.8168 H   0  0  0  0  0  0  0  0  0  0  0  0
   19.2729   15.8707   22.4047 H   0  0  0  0  0  0  0  0  0  0  0  0
  1  2  1  0  0  0  0
  1  3  1  0  0  0  0
  1  4  1  0  0  0  0
  1  5  1  0  0  0  0
  5  6  1  0  0  0  0
  5  7  1  0  0  0  0
  5  8  1  0  0  0  0
  8  9  1  0  0  0  0
  8 10  1  0  0  0  0
  8 11  1  0  0  0  0
 11 12  1  0  0  0  0
 11 13  1  0  0  0  0
 11 14  1  0  0  0  0
 14 15  1  0  0  0  0
 14 16  1  0  0  0  0
 14 17  1  0  0  0  0
 17 18  1  0  0  0  0
 17 19  1  0  0  0  0
 17 20  1  0  0  0  0
 20 21  1  0  0  0  0
 20 22  1  0  0  0  0
 22 23  1  0  0  0  0
 22 24  1  0  0  0  0
 22 25  1  0  0  0  0
 20 26  1  0  0  0  0
 26 27  1  0  0  0  0
 26 28  1  0  0  0  0
 26 29  1  0  0  0  0
M  END
> <VConfSearch Rank>
69

> <Conf_Id>
155

> <Delta U+W>
1.624

> <U+W>
-26.202

> <U>
25.894

> <W>
-52.096

> <W(PB)>
-54.602

> <W(SA)>
2.506

> <Valence>
4.779

> <Coulomb>
19.659

> <VdW>
1.456

> <VdW6>
-9.843

> <VdW12>
11.299

> <Bond>
0.315

> <Angle>
1.725

> <Pdih>
2.740

> <Idih>
0.000

> <Tether>
0.000

$$$$
VeraChem MOL file


 29 28  0  0  0  0  0  0  0  0999 V2000     
   18.8506   22.8203   22.1494 C   0  0  0  0  0  0  0  0  0  0  0  0
   17.8867   22.4316   22.5007 H   0  0  0  0  0  0  0  0  0  0  0  0
   19.4626   23.0675   23.0266 H   0  0  0  0  0  0  0  0  0  0  0  0
   18.6521   23.7525   21.6048 H   0  0  0  0  0  0  0  0  0  0  0  0
   19.5731   21.8039   21.2365 C   0  0  0  0  0  0  0  0  0  0  0  0
   20.4715   22.2788   20.8181 H   0  0  0  0  0  0  0  0  0  0  0  0
   18.9305   21.5539   20.3808 H   0  0  0  0  0  0  0  0  0  0  0  0
   19.9922   20.5088   21.9729 C   0  0  0  0  0  0  0  0  0  0  0  0
   20.5825   19.8903   21.2829 H   0  0  0  0  0  0  0  0  0  0  0  0
   20.6589   20.7710   22.8046 H   0  0  0  0  0  0  0  0  0  0  0  0
   18.7884   19.6824   22.4921 C   0  0  0  0  0  0  0  0  0  0  0  0
   18.0688   19.5487   21.6727 H   0  0  0  0  0  0  0  0  0  0  0  0
   18.2614   20.2376   23.2793 H   0  0  0  0  0  0  0  0  0  0  0  0
   19.1813   18.2845   23.0307 C   0  0  0  0  0  0  0  0  0  0  0  0
   18.2558   17.7338   23.2415 H   0  0  0  0  0  0  0  0  0  0  0  0
   19.7049   17.7216   22.2457 H   0  0  0  0  0  0  0  0  0  0  0  0
   20.0577   18.3388   24.3092 C   0  0  0  0  0  0  0  0  0  0  0  0
   19.5295   18.8911   25.0976 H   0  0  0  0  0  0  0  0  0  0  0  0
   20.9720   18.9039   24.0915 H   0  0  0  0  0  0  0  0  0  0  0  0
   20.4732   16.9469   24.8387 C   0  0  2  0  0  0  0  0  0  0  0  0
   20.9424   16.3937   24.0192 H   0  0  0  0  0  0  0  0  0  0  0  0
   19.2700   16.1343   25.3504 C   0  0  0  0  0  0  0  0  0  0  0  0
   18.7244   16.6810   26.1296 H   0  0  0  0  0  0  0  0  0  0  0  0
   18.5705   15.9013   24.5395 H   0  0  0  0  0  0  0  0  0  0  0  0
   19.6019   15.1788   25.7748 H   0  0  0  0  0  0  0  0  0  0  0  0
   21.5128   17.0669   25.9183 N   0  3  0  0  0  0  0  0  0  0  0  0
   22.3441   17.5655   25.5879 H   0  0  0  0  0  0  0  0  0  0  0  0
   21.8200   16.1464   26.2455 H   0  0  0  0  0  0  0  0  0  0  0  0
   21.1516   17.5748   26.7303 H   0  0  0  0  0  0  0  0  0  0  0  0
  1  2  1  0  0  0  0
  1  3  1  0  0  0  0
  1  4  1  0  0  0  0
  1  5  1  0  0  0  0
  5  6  1  0  0  0  0
  5  7  1  0  0  0  0
  5  8  1  0  0  0  0
  8  9  1  0  0  0  0
  8 10  1  0  0  0  0
  8 11  1  0  0  0  0
 11 12  1  0  0  0  0
 11 13  1  0  0  0  0
 11 14  1  0  0  0  0
 14 15  1  0  0  0  0
 14 16  1  0  0  0  0
 14 17  1  0  0  0  0
 17 18  1  0  0  0  0
 17 19  1  0  0  0  0
 17 20  1  0  0  0  0
 20 21  1  0  0  0  0
 20 22  1  0  0  0  0
 22 23  1  0  0  0  0
 22 24  1  0  0  0  0
 22 25  1  0  0  0  0
 20 26  1  0  0  0  0
 26 27  1  0  0  0  0
 26 28  1  0  0  0  0
 26 29  1  0  0  0  0
M  END
> <VConfSearch Rank>
70

> <Conf_Id>
135

> <Delta U+W>
1.581

> <U+W>
-26.245

> <U>
25.974

> <W>
-52.219

> <W(PB)>
-54.709

> <W(SA)>
2.490

> <Valence>
4.811

> <Coulomb>
19.700

> <VdW>
1.463

> <VdW6>
-9.391

> <VdW12>
10.854

> <Bond>
0.285

> <Angle>
1.671

> <Pdih>
2.855

> <Idih>
0.000

> <Tether>
0.000

$$$$
VeraChem MOL file


 29 28  0  0  0  0  0  0  0  0999 V2000     
   21.6464   22.2626   21.7560 C   0  0  0  0  0  0  0  0  0  0  0  0
   21.5386   21.5758   20.9064 H   0  0  0  0  0  0  0  0  0  0  0  0
   20.6643   22.7022   21.9699 H   0  0  0  0  0  0  0  0  0  0  0  0
   22.3128   23.0781   21.4463 H   0  0  0  0  0  0  0  0  0  0  0  0
   22.2221   21.5329   22.9906 C   0  0  0  0  0  0  0  0  0  0  0  0
   22.2954   22.2342   23.8335 H   0  0  0  0  0  0  0  0  0  0  0  0
   23.2493   21.2130   22.7666 H   0  0  0  0  0  0  0  0  0  0  0  0
   21.3958   20.2936   23.4108 C   0  0  0  0  0  0  0  0  0  0  0  0
   21.3550   19.5881   22.5706 H   0  0  0  0  0  0  0  0  0  0  0  0
   21.9263   19.7794   24.2240 H   0  0  0  0  0  0  0  0  0  0  0  0
   19.9620   20.6436   23.8827 C   0  0  0  0  0  0  0  0  0  0  0  0
   19.3790   21.0507   23.0461 H   0  0  0  0  0  0  0  0  0  0  0  0
   20.0173   21.4392   24.6384 H   0  0  0  0  0  0  0  0  0  0  0  0
   19.2051   19.4380   24.4918 C   0  0  0  0  0  0  0  0  0  0  0  0
   19.7701   19.0584   25.3533 H   0  0  0  0  0  0  0  0  0  0  0  0
   18.2414   19.7923   24.8831 H   0  0  0  0  0  0  0  0  0  0  0  0
   18.9488   18.2966   23.4742 C   0  0  0  0  0  0  0  0  0  0  0  0
   19.9000   17.8394   23.1735 H   0  0  0  0  0  0  0  0  0  0  0  0
   18.5081   18.7294   22.5664 H   0  0  0  0  0  0  0  0  0  0  0  0
   17.9997   17.1977   24.0037 C   0  0  2  0  0  0  0  0  0  0  0  0
   17.0713   17.6750   24.3320 H   0  0  0  0  0  0  0  0  0  0  0  0
   18.6046   16.4363   25.1968 C   0  0  0  0  0  0  0  0  0  0  0  0
   19.5704   15.9878   24.9328 H   0  0  0  0  0  0  0  0  0  0  0  0
   18.7567   17.0989   26.0566 H   0  0  0  0  0  0  0  0  0  0  0  0
   17.9335   15.6318   25.5220 H   0  0  0  0  0  0  0  0  0  0  0  0
   17.6194   16.2368   22.9118 N   0  3  0  0  0  0  0  0  0  0  0  0
   16.9593   15.5301   23.2489 H   0  0  0  0  0  0  0  0  0  0  0  0
   18.4377   15.7414   22.5477 H   0  0  0  0  0  0  0  0  0  0  0  0
   17.1748   16.7176   22.1243 H   0  0  0  0  0  0  0  0  0  0  0  0
  1  2  1  0  0  0  0
  1  3  1  0  0  0  0
  1  4  1  0  0  0  0
  1  5  1  0  0  0  0
  5  6  1  0  0  0  0
  5  7  1  0  0  0  0
  5  8  1  0  0  0  0
  8  9  1  0  0  0  0
  8 10  1  0  0  0  0
  8 11  1  0  0  0  0
 11 12  1  0  0  0  0
 11 13  1  0  0  0  0
 11 14  1  0  0  0  0
 14 15  1  0  0  0  0
 14 16  1  0  0  0  0
 14 17  1  0  0  0  0
 17 18  1  0  0  0  0
 17 19  1  0  0  0  0
 17 20  1  0  0  0  0
 20 21  1  0  0  0  0
 20 22  1  0  0  0  0
 22 23  1  0  0  0  0
 22 24  1  0  0  0  0
 22 25  1  0  0  0  0
 20 26  1  0  0  0  0
 26 27  1  0  0  0  0
 26 28  1  0  0  0  0
 26 29  1  0  0  0  0
M  END
> <VConfSearch Rank>
71

> <Conf_Id>
130

> <Delta U+W>
1.359

> <U+W>
-26.467

> <U>
25.687

> <W>
-52.154

> <W(PB)>
-54.643

> <W(SA)>
2.489

> <Valence>
4.682

> <Coulomb>
19.653

> <VdW>
1.352

> <VdW6>
-9.477

> <VdW12>
10.829

> <Bond>
0.274

> <Angle>
1.550

> <Pdih>
2.858

> <Idih>
0.000

> <Tether>
0.000

$$$$
VeraChem MOL file


 29 28  0  0  0  0  0  0  0  0999 V2000     
   17.1919   19.8376   20.4393 C   0  0  0  0  0  0  0  0  0  0  0  0
   16.1622   19.7118   20.0802 H   0  0  0  0  0  0  0  0  0  0  0  0
   17.6289   20.6955   19.9119 H   0  0  0  0  0  0  0  0  0  0  0  0
   17.7515   18.9376   20.1562 H   0  0  0  0  0  0  0  0  0  0  0  0
   17.2075   20.0589   21.9688 C   0  0  0  0  0  0  0  0  0  0  0  0
   16.7965   19.1741   22.4746 H   0  0  0  0  0  0  0  0  0  0  0  0
   16.5339   20.8925   22.2120 H   0  0  0  0  0  0  0  0  0  0  0  0
   18.6137   20.3774   22.5320 C   0  0  0  0  0  0  0  0  0  0  0  0
   19.0115   21.2732   22.0357 H   0  0  0  0  0  0  0  0  0  0  0  0
   18.5060   20.6373   23.5925 H   0  0  0  0  0  0  0  0  0  0  0  0
   19.6183   19.2068   22.3773 C   0  0  0  0  0  0  0  0  0  0  0  0
   19.7680   19.0026   21.3092 H   0  0  0  0  0  0  0  0  0  0  0  0
   19.1900   18.2938   22.8081 H   0  0  0  0  0  0  0  0  0  0  0  0
   21.0038   19.5066   23.0064 C   0  0  0  0  0  0  0  0  0  0  0  0
   21.7455   18.7949   22.6182 H   0  0  0  0  0  0  0  0  0  0  0  0
   21.3360   20.4938   22.6566 H   0  0  0  0  0  0  0  0  0  0  0  0
   21.0321   19.4849   24.5600 C   0  0  0  0  0  0  0  0  0  0  0  0
   20.0494   19.7399   24.9742 H   0  0  0  0  0  0  0  0  0  0  0  0
   21.7117   20.2806   24.8924 H   0  0  0  0  0  0  0  0  0  0  0  0
   21.5320   18.1568   25.1771 C   0  0  2  0  0  0  0  0  0  0  0  0
   22.5292   17.9492   24.7771 H   0  0  0  0  0  0  0  0  0  0  0  0
   20.6209   16.9647   24.8393 C   0  0  0  0  0  0  0  0  0  0  0  0
   20.6368   16.7495   23.7647 H   0  0  0  0  0  0  0  0  0  0  0  0
   20.9620   16.0585   25.3548 H   0  0  0  0  0  0  0  0  0  0  0  0
   19.5841   17.1587   25.1410 H   0  0  0  0  0  0  0  0  0  0  0  0
   21.6927   18.2813   26.6668 N   0  3  0  0  0  0  0  0  0  0  0  0
   22.3339   19.0405   26.9149 H   0  0  0  0  0  0  0  0  0  0  0  0
   22.0675   17.4204   27.0756 H   0  0  0  0  0  0  0  0  0  0  0  0
   20.7974   18.4724   27.1247 H   0  0  0  0  0  0  0  0  0  0  0  0
  1  2  1  0  0  0  0
  1  3  1  0  0  0  0
  1  4  1  0  0  0  0
  1  5  1  0  0  0  0
  5  6  1  0  0  0  0
  5  7  1  0  0  0  0
  5  8  1  0  0  0  0
  8  9  1  0  0  0  0
  8 10  1  0  0  0  0
  8 11  1  0  0  0  0
 11 12  1  0  0  0  0
 11 13  1  0  0  0  0
 11 14  1  0  0  0  0
 14 15  1  0  0  0  0
 14 16  1  0  0  0  0
 14 17  1  0  0  0  0
 17 18  1  0  0  0  0
 17 19  1  0  0  0  0
 17 20  1  0  0  0  0
 20 21  1  0  0  0  0
 20 22  1  0  0  0  0
 22 23  1  0  0  0  0
 22 24  1  0  0  0  0
 22 25  1  0  0  0  0
 20 26  1  0  0  0  0
 26 27  1  0  0  0  0
 26 28  1  0  0  0  0
 26 29  1  0  0  0  0
M  END
> <VConfSearch Rank>
72

> <Conf_Id>
157

> <Delta U+W>
4.354

> <U+W>
-23.472

> <U>
28.780

> <W>
-52.252

> <W(PB)>
-54.715

> <W(SA)>
2.462

> <Valence>
7.566

> <Coulomb>
19.822

> <VdW>
1.392

> <VdW6>
-10.248

> <VdW12>
11.641

> <Bond>
0.340

> <Angle>
2.096

> <Pdih>
5.129

> <Idih>
0.000

> <Tether>
0.000

$$$$
VeraChem MOL file


 29 28  0  0  0  0  0  0  0  0999 V2000     
   22.5012   16.8217   24.4038 C   0  0  0  0  0  0  0  0  0  0  0  0
   23.3915   16.7170   25.0373 H   0  0  0  0  0  0  0  0  0  0  0  0
   21.6644   17.1066   25.0510 H   0  0  0  0  0  0  0  0  0  0  0  0
   22.2777   15.8348   23.9782 H   0  0  0  0  0  0  0  0  0  0  0  0
   22.7523   17.8600   23.2855 C   0  0  0  0  0  0  0  0  0  0  0  0
   23.6117   17.5173   22.6924 H   0  0  0  0  0  0  0  0  0  0  0  0
   23.0503   18.8247   23.7192 H   0  0  0  0  0  0  0  0  0  0  0  0
   21.5400   18.0462   22.3371 C   0  0  0  0  0  0  0  0  0  0  0  0
   21.9239   18.2071   21.3201 H   0  0  0  0  0  0  0  0  0  0  0  0
   20.9510   17.1202   22.2870 H   0  0  0  0  0  0  0  0  0  0  0  0
   20.6196   19.2453   22.6822 C   0  0  0  0  0  0  0  0  0  0  0  0
   19.8514   19.3126   21.9011 H   0  0  0  0  0  0  0  0  0  0  0  0
   21.1985   20.1772   22.6228 H   0  0  0  0  0  0  0  0  0  0  0  0
   19.9431   19.1492   24.0719 C   0  0  0  0  0  0  0  0  0  0  0  0
   19.4318   18.1829   24.1731 H   0  0  0  0  0  0  0  0  0  0  0  0
   20.7164   19.1733   24.8502 H   0  0  0  0  0  0  0  0  0  0  0  0
   18.9527   20.3087   24.3533 C   0  0  0  0  0  0  0  0  0  0  0  0
   19.5039   21.2581   24.3277 H   0  0  0  0  0  0  0  0  0  0  0  0
   18.5667   20.2065   25.3762 H   0  0  0  0  0  0  0  0  0  0  0  0
   17.7652   20.3890   23.3677 C   0  0  2  0  0  0  0  0  0  0  0  0
   18.1626   20.5225   22.3574 H   0  0  0  0  0  0  0  0  0  0  0  0
   16.8791   21.6009   23.6962 C   0  0  0  0  0  0  0  0  0  0  0  0
   16.4461   21.5158   24.7007 H   0  0  0  0  0  0  0  0  0  0  0  0
   17.4594   22.5310   23.6518 H   0  0  0  0  0  0  0  0  0  0  0  0
   16.0565   21.6870   22.9756 H   0  0  0  0  0  0  0  0  0  0  0  0
   16.9493   19.1258   23.3483 N   0  3  0  0  0  0  0  0  0  0  0  0
   17.5235   18.3178   23.0924 H   0  0  0  0  0  0  0  0  0  0  0  0
   16.1821   19.1854   22.6727 H   0  0  0  0  0  0  0  0  0  0  0  0
   16.5372   18.9344   24.2654 H   0  0  0  0  0  0  0  0  0  0  0  0
  1  2  1  0  0  0  0
  1  3  1  0  0  0  0
  1  4  1  0  0  0  0
  1  5  1  0  0  0  0
  5  6  1  0  0  0  0
  5  7  1  0  0  0  0
  5  8  1  0  0  0  0
  8  9  1  0  0  0  0
  8 10  1  0  0  0  0
  8 11  1  0  0  0  0
 11 12  1  0  0  0  0
 11 13  1  0  0  0  0
 11 14  1  0  0  0  0
 14 15  1  0  0  0  0
 14 16  1  0  0  0  0
 14 17  1  0  0  0  0
 17 18  1  0  0  0  0
 17 19  1  0  0  0  0
 17 20  1  0  0  0  0
 20 21  1  0  0  0  0
 20 22  1  0  0  0  0
 22 23  1  0  0  0  0
 22 24  1  0  0  0  0
 22 25  1  0  0  0  0
 20 26  1  0  0  0  0
 26 27  1  0  0  0  0
 26 28  1  0  0  0  0
 26 29  1  0  0  0  0
M  END
> <VConfSearch Rank>
73

> <Conf_Id>
158

> <Delta U+W>
3.648

> <U+W>
-24.178

> <U>
28.057

> <W>
-52.235

> <W(PB)>
-54.696

> <W(SA)>
2.460

> <Valence>
6.543

> <Coulomb>
20.387

> <VdW>
1.127

> <VdW6>
-10.342

> <VdW12>
11.469

> <Bond>
0.308

> <Angle>
1.938

> <Pdih>
4.297

> <Idih>
0.000

> <Tether>
0.000

$$$$
VeraChem MOL file


 29 28  0  0  0  0  0  0  0  0999 V2000     
   16.8262   19.5919   25.6287 C   0  0  0  0  0  0  0  0  0  0  0  0
   16.2391   19.0181   24.8999 H   0  0  0  0  0  0  0  0  0  0  0  0
   17.6649   18.9686   25.9627 H   0  0  0  0  0  0  0  0  0  0  0  0
   16.1872   19.7795   26.5013 H   0  0  0  0  0  0  0  0  0  0  0  0
   17.3162   20.9258   25.0209 C   0  0  0  0  0  0  0  0  0  0  0  0
   17.9273   21.4655   25.7578 H   0  0  0  0  0  0  0  0  0  0  0  0
   16.4444   21.5635   24.8182 H   0  0  0  0  0  0  0  0  0  0  0  0
   18.1158   20.7468   23.7079 C   0  0  0  0  0  0  0  0  0  0  0  0
   17.4941   20.2227   22.9690 H   0  0  0  0  0  0  0  0  0  0  0  0
   18.3238   21.7405   23.2879 H   0  0  0  0  0  0  0  0  0  0  0  0
   19.4512   19.9886   23.8978 C   0  0  0  0  0  0  0  0  0  0  0  0
   19.2514   18.9763   24.2658 H   0  0  0  0  0  0  0  0  0  0  0  0
   20.0486   20.4913   24.6707 H   0  0  0  0  0  0  0  0  0  0  0  0
   20.2647   19.9251   22.5818 C   0  0  0  0  0  0  0  0  0  0  0  0
   19.6570   19.4937   21.7743 H   0  0  0  0  0  0  0  0  0  0  0  0
   20.4937   20.9540   22.2714 H   0  0  0  0  0  0  0  0  0  0  0  0
   21.5990   19.1447   22.7193 C   0  0  0  0  0  0  0  0  0  0  0  0
   21.9653   19.1952   23.7532 H   0  0  0  0  0  0  0  0  0  0  0  0
   22.3527   19.6607   22.1099 H   0  0  0  0  0  0  0  0  0  0  0  0
   21.5440   17.6732   22.2427 C   0  0  2  0  0  0  0  0  0  0  0  0
   21.2237   17.6664   21.1963 H   0  0  0  0  0  0  0  0  0  0  0  0
   20.5544   16.8184   23.0522 C   0  0  0  0  0  0  0  0  0  0  0  0
   20.7735   16.8659   24.1261 H   0  0  0  0  0  0  0  0  0  0  0  0
   19.5229   17.1524   22.8907 H   0  0  0  0  0  0  0  0  0  0  0  0
   20.6051   15.7680   22.7402 H   0  0  0  0  0  0  0  0  0  0  0  0
   22.9112   17.0480   22.2687 N   0  3  0  0  0  0  0  0  0  0  0  0
   23.5775   17.5740   21.6957 H   0  0  0  0  0  0  0  0  0  0  0  0
   22.8908   16.0893   21.9093 H   0  0  0  0  0  0  0  0  0  0  0  0
   23.2865   17.0096   23.2202 H   0  0  0  0  0  0  0  0  0  0  0  0
  1  2  1  0  0  0  0
  1  3  1  0  0  0  0
  1  4  1  0  0  0  0
  1  5  1  0  0  0  0
  5  6  1  0  0  0  0
  5  7  1  0  0  0  0
  5  8  1  0  0  0  0
  8  9  1  0  0  0  0
  8 10  1  0  0  0  0
  8 11  1  0  0  0  0
 11 12  1  0  0  0  0
 11 13  1  0  0  0  0
 11 14  1  0  0  0  0
 14 15  1  0  0  0  0
 14 16  1  0  0  0  0
 14 17  1  0  0  0  0
 17 18  1  0  0  0  0
 17 19  1  0  0  0  0
 17 20  1  0  0  0  0
 20 21  1  0  0  0  0
 20 22  1  0  0  0  0
 22 23  1  0  0  0  0
 22 24  1  0  0  0  0
 22 25  1  0  0  0  0
 20 26  1  0  0  0  0
 26 27  1  0  0  0  0
 26 28  1  0  0  0  0
 26 29  1  0  0  0  0
M  END
> <VConfSearch Rank>
74

> <Conf_Id>
156

> <Delta U+W>
3.393

> <U+W>
-24.433

> <U>
27.713

> <W>
-52.146

> <W(PB)>
-54.603

> <W(SA)>
2.458

> <Valence>
6.758

> <Coulomb>
19.720

> <VdW>
1.235

> <VdW6>
-9.782

> <VdW12>
11.017

> <Bond>
0.287

> <Angle>
1.880

> <Pdih>
4.591

> <Idih>
0.000

> <Tether>
0.000

$$$$
VeraChem MOL file


 29 28  0  0  0  0  0  0  0  0999 V2000     
   20.9087   17.1008   20.4231 C   0  0  0  0  0  0  0  0  0  0  0  0
   19.8564   17.1202   20.1108 H   0  0  0  0  0  0  0  0  0  0  0  0
   21.5190   17.4799   19.5930 H   0  0  0  0  0  0  0  0  0  0  0  0
   21.1896   16.0540   20.5970 H   0  0  0  0  0  0  0  0  0  0  0  0
   21.1235   17.9417   21.6992 C   0  0  0  0  0  0  0  0  0  0  0  0
   22.1775   17.8797   22.0041 H   0  0  0  0  0  0  0  0  0  0  0  0
   20.5292   17.5089   22.5147 H   0  0  0  0  0  0  0  0  0  0  0  0
   20.7298   19.4214   21.4799 C   0  0  0  0  0  0  0  0  0  0  0  0
   21.2792   19.8112   20.6119 H   0  0  0  0  0  0  0  0  0  0  0  0
   19.6663   19.4877   21.2155 H   0  0  0  0  0  0  0  0  0  0  0  0
   21.0338   20.3331   22.6969 C   0  0  0  0  0  0  0  0  0  0  0  0
   20.7468   21.3635   22.4458 H   0  0  0  0  0  0  0  0  0  0  0  0
   22.1202   20.3561   22.8594 H   0  0  0  0  0  0  0  0  0  0  0  0
   20.3424   19.9282   24.0247 C   0  0  0  0  0  0  0  0  0  0  0  0
   20.7147   18.9488   24.3503 H   0  0  0  0  0  0  0  0  0  0  0  0
   20.6562   20.6432   24.7959 H   0  0  0  0  0  0  0  0  0  0  0  0
   18.7920   19.9104   23.9323 C   0  0  0  0  0  0  0  0  0  0  0  0
   18.4777   19.1747   23.1819 H   0  0  0  0  0  0  0  0  0  0  0  0
   18.4383   20.8844   23.5697 H   0  0  0  0  0  0  0  0  0  0  0  0
   18.0649   19.5772   25.2565 C   0  0  2  0  0  0  0  0  0  0  0  0
   16.9929   19.5456   25.0385 H   0  0  0  0  0  0  0  0  0  0  0  0
   18.2874   20.6571   26.3298 C   0  0  0  0  0  0  0  0  0  0  0  0
   17.6484   20.4680   27.2011 H   0  0  0  0  0  0  0  0  0  0  0  0
   19.3272   20.6780   26.6766 H   0  0  0  0  0  0  0  0  0  0  0  0
   18.0337   21.6512   25.9413 H   0  0  0  0  0  0  0  0  0  0  0  0
   18.4239   18.2141   25.7808 N   0  3  0  0  0  0  0  0  0  0  0  0
   18.2334   17.4837   25.0889 H   0  0  0  0  0  0  0  0  0  0  0  0
   17.8889   17.9851   26.6234 H   0  0  0  0  0  0  0  0  0  0  0  0
   19.4163   18.1600   26.0229 H   0  0  0  0  0  0  0  0  0  0  0  0
  1  2  1  0  0  0  0
  1  3  1  0  0  0  0
  1  4  1  0  0  0  0
  1  5  1  0  0  0  0
  5  6  1  0  0  0  0
  5  7  1  0  0  0  0
  5  8  1  0  0  0  0
  8  9  1  0  0  0  0
  8 10  1  0  0  0  0
  8 11  1  0  0  0  0
 11 12  1  0  0  0  0
 11 13  1  0  0  0  0
 11 14  1  0  0  0  0
 14 15  1  0  0  0  0
 14 16  1  0  0  0  0
 14 17  1  0  0  0  0
 17 18  1  0  0  0  0
 17 19  1  0  0  0  0
 17 20  1  0  0  0  0
 20 21  1  0  0  0  0
 20 22  1  0  0  0  0
 22 23  1  0  0  0  0
 22 24  1  0  0  0  0
 22 25  1  0  0  0  0
 20 26  1  0  0  0  0
 26 27  1  0  0  0  0
 26 28  1  0  0  0  0
 26 29  1  0  0  0  0
M  END
> <VConfSearch Rank>
75

> <Conf_Id>
78

> <Delta U+W>
1.477

> <U+W>
-26.349

> <U>
26.385

> <W>
-52.734

> <W(PB)>
-55.179

> <W(SA)>
2.445

> <Valence>
4.726

> <Coulomb>
20.482

> <VdW>
1.177

> <VdW6>
-10.349

> <VdW12>
11.526

> <Bond>
0.319

> <Angle>
1.933

> <Pdih>
2.474

> <Idih>
0.000

> <Tether>
0.000

$$$$
VeraChem MOL file


 29 28  0  0  0  0  0  0  0  0999 V2000     
   16.2378   19.7779   24.3220 C   0  0  0  0  0  0  0  0  0  0  0  0
   16.1737   20.7529   24.8224 H   0  0  0  0  0  0  0  0  0  0  0  0
   16.7292   19.9280   23.3543 H   0  0  0  0  0  0  0  0  0  0  0  0
   15.2132   19.4365   24.1259 H   0  0  0  0  0  0  0  0  0  0  0  0
   16.9897   18.7542   25.2043 C   0  0  0  0  0  0  0  0  0  0  0  0
   16.9812   17.7625   24.7311 H   0  0  0  0  0  0  0  0  0  0  0  0
   16.4324   18.6445   26.1451 H   0  0  0  0  0  0  0  0  0  0  0  0
   18.4426   19.1809   25.5371 C   0  0  0  0  0  0  0  0  0  0  0  0
   18.5255   20.2764   25.5412 H   0  0  0  0  0  0  0  0  0  0  0  0
   18.6643   18.8642   26.5656 H   0  0  0  0  0  0  0  0  0  0  0  0
   19.5296   18.5683   24.6166 C   0  0  0  0  0  0  0  0  0  0  0  0
   19.5070   17.4734   24.7049 H   0  0  0  0  0  0  0  0  0  0  0  0
   20.5083   18.8865   24.9985 H   0  0  0  0  0  0  0  0  0  0  0  0
   19.3998   18.9666   23.1259 C   0  0  0  0  0  0  0  0  0  0  0  0
   18.4555   18.5726   22.7293 H   0  0  0  0  0  0  0  0  0  0  0  0
   19.3405   20.0590   23.0338 H   0  0  0  0  0  0  0  0  0  0  0  0
   20.5490   18.4168   22.2414 C   0  0  0  0  0  0  0  0  0  0  0  0
   20.3637   18.7061   21.1985 H   0  0  0  0  0  0  0  0  0  0  0  0
   20.5092   17.3197   22.2641 H   0  0  0  0  0  0  0  0  0  0  0  0
   21.9715   18.8695   22.6480 C   0  0  2  0  0  0  0  0  0  0  0  0
   22.1517   18.5596   23.6814 H   0  0  0  0  0  0  0  0  0  0  0  0
   22.1406   20.3967   22.5611 C   0  0  0  0  0  0  0  0  0  0  0  0
   23.1705   20.6861   22.8037 H   0  0  0  0  0  0  0  0  0  0  0  0
   21.9118   20.7645   21.5532 H   0  0  0  0  0  0  0  0  0  0  0  0
   21.4833   20.9103   23.2725 H   0  0  0  0  0  0  0  0  0  0  0  0
   23.0168   18.1812   21.8151 N   0  3  0  0  0  0  0  0  0  0  0  0
   22.9238   18.4220   20.8246 H   0  0  0  0  0  0  0  0  0  0  0  0
   22.9492   17.1622   21.8918 H   0  0  0  0  0  0  0  0  0  0  0  0
   23.9619   18.4467   22.1066 H   0  0  0  0  0  0  0  0  0  0  0  0
  1  2  1  0  0  0  0
  1  3  1  0  0  0  0
  1  4  1  0  0  0  0
  1  5  1  0  0  0  0
  5  6  1  0  0  0  0
  5  7  1  0  0  0  0
  5  8  1  0  0  0  0
  8  9  1  0  0  0  0
  8 10  1  0  0  0  0
  8 11  1  0  0  0  0
 11 12  1  0  0  0  0
 11 13  1  0  0  0  0
 11 14  1  0  0  0  0
 14 15  1  0  0  0  0
 14 16  1  0  0  0  0
 14 17  1  0  0  0  0
 17 18  1  0  0  0  0
 17 19  1  0  0  0  0
 17 20  1  0  0  0  0
 20 21  1  0  0  0  0
 20 22  1  0  0  0  0
 22 23  1  0  0  0  0
 22 24  1  0  0  0  0
 22 25  1  0  0  0  0
 20 26  1  0  0  0  0
 26 27  1  0  0  0  0
 26 28  1  0  0  0  0
 26 29  1  0  0  0  0
M  END
> <VConfSearch Rank>
76

> <Conf_Id>
145

> <Delta U+W>
3.784

> <U+W>
-24.042

> <U>
28.220

> <W>
-52.262

> <W(PB)>
-54.724

> <W(SA)>
2.462

> <Valence>
7.040

> <Coulomb>
19.984

> <VdW>
1.197

> <VdW6>
-10.566

> <VdW12>
11.763

> <Bond>
0.320

> <Angle>
2.280

> <Pdih>
4.439

> <Idih>
0.000

> <Tether>
0.000

$$$$
VeraChem MOL file


 29 28  0  0  0  0  0  0  0  0999 V2000     
   15.9257   18.9487   24.2757 C   0  0  0  0  0  0  0  0  0  0  0  0
   15.4873   18.9770   25.2818 H   0  0  0  0  0  0  0  0  0  0  0  0
   15.9819   19.9780   23.8980 H   0  0  0  0  0  0  0  0  0  0  0  0
   15.2417   18.3880   23.6256 H   0  0  0  0  0  0  0  0  0  0  0  0
   17.3208   18.2893   24.2967 C   0  0  0  0  0  0  0  0  0  0  0  0
   17.7097   18.2382   23.2726 H   0  0  0  0  0  0  0  0  0  0  0  0
   17.2253   17.2517   24.6458 H   0  0  0  0  0  0  0  0  0  0  0  0
   18.3002   19.0566   25.2173 C   0  0  0  0  0  0  0  0  0  0  0  0
   18.3547   20.1139   24.9236 H   0  0  0  0  0  0  0  0  0  0  0  0
   17.8888   19.0468   26.2362 H   0  0  0  0  0  0  0  0  0  0  0  0
   19.7223   18.4387   25.2559 C   0  0  0  0  0  0  0  0  0  0  0  0
   19.6753   17.3597   25.0539 H   0  0  0  0  0  0  0  0  0  0  0  0
   20.1067   18.5302   26.2812 H   0  0  0  0  0  0  0  0  0  0  0  0
   20.7499   19.1138   24.3111 C   0  0  0  0  0  0  0  0  0  0  0  0
   20.8625   20.1671   24.6001 H   0  0  0  0  0  0  0  0  0  0  0  0
   21.7245   18.6407   24.4859 H   0  0  0  0  0  0  0  0  0  0  0  0
   20.3856   19.0182   22.8054 C   0  0  0  0  0  0  0  0  0  0  0  0
   19.4554   19.5700   22.6235 H   0  0  0  0  0  0  0  0  0  0  0  0
   20.1808   17.9716   22.5444 H   0  0  0  0  0  0  0  0  0  0  0  0
   21.4588   19.5728   21.8389 C   0  0  2  0  0  0  0  0  0  0  0  0
   21.0451   19.5140   20.8274 H   0  0  0  0  0  0  0  0  0  0  0  0
   22.7491   18.7345   21.8595 C   0  0  0  0  0  0  0  0  0  0  0  0
   23.4313   19.0628   21.0658 H   0  0  0  0  0  0  0  0  0  0  0  0
   23.2796   18.8265   22.8144 H   0  0  0  0  0  0  0  0  0  0  0  0
   22.5278   17.6736   21.6894 H   0  0  0  0  0  0  0  0  0  0  0  0
   21.7561   21.0264   22.0839 N   0  3  0  0  0  0  0  0  0  0  0  0
   22.1606   21.1702   23.0126 H   0  0  0  0  0  0  0  0  0  0  0  0
   20.9088   21.5982   22.0239 H   0  0  0  0  0  0  0  0  0  0  0  0
   22.4225   21.3928   21.3981 H   0  0  0  0  0  0  0  0  0  0  0  0
  1  2  1  0  0  0  0
  1  3  1  0  0  0  0
  1  4  1  0  0  0  0
  1  5  1  0  0  0  0
  5  6  1  0  0  0  0
  5  7  1  0  0  0  0
  5  8  1  0  0  0  0
  8  9  1  0  0  0  0
  8 10  1  0  0  0  0
  8 11  1  0  0  0  0
 11 12  1  0  0  0  0
 11 13  1  0  0  0  0
 11 14  1  0  0  0  0
 14 15  1  0  0  0  0
 14 16  1  0  0  0  0
 14 17  1  0  0  0  0
 17 18  1  0  0  0  0
 17 19  1  0  0  0  0
 17 20  1  0  0  0  0
 20 21  1  0  0  0  0
 20 22  1  0  0  0  0
 22 23  1  0  0  0  0
 22 24  1  0  0  0  0
 22 25  1  0  0  0  0
 20 26  1  0  0  0  0
 26 27  1  0  0  0  0
 26 28  1  0  0  0  0
 26 29  1  0  0  0  0
M  END
> <VConfSearch Rank>
77

> <Conf_Id>
71

> <Delta U+W>
3.542

> <U+W>
-24.284

> <U>
28.217

> <W>
-52.501

> <W(PB)>
-54.947

> <W(SA)>
2.446

> <Valence>
6.821

> <Coulomb>
20.147

> <VdW>
1.249

> <VdW6>
-10.237

> <VdW12>
11.486

> <Bond>
0.317

> <Angle>
1.990

> <Pdih>
4.515

> <Idih>
0.000

> <Tether>
0.000

$$$$
VeraChem MOL file


 29 28  0  0  0  0  0  0  0  0999 V2000     
   23.0274   19.6428   21.2482 C   0  0  0  0  0  0  0  0  0  0  0  0
   23.4375   20.0042   22.2003 H   0  0  0  0  0  0  0  0  0  0  0  0
   23.6702   18.8301   20.8854 H   0  0  0  0  0  0  0  0  0  0  0  0
   23.0826   20.4654   20.5234 H   0  0  0  0  0  0  0  0  0  0  0  0
   21.5703   19.1638   21.4189 C   0  0  0  0  0  0  0  0  0  0  0  0
   21.1789   18.8414   20.4439 H   0  0  0  0  0  0  0  0  0  0  0  0
   20.9499   20.0092   21.7392 H   0  0  0  0  0  0  0  0  0  0  0  0
   21.4692   17.9956   22.4291 C   0  0  0  0  0  0  0  0  0  0  0  0
   22.0795   17.1640   22.0503 H   0  0  0  0  0  0  0  0  0  0  0  0
   21.9130   18.2820   23.3924 H   0  0  0  0  0  0  0  0  0  0  0  0
   20.0203   17.4838   22.6398 C   0  0  0  0  0  0  0  0  0  0  0  0
   20.0596   16.3939   22.7737 H   0  0  0  0  0  0  0  0  0  0  0  0
   19.4214   17.6482   21.7335 H   0  0  0  0  0  0  0  0  0  0  0  0
   19.2952   18.0786   23.8746 C   0  0  0  0  0  0  0  0  0  0  0  0
   18.3200   17.5830   23.9652 H   0  0  0  0  0  0  0  0  0  0  0  0
   19.8595   17.8148   24.7790 H   0  0  0  0  0  0  0  0  0  0  0  0
   19.0920   19.6157   23.8116 C   0  0  0  0  0  0  0  0  0  0  0  0
   18.6517   19.8841   22.8425 H   0  0  0  0  0  0  0  0  0  0  0  0
   20.0684   20.1138   23.8572 H   0  0  0  0  0  0  0  0  0  0  0  0
   18.2016   20.1997   24.9337 C   0  0  2  0  0  0  0  0  0  0  0  0
   18.1415   21.2804   24.7718 H   0  0  0  0  0  0  0  0  0  0  0  0
   18.8070   19.9704   26.3294 C   0  0  0  0  0  0  0  0  0  0  0  0
   19.8380   20.3431   26.3731 H   0  0  0  0  0  0  0  0  0  0  0  0
   18.2274   20.5052   27.0917 H   0  0  0  0  0  0  0  0  0  0  0  0
   18.8139   18.9073   26.5982 H   0  0  0  0  0  0  0  0  0  0  0  0
   16.7877   19.6909   24.8695 N   0  3  0  0  0  0  0  0  0  0  0  0
   16.3625   19.8781   23.9569 H   0  0  0  0  0  0  0  0  0  0  0  0
   16.1979   20.1349   25.5791 H   0  0  0  0  0  0  0  0  0  0  0  0
   16.7489   18.6808   25.0264 H   0  0  0  0  0  0  0  0  0  0  0  0
  1  2  1  0  0  0  0
  1  3  1  0  0  0  0
  1  4  1  0  0  0  0
  1  5  1  0  0  0  0
  5  6  1  0  0  0  0
  5  7  1  0  0  0  0
  5  8  1  0  0  0  0
  8  9  1  0  0  0  0
  8 10  1  0  0  0  0
  8 11  1  0  0  0  0
 11 12  1  0  0  0  0
 11 13  1  0  0  0  0
 11 14  1  0  0  0  0
 14 15  1  0  0  0  0
 14 16  1  0  0  0  0
 14 17  1  0  0  0  0
 17 18  1  0  0  0  0
 17 19  1  0  0  0  0
 17 20  1  0  0  0  0
 20 21  1  0  0  0  0
 20 22  1  0  0  0  0
 22 23  1  0  0  0  0
 22 24  1  0  0  0  0
 22 25  1  0  0  0  0
 20 26  1  0  0  0  0
 26 27  1  0  0  0  0
 26 28  1  0  0  0  0
 26 29  1  0  0  0  0
M  END
> <VConfSearch Rank>
78

> <Conf_Id>
163

> <Delta U+W>
3.309

> <U+W>
-24.517

> <U>
27.916

> <W>
-52.433

> <W(PB)>
-54.866

> <W(SA)>
2.433

> <Valence>
6.693

> <Coulomb>
20.015

> <VdW>
1.208

> <VdW6>
-10.294

> <VdW12>
11.503

> <Bond>
0.312

> <Angle>
1.939

> <Pdih>
4.441

> <Idih>
0.000

> <Tether>
0.000

$$$$
VeraChem MOL file


 29 28  0  0  0  0  0  0  0  0999 V2000     
   19.9681   17.3740   27.0763 C   0  0  0  0  0  0  0  0  0  0  0  0
   19.9335   18.2128   27.7837 H   0  0  0  0  0  0  0  0  0  0  0  0
   18.9420   17.1451   26.7631 H   0  0  0  0  0  0  0  0  0  0  0  0
   20.3513   16.4971   27.6140 H   0  0  0  0  0  0  0  0  0  0  0  0
   20.8723   17.7038   25.8670 C   0  0  0  0  0  0  0  0  0  0  0  0
   20.8624   16.8645   25.1576 H   0  0  0  0  0  0  0  0  0  0  0  0
   21.9096   17.7972   26.2179 H   0  0  0  0  0  0  0  0  0  0  0  0
   20.4770   19.0107   25.1379 C   0  0  0  0  0  0  0  0  0  0  0  0
   20.4922   19.8472   25.8499 H   0  0  0  0  0  0  0  0  0  0  0  0
   21.2495   19.2264   24.3887 H   0  0  0  0  0  0  0  0  0  0  0  0
   19.0916   18.9365   24.4474 C   0  0  0  0  0  0  0  0  0  0  0  0
   18.3211   18.7195   25.1984 H   0  0  0  0  0  0  0  0  0  0  0  0
   19.0745   18.0940   23.7436 H   0  0  0  0  0  0  0  0  0  0  0  0
   18.6909   20.2470   23.7211 C   0  0  0  0  0  0  0  0  0  0  0  0
   17.6785   20.1294   23.3120 H   0  0  0  0  0  0  0  0  0  0  0  0
   18.6185   21.0570   24.4599 H   0  0  0  0  0  0  0  0  0  0  0  0
   19.6534   20.6913   22.5873 C   0  0  0  0  0  0  0  0  0  0  0  0
   20.6102   21.0011   23.0268 H   0  0  0  0  0  0  0  0  0  0  0  0
   19.2433   21.5874   22.1031 H   0  0  0  0  0  0  0  0  0  0  0  0
   19.9131   19.6069   21.5185 C   0  0  2  0  0  0  0  0  0  0  0  0
   20.3240   18.7240   22.0172 H   0  0  0  0  0  0  0  0  0  0  0  0
   20.9443   20.1017   20.4923 C   0  0  0  0  0  0  0  0  0  0  0  0
   21.1604   19.3215   19.7520 H   0  0  0  0  0  0  0  0  0  0  0  0
   20.5794   20.9880   19.9583 H   0  0  0  0  0  0  0  0  0  0  0  0
   21.8889   20.3642   20.9848 H   0  0  0  0  0  0  0  0  0  0  0  0
   18.6489   19.1686   20.8317 N   0  3  0  0  0  0  0  0  0  0  0  0
   17.9669   18.8091   21.5050 H   0  0  0  0  0  0  0  0  0  0  0  0
   18.8304   18.4267   20.1495 H   0  0  0  0  0  0  0  0  0  0  0  0
   18.2087   19.9452   20.3312 H   0  0  0  0  0  0  0  0  0  0  0  0
  1  2  1  0  0  0  0
  1  3  1  0  0  0  0
  1  4  1  0  0  0  0
  1  5  1  0  0  0  0
  5  6  1  0  0  0  0
  5  7  1  0  0  0  0
  5  8  1  0  0  0  0
  8  9  1  0  0  0  0
  8 10  1  0  0  0  0
  8 11  1  0  0  0  0
 11 12  1  0  0  0  0
 11 13  1  0  0  0  0
 11 14  1  0  0  0  0
 14 15  1  0  0  0  0
 14 16  1  0  0  0  0
 14 17  1  0  0  0  0
 17 18  1  0  0  0  0
 17 19  1  0  0  0  0
 17 20  1  0  0  0  0
 20 21  1  0  0  0  0
 20 22  1  0  0  0  0
 22 23  1  0  0  0  0
 22 24  1  0  0  0  0
 22 25  1  0  0  0  0
 20 26  1  0  0  0  0
 26 27  1  0  0  0  0
 26 28  1  0  0  0  0
 26 29  1  0  0  0  0
M  END
> <VConfSearch Rank>
79

> <Conf_Id>
173

> <Delta U+W>
1.363

> <U+W>
-26.462

> <U>
25.816

> <W>
-52.279

> <W(PB)>
-54.727

> <W(SA)>
2.449

> <Valence>
4.504

> <Coulomb>
20.342

> <VdW>
0.971

> <VdW6>
-10.532

> <VdW12>
11.503

> <Bond>
0.307

> <Angle>
1.715

> <Pdih>
2.481

> <Idih>
0.000

> <Tether>
0.000

$$$$
VeraChem MOL file


 29 28  0  0  0  0  0  0  0  0999 V2000     
   17.9446   21.6787   25.6393 C   0  0  0  0  0  0  0  0  0  0  0  0
   18.2671   21.3438   26.6338 H   0  0  0  0  0  0  0  0  0  0  0  0
   18.1143   22.7612   25.5711 H   0  0  0  0  0  0  0  0  0  0  0  0
   16.8643   21.5015   25.5577 H   0  0  0  0  0  0  0  0  0  0  0  0
   18.7055   20.9262   24.5273 C   0  0  0  0  0  0  0  0  0  0  0  0
   18.3432   21.2625   23.5460 H   0  0  0  0  0  0  0  0  0  0  0  0
   18.4799   19.8546   24.6076 H   0  0  0  0  0  0  0  0  0  0  0  0
   20.2314   21.1518   24.6276 C   0  0  0  0  0  0  0  0  0  0  0  0
   20.4306   22.2316   24.6664 H   0  0  0  0  0  0  0  0  0  0  0  0
   20.5987   20.7395   25.5775 H   0  0  0  0  0  0  0  0  0  0  0  0
   21.0475   20.5487   23.4551 C   0  0  0  0  0  0  0  0  0  0  0  0
   22.1025   20.8079   23.6197 H   0  0  0  0  0  0  0  0  0  0  0  0
   20.7679   21.0357   22.5107 H   0  0  0  0  0  0  0  0  0  0  0  0
   20.9435   19.0071   23.3196 C   0  0  0  0  0  0  0  0  0  0  0  0
   21.9248   18.6244   23.0094 H   0  0  0  0  0  0  0  0  0  0  0  0
   20.7412   18.5655   24.3038 H   0  0  0  0  0  0  0  0  0  0  0  0
   19.8841   18.5564   22.2757 C   0  0  0  0  0  0  0  0  0  0  0  0
   20.1508   18.9740   21.2960 H   0  0  0  0  0  0  0  0  0  0  0  0
   18.9040   18.9807   22.5206 H   0  0  0  0  0  0  0  0  0  0  0  0
   19.7306   17.0247   22.1251 C   0  0  2  0  0  0  0  0  0  0  0  0
   19.0077   16.8482   21.3226 H   0  0  0  0  0  0  0  0  0  0  0  0
   19.1736   16.3724   23.4026 C   0  0  0  0  0  0  0  0  0  0  0  0
   18.2455   16.8646   23.7191 H   0  0  0  0  0  0  0  0  0  0  0  0
   18.9444   15.3147   23.2239 H   0  0  0  0  0  0  0  0  0  0  0  0
   19.8897   16.4237   24.2311 H   0  0  0  0  0  0  0  0  0  0  0  0
   21.0064   16.3575   21.6908 N   0  3  0  0  0  0  0  0  0  0  0  0
   21.3597   16.7564   20.8163 H   0  0  0  0  0  0  0  0  0  0  0  0
   20.8705   15.3543   21.5371 H   0  0  0  0  0  0  0  0  0  0  0  0
   21.7392   16.4637   22.3967 H   0  0  0  0  0  0  0  0  0  0  0  0
  1  2  1  0  0  0  0
  1  3  1  0  0  0  0
  1  4  1  0  0  0  0
  1  5  1  0  0  0  0
  5  6  1  0  0  0  0
  5  7  1  0  0  0  0
  5  8  1  0  0  0  0
  8  9  1  0  0  0  0
  8 10  1  0  0  0  0
  8 11  1  0  0  0  0
 11 12  1  0  0  0  0
 11 13  1  0  0  0  0
 11 14  1  0  0  0  0
 14 15  1  0  0  0  0
 14 16  1  0  0  0  0
 14 17  1  0  0  0  0
 17 18  1  0  0  0  0
 17 19  1  0  0  0  0
 17 20  1  0  0  0  0
 20 21  1  0  0  0  0
 20 22  1  0  0  0  0
 22 23  1  0  0  0  0
 22 24  1  0  0  0  0
 22 25  1  0  0  0  0
 20 26  1  0  0  0  0
 26 27  1  0  0  0  0
 26 28  1  0  0  0  0
 26 29  1  0  0  0  0
M  END
> <VConfSearch Rank>
80

> <Conf_Id>
117

> <Delta U+W>
3.377

> <U+W>
-24.449

> <U>
27.947

> <W>
-52.396

> <W(PB)>
-54.842

> <W(SA)>
2.447

> <Valence>
6.731

> <Coulomb>
20.067

> <VdW>
1.149

> <VdW6>
-10.427

> <VdW12>
11.575

> <Bond>
0.324

> <Angle>
1.943

> <Pdih>
4.465

> <Idih>
0.000

> <Tether>
0.000

$$$$
VeraChem MOL file


 29 28  0  0  0  0  0  0  0  0999 V2000     
   18.7831   22.0470   27.2471 C   0  0  0  0  0  0  0  0  0  0  0  0
   19.6257   21.6669   27.8393 H   0  0  0  0  0  0  0  0  0  0  0  0
   19.1071   22.9666   26.7424 H   0  0  0  0  0  0  0  0  0  0  0  0
   17.9747   22.3105   27.9414 H   0  0  0  0  0  0  0  0  0  0  0  0
   18.3029   20.9939   26.2262 C   0  0  0  0  0  0  0  0  0  0  0  0
   17.4394   21.3895   25.6731 H   0  0  0  0  0  0  0  0  0  0  0  0
   17.9541   20.0997   26.7615 H   0  0  0  0  0  0  0  0  0  0  0  0
   19.4229   20.6052   25.2359 C   0  0  0  0  0  0  0  0  0  0  0  0
   19.7698   21.5024   24.7049 H   0  0  0  0  0  0  0  0  0  0  0  0
   20.2845   20.2126   25.7935 H   0  0  0  0  0  0  0  0  0  0  0  0
   18.9457   19.5507   24.2119 C   0  0  0  0  0  0  0  0  0  0  0  0
   18.0832   19.9441   23.6561 H   0  0  0  0  0  0  0  0  0  0  0  0
   18.5991   18.6537   24.7437 H   0  0  0  0  0  0  0  0  0  0  0  0
   20.0662   19.1626   23.2210 C   0  0  0  0  0  0  0  0  0  0  0  0
   20.4097   20.0596   22.6871 H   0  0  0  0  0  0  0  0  0  0  0  0
   20.9263   18.7767   23.7841 H   0  0  0  0  0  0  0  0  0  0  0  0
   19.5859   18.1054   22.1972 C   0  0  0  0  0  0  0  0  0  0  0  0
   18.6937   18.4883   21.6839 H   0  0  0  0  0  0  0  0  0  0  0  0
   19.2773   17.1922   22.7233 H   0  0  0  0  0  0  0  0  0  0  0  0
   20.6575   17.7594   21.1408 C   0  0  2  0  0  0  0  0  0  0  0  0
   20.9655   18.6868   20.6482 H   0  0  0  0  0  0  0  0  0  0  0  0
   20.0733   16.8179   20.0756 C   0  0  0  0  0  0  0  0  0  0  0  0
   20.8188   16.5970   19.3017 H   0  0  0  0  0  0  0  0  0  0  0  0
   19.7496   15.8682   20.5196 H   0  0  0  0  0  0  0  0  0  0  0  0
   19.2076   17.2770   19.5820 H   0  0  0  0  0  0  0  0  0  0  0  0
   21.8954   17.1611   21.7510 N   0  3  0  0  0  0  0  0  0  0  0  0
   22.3212   17.7964   22.4313 H   0  0  0  0  0  0  0  0  0  0  0  0
   22.6021   16.9564   21.0387 H   0  0  0  0  0  0  0  0  0  0  0  0
   21.6859   16.2845   22.2361 H   0  0  0  0  0  0  0  0  0  0  0  0
  1  2  1  0  0  0  0
  1  3  1  0  0  0  0
  1  4  1  0  0  0  0
  1  5  1  0  0  0  0
  5  6  1  0  0  0  0
  5  7  1  0  0  0  0
  5  8  1  0  0  0  0
  8  9  1  0  0  0  0
  8 10  1  0  0  0  0
  8 11  1  0  0  0  0
 11 12  1  0  0  0  0
 11 13  1  0  0  0  0
 11 14  1  0  0  0  0
 14 15  1  0  0  0  0
 14 16  1  0  0  0  0
 14 17  1  0  0  0  0
 17 18  1  0  0  0  0
 17 19  1  0  0  0  0
 17 20  1  0  0  0  0
 20 21  1  0  0  0  0
 20 22  1  0  0  0  0
 22 23  1  0  0  0  0
 22 24  1  0  0  0  0
 22 25  1  0  0  0  0
 20 26  1  0  0  0  0
 26 27  1  0  0  0  0
 26 28  1  0  0  0  0
 26 29  1  0  0  0  0
M  END
> <VConfSearch Rank>
81

> <Conf_Id>
164

> <Delta U+W>
0.000

> <U+W>
-27.826

> <U>
23.963

> <W>
-51.789

> <W(PB)>
-54.342

> <W(SA)>
2.554

> <Valence>
3.166

> <Coulomb>
19.734

> <VdW>
1.062

> <VdW6>
-7.938

> <VdW12>
9.001

> <Bond>
0.188

> <Angle>
0.880

> <Pdih>
2.098

> <Idih>
0.000

> <Tether>
0.000

$$$$
VeraChem MOL file


 29 28  0  0  0  0  0  0  0  0999 V2000     
   22.1837   20.3431   27.5508 C   0  0  0  0  0  0  0  0  0  0  0  0
   22.4267   21.3582   27.2106 H   0  0  0  0  0  0  0  0  0  0  0  0
   21.2634   20.3934   28.1472 H   0  0  0  0  0  0  0  0  0  0  0  0
   22.9943   20.0054   28.2097 H   0  0  0  0  0  0  0  0  0  0  0  0
   22.0177   19.3821   26.3547 C   0  0  0  0  0  0  0  0  0  0  0  0
   21.8090   18.3693   26.7269 H   0  0  0  0  0  0  0  0  0  0  0  0
   22.9635   19.3266   25.7976 H   0  0  0  0  0  0  0  0  0  0  0  0
   20.8821   19.8350   25.4106 C   0  0  0  0  0  0  0  0  0  0  0  0
   19.9395   19.8912   25.9725 H   0  0  0  0  0  0  0  0  0  0  0  0
   21.0940   20.8485   25.0429 H   0  0  0  0  0  0  0  0  0  0  0  0
   20.7128   18.8750   24.2115 C   0  0  0  0  0  0  0  0  0  0  0  0
   20.5006   17.8617   24.5800 H   0  0  0  0  0  0  0  0  0  0  0  0
   21.6566   18.8188   23.6515 H   0  0  0  0  0  0  0  0  0  0  0  0
   19.5768   19.3289   23.2670 C   0  0  0  0  0  0  0  0  0  0  0  0
   18.6410   19.3899   23.8379 H   0  0  0  0  0  0  0  0  0  0  0  0
   19.7917   20.3401   22.8946 H   0  0  0  0  0  0  0  0  0  0  0  0
   19.4062   18.3627   22.0689 C   0  0  0  0  0  0  0  0  0  0  0  0
   19.1268   17.3655   22.4341 H   0  0  0  0  0  0  0  0  0  0  0  0
   20.3777   18.2504   21.5697 H   0  0  0  0  0  0  0  0  0  0  0  0
   18.3727   18.8422   21.0242 C   0  0  2  0  0  0  0  0  0  0  0  0
   18.6485   19.8527   20.7072 H   0  0  0  0  0  0  0  0  0  0  0  0
   16.9445   18.8839   21.5969 C   0  0  0  0  0  0  0  0  0  0  0  0
   16.6449   17.9035   21.9877 H   0  0  0  0  0  0  0  0  0  0  0  0
   16.8607   19.6175   22.4070 H   0  0  0  0  0  0  0  0  0  0  0  0
   16.2257   19.1748   20.8211 H   0  0  0  0  0  0  0  0  0  0  0  0
   18.4125   17.9849   19.7898 N   0  3  0  0  0  0  0  0  0  0  0  0
   17.7574   18.3225   19.0788 H   0  0  0  0  0  0  0  0  0  0  0  0
   18.1622   17.0149   19.9999 H   0  0  0  0  0  0  0  0  0  0  0  0
   19.3447   17.9774   19.3658 H   0  0  0  0  0  0  0  0  0  0  0  0
  1  2  1  0  0  0  0
  1  3  1  0  0  0  0
  1  4  1  0  0  0  0
  1  5  1  0  0  0  0
  5  6  1  0  0  0  0
  5  7  1  0  0  0  0
  5  8  1  0  0  0  0
  8  9  1  0  0  0  0
  8 10  1  0  0  0  0
  8 11  1  0  0  0  0
 11 12  1  0  0  0  0
 11 13  1  0  0  0  0
 11 14  1  0  0  0  0
 14 15  1  0  0  0  0
 14 16  1  0  0  0  0
 14 17  1  0  0  0  0
 17 18  1  0  0  0  0
 17 19  1  0  0  0  0
 17 20  1  0  0  0  0
 20 21  1  0  0  0  0
 20 22  1  0  0  0  0
 22 23  1  0  0  0  0
 22 24  1  0  0  0  0
 22 25  1  0  0  0  0
 20 26  1  0  0  0  0
 26 27  1  0  0  0  0
 26 28  1  0  0  0  0
 26 29  1  0  0  0  0
M  END
> <VConfSearch Rank>
82

> <Conf_Id>
58

> <Delta U+W>
0.412

> <U+W>
-27.414

> <U>
24.279

> <W>
-51.694

> <W(PB)>
-54.271

> <W(SA)>
2.577

> <Valence>
3.709

> <Coulomb>
19.380

> <VdW>
1.191

> <VdW6>
-8.093

> <VdW12>
9.284

> <Bond>
0.200

> <Angle>
1.161

> <Pdih>
2.348

> <Idih>
0.000

> <Tether>
0.000

$$$$
VeraChem MOL file


 29 28  0  0  0  0  0  0  0  0999 V2000     
   19.5181   20.5123   27.9678 C   0  0  0  0  0  0  0  0  0  0  0  0
   20.3528   21.2143   27.8421 H   0  0  0  0  0  0  0  0  0  0  0  0
   18.5818   21.0611   27.8019 H   0  0  0  0  0  0  0  0  0  0  0  0
   19.5246   20.1637   29.0087 H   0  0  0  0  0  0  0  0  0  0  0  0
   19.6432   19.3219   26.9936 C   0  0  0  0  0  0  0  0  0  0  0  0
   18.8143   18.6211   27.1658 H   0  0  0  0  0  0  0  0  0  0  0  0
   20.5716   18.7732   27.2057 H   0  0  0  0  0  0  0  0  0  0  0  0
   19.6366   19.7855   25.5202 C   0  0  0  0  0  0  0  0  0  0  0  0
   18.7078   20.3351   25.3135 H   0  0  0  0  0  0  0  0  0  0  0  0
   20.4653   20.4875   25.3536 H   0  0  0  0  0  0  0  0  0  0  0  0
   19.7620   18.5960   24.5417 C   0  0  0  0  0  0  0  0  0  0  0  0
   18.9332   17.8944   24.7098 H   0  0  0  0  0  0  0  0  0  0  0  0
   20.6908   18.0468   24.7495 H   0  0  0  0  0  0  0  0  0  0  0  0
   19.7555   19.0601   23.0676 C   0  0  0  0  0  0  0  0  0  0  0  0
   18.8260   19.6091   22.8671 H   0  0  0  0  0  0  0  0  0  0  0  0
   20.5835   19.7639   22.9111 H   0  0  0  0  0  0  0  0  0  0  0  0
   19.8851   17.8624   22.0909 C   0  0  0  0  0  0  0  0  0  0  0  0
   19.0797   17.1440   22.2927 H   0  0  0  0  0  0  0  0  0  0  0  0
   20.8232   17.3289   22.2934 H   0  0  0  0  0  0  0  0  0  0  0  0
   19.8405   18.2371   20.5906 C   0  0  2  0  0  0  0  0  0  0  0  0
   19.9103   17.3054   20.0207 H   0  0  0  0  0  0  0  0  0  0  0  0
   21.0291   19.1236   20.1798 C   0  0  0  0  0  0  0  0  0  0  0  0
   21.0475   19.2597   19.0915 H   0  0  0  0  0  0  0  0  0  0  0  0
   20.9727   20.1171   20.6403 H   0  0  0  0  0  0  0  0  0  0  0  0
   21.9799   18.6616   20.4732 H   0  0  0  0  0  0  0  0  0  0  0  0
   18.5348   18.8702   20.1957 N   0  3  0  0  0  0  0  0  0  0  0  0
   17.7402   18.2664   20.4255 H   0  0  0  0  0  0  0  0  0  0  0  0
   18.4980   19.0550   19.1892 H   0  0  0  0  0  0  0  0  0  0  0  0
   18.3942   19.7619   20.6771 H   0  0  0  0  0  0  0  0  0  0  0  0
  1  2  1  0  0  0  0
  1  3  1  0  0  0  0
  1  4  1  0  0  0  0
  1  5  1  0  0  0  0
  5  6  1  0  0  0  0
  5  7  1  0  0  0  0
  5  8  1  0  0  0  0
  8  9  1  0  0  0  0
  8 10  1  0  0  0  0
  8 11  1  0  0  0  0
 11 12  1  0  0  0  0
 11 13  1  0  0  0  0
 11 14  1  0  0  0  0
 14 15  1  0  0  0  0
 14 16  1  0  0  0  0
 14 17  1  0  0  0  0
 17 18  1  0  0  0  0
 17 19  1  0  0  0  0
 17 20  1  0  0  0  0
 20 21  1  0  0  0  0
 20 22  1  0  0  0  0
 22 23  1  0  0  0  0
 22 24  1  0  0  0  0
 22 25  1  0  0  0  0
 20 26  1  0  0  0  0
 26 27  1  0  0  0  0
 26 28  1  0  0  0  0
 26 29  1  0  0  0  0
M  END
> <VConfSearch Rank>
83

> <Conf_Id>
137

> <Delta U+W>
0.280

> <U+W>
-27.546

> <U>
24.513

> <W>
-52.059

> <W(PB)>
-54.556

> <W(SA)>
2.497

> <Valence>
3.677

> <Coulomb>
19.662

> <VdW>
1.174

> <VdW6>
-8.569

> <VdW12>
9.743

> <Bond>
0.224

> <Angle>
1.211

> <Pdih>
2.243

> <Idih>
0.000

> <Tether>
0.000

$$$$
VeraChem MOL file


 29 28  0  0  0  0  0  0  0  0999 V2000     
   21.6423   15.1085   23.2860 C   0  0  0  0  0  0  0  0  0  0  0  0
   22.1821   15.5746   22.4514 H   0  0  0  0  0  0  0  0  0  0  0  0
   22.2399   15.2425   24.1972 H   0  0  0  0  0  0  0  0  0  0  0  0
   21.5733   14.0318   23.0834 H   0  0  0  0  0  0  0  0  0  0  0  0
   20.2362   15.7233   23.4497 C   0  0  0  0  0  0  0  0  0  0  0  0
   19.7089   15.2135   24.2682 H   0  0  0  0  0  0  0  0  0  0  0  0
   19.6516   15.5451   22.5362 H   0  0  0  0  0  0  0  0  0  0  0  0
   20.3048   17.2396   23.7369 C   0  0  0  0  0  0  0  0  0  0  0  0
   20.8878   17.4122   24.6520 H   0  0  0  0  0  0  0  0  0  0  0  0
   20.8422   17.7334   22.9172 H   0  0  0  0  0  0  0  0  0  0  0  0
   18.8946   17.8574   23.8968 C   0  0  0  0  0  0  0  0  0  0  0  0
   18.3443   17.2926   24.6621 H   0  0  0  0  0  0  0  0  0  0  0  0
   18.3293   17.7399   22.9619 H   0  0  0  0  0  0  0  0  0  0  0  0
   18.9105   19.3499   24.3100 C   0  0  0  0  0  0  0  0  0  0  0  0
   17.8790   19.6445   24.5413 H   0  0  0  0  0  0  0  0  0  0  0  0
   19.4826   19.4676   25.2407 H   0  0  0  0  0  0  0  0  0  0  0  0
   19.4869   20.2893   23.2186 C   0  0  0  0  0  0  0  0  0  0  0  0
   18.9086   20.1795   22.2917 H   0  0  0  0  0  0  0  0  0  0  0  0
   20.5124   19.9791   22.9851 H   0  0  0  0  0  0  0  0  0  0  0  0
   19.5238   21.7780   23.6348 C   0  0  2  0  0  0  0  0  0  0  0  0
   20.0514   21.8544   24.5905 H   0  0  0  0  0  0  0  0  0  0  0  0
   18.1136   22.3709   23.8067 C   0  0  0  0  0  0  0  0  0  0  0  0
   17.5201   22.2552   22.8912 H   0  0  0  0  0  0  0  0  0  0  0  0
   17.5742   21.8887   24.6298 H   0  0  0  0  0  0  0  0  0  0  0  0
   18.1708   23.4410   24.0413 H   0  0  0  0  0  0  0  0  0  0  0  0
   20.3119   22.5958   22.6495 N   0  3  0  0  0  0  0  0  0  0  0  0
   21.2701   22.2479   22.5513 H   0  0  0  0  0  0  0  0  0  0  0  0
   20.3723   23.5757   22.9409 H   0  0  0  0  0  0  0  0  0  0  0  0
   19.8816   22.5793   21.7209 H   0  0  0  0  0  0  0  0  0  0  0  0
  1  2  1  0  0  0  0
  1  3  1  0  0  0  0
  1  4  1  0  0  0  0
  1  5  1  0  0  0  0
  5  6  1  0  0  0  0
  5  7  1  0  0  0  0
  5  8  1  0  0  0  0
  8  9  1  0  0  0  0
  8 10  1  0  0  0  0
  8 11  1  0  0  0  0
 11 12  1  0  0  0  0
 11 13  1  0  0  0  0
 11 14  1  0  0  0  0
 14 15  1  0  0  0  0
 14 16  1  0  0  0  0
 14 17  1  0  0  0  0
 17 18  1  0  0  0  0
 17 19  1  0  0  0  0
 17 20  1  0  0  0  0
 20 21  1  0  0  0  0
 20 22  1  0  0  0  0
 22 23  1  0  0  0  0
 22 24  1  0  0  0  0
 22 25  1  0  0  0  0
 20 26  1  0  0  0  0
 26 27  1  0  0  0  0
 26 28  1  0  0  0  0
 26 29  1  0  0  0  0
M  END
> <VConfSearch Rank>
84

> <Conf_Id>
40

> <Delta U+W>
1.128

> <U+W>
-26.698

> <U>
25.442

> <W>
-52.140

> <W(PB)>
-54.658

> <W(SA)>
2.519

> <Valence>
4.343

> <Coulomb>
19.740

> <VdW>
1.360

> <VdW6>
-8.739

> <VdW12>
10.099

> <Bond>
0.251

> <Angle>
1.483

> <Pdih>
2.608

> <Idih>
0.000

> <Tether>
0.000

$$$$
VeraChem MOL file


 29 28  0  0  0  0  0  0  0  0999 V2000     
   18.8960   15.5583   21.1710 C   0  0  0  0  0  0  0  0  0  0  0  0
   17.8915   15.9589   21.3541 H   0  0  0  0  0  0  0  0  0  0  0  0
   19.2785   15.9987   20.2410 H   0  0  0  0  0  0  0  0  0  0  0  0
   18.7951   14.4767   21.0133 H   0  0  0  0  0  0  0  0  0  0  0  0
   19.8480   15.8450   22.3544 C   0  0  0  0  0  0  0  0  0  0  0  0
   20.7951   15.3153   22.1805 H   0  0  0  0  0  0  0  0  0  0  0  0
   19.4267   15.4256   23.2787 H   0  0  0  0  0  0  0  0  0  0  0  0
   20.1521   17.3498   22.5530 C   0  0  0  0  0  0  0  0  0  0  0  0
   20.9357   17.4376   23.3161 H   0  0  0  0  0  0  0  0  0  0  0  0
   20.5730   17.7638   21.6265 H   0  0  0  0  0  0  0  0  0  0  0  0
   18.9136   18.1777   22.9814 C   0  0  0  0  0  0  0  0  0  0  0  0
   18.4959   17.7675   23.9111 H   0  0  0  0  0  0  0  0  0  0  0  0
   18.1293   18.0779   22.2203 H   0  0  0  0  0  0  0  0  0  0  0  0
   19.2080   19.6871   23.1659 C   0  0  0  0  0  0  0  0  0  0  0  0
   19.6440   20.0919   22.2420 H   0  0  0  0  0  0  0  0  0  0  0  0
   18.2493   20.2031   23.3067 H   0  0  0  0  0  0  0  0  0  0  0  0
   20.1413   19.9967   24.3649 C   0  0  0  0  0  0  0  0  0  0  0  0
   21.1087   19.5038   24.2099 H   0  0  0  0  0  0  0  0  0  0  0  0
   19.7166   19.5745   25.2853 H   0  0  0  0  0  0  0  0  0  0  0  0
   20.3935   21.5083   24.5563 C   0  0  2  0  0  0  0  0  0  0  0  0
   20.7809   21.9131   23.6163 H   0  0  0  0  0  0  0  0  0  0  0  0
   21.4467   21.7397   25.6517 C   0  0  0  0  0  0  0  0  0  0  0  0
   21.6564   22.8100   25.7689 H   0  0  0  0  0  0  0  0  0  0  0  0
   21.1055   21.3501   26.6191 H   0  0  0  0  0  0  0  0  0  0  0  0
   22.3907   21.2420   25.3967 H   0  0  0  0  0  0  0  0  0  0  0  0
   19.1341   22.2691   24.8699 N   0  3  0  0  0  0  0  0  0  0  0  0
   18.7079   21.9418   25.7410 H   0  0  0  0  0  0  0  0  0  0  0  0
   18.4383   22.1633   24.1268 H   0  0  0  0  0  0  0  0  0  0  0  0
   19.3189   23.2707   24.9761 H   0  0  0  0  0  0  0  0  0  0  0  0
  1  2  1  0  0  0  0
  1  3  1  0  0  0  0
  1  4  1  0  0  0  0
  1  5  1  0  0  0  0
  5  6  1  0  0  0  0
  5  7  1  0  0  0  0
  5  8  1  0  0  0  0
  8  9  1  0  0  0  0
  8 10  1  0  0  0  0
  8 11  1  0  0  0  0
 11 12  1  0  0  0  0
 11 13  1  0  0  0  0
 11 14  1  0  0  0  0
 14 15  1  0  0  0  0
 14 16  1  0  0  0  0
 14 17  1  0  0  0  0
 17 18  1  0  0  0  0
 17 19  1  0  0  0  0
 17 20  1  0  0  0  0
 20 21  1  0  0  0  0
 20 22  1  0  0  0  0
 22 23  1  0  0  0  0
 22 24  1  0  0  0  0
 22 25  1  0  0  0  0
 20 26  1  0  0  0  0
 26 27  1  0  0  0  0
 26 28  1  0  0  0  0
 26 29  1  0  0  0  0
M  END
> <VConfSearch Rank>
85

> <Conf_Id>
134

> <Delta U+W>
1.228

> <U+W>
-26.598

> <U>
25.451

> <W>
-52.048

> <W(PB)>
-54.539

> <W(SA)>
2.490

> <Valence>
4.319

> <Coulomb>
19.732

> <VdW>
1.400

> <VdW6>
-9.173

> <VdW12>
10.573

> <Bond>
0.281

> <Angle>
1.459

> <Pdih>
2.580

> <Idih>
0.000

> <Tether>
0.000

$$$$
VeraChem MOL file


 29 28  0  0  0  0  0  0  0  0999 V2000     
   17.7309   16.3690   26.1759 C   0  0  0  0  0  0  0  0  0  0  0  0
   18.4108   16.8400   26.8965 H   0  0  0  0  0  0  0  0  0  0  0  0
   16.8158   16.9726   26.1200 H   0  0  0  0  0  0  0  0  0  0  0  0
   17.4590   15.3836   26.5758 H   0  0  0  0  0  0  0  0  0  0  0  0
   18.3875   16.2247   24.7841 C   0  0  0  0  0  0  0  0  0  0  0  0
   17.7202   15.6358   24.1394 H   0  0  0  0  0  0  0  0  0  0  0  0
   19.3184   15.6473   24.8719 H   0  0  0  0  0  0  0  0  0  0  0  0
   18.6747   17.5796   24.0928 C   0  0  0  0  0  0  0  0  0  0  0  0
   19.0086   17.3727   23.0680 H   0  0  0  0  0  0  0  0  0  0  0  0
   17.7409   18.1518   24.0057 H   0  0  0  0  0  0  0  0  0  0  0  0
   19.7439   18.4305   24.8241 C   0  0  0  0  0  0  0  0  0  0  0  0
   20.6781   17.8586   24.9098 H   0  0  0  0  0  0  0  0  0  0  0  0
   19.4107   18.6332   25.8500 H   0  0  0  0  0  0  0  0  0  0  0  0
   20.0274   19.7889   24.1365 C   0  0  0  0  0  0  0  0  0  0  0  0
   19.0912   20.3588   24.0699 H   0  0  0  0  0  0  0  0  0  0  0  0
   20.7006   20.3708   24.7812 H   0  0  0  0  0  0  0  0  0  0  0  0
   20.6713   19.6496   22.7328 C   0  0  0  0  0  0  0  0  0  0  0  0
   19.9567   19.1998   22.0322 H   0  0  0  0  0  0  0  0  0  0  0  0
   21.5200   18.9567   22.8038 H   0  0  0  0  0  0  0  0  0  0  0  0
   21.1793   20.9883   22.1510 C   0  0  2  0  0  0  0  0  0  0  0  0
   21.8634   21.4400   22.8759 H   0  0  0  0  0  0  0  0  0  0  0  0
   20.0298   21.9765   21.8843 C   0  0  0  0  0  0  0  0  0  0  0  0
   19.2842   21.5441   21.2055 H   0  0  0  0  0  0  0  0  0  0  0  0
   19.5242   22.2601   22.8147 H   0  0  0  0  0  0  0  0  0  0  0  0
   20.4109   22.8985   21.4282 H   0  0  0  0  0  0  0  0  0  0  0  0
   21.9771   20.7667   20.8960 N   0  3  0  0  0  0  0  0  0  0  0  0
   22.7740   20.1449   21.0607 H   0  0  0  0  0  0  0  0  0  0  0  0
   22.3489   21.6475   20.5291 H   0  0  0  0  0  0  0  0  0  0  0  0
   21.4054   20.3458   20.1587 H   0  0  0  0  0  0  0  0  0  0  0  0
  1  2  1  0  0  0  0
  1  3  1  0  0  0  0
  1  4  1  0  0  0  0
  1  5  1  0  0  0  0
  5  6  1  0  0  0  0
  5  7  1  0  0  0  0
  5  8  1  0  0  0  0
  8  9  1  0  0  0  0
  8 10  1  0  0  0  0
  8 11  1  0  0  0  0
 11 12  1  0  0  0  0
 11 13  1  0  0  0  0
 11 14  1  0  0  0  0
 14 15  1  0  0  0  0
 14 16  1  0  0  0  0
 14 17  1  0  0  0  0
 17 18  1  0  0  0  0
 17 19  1  0  0  0  0
 17 20  1  0  0  0  0
 20 21  1  0  0  0  0
 20 22  1  0  0  0  0
 22 23  1  0  0  0  0
 22 24  1  0  0  0  0
 22 25  1  0  0  0  0
 20 26  1  0  0  0  0
 26 27  1  0  0  0  0
 26 28  1  0  0  0  0
 26 29  1  0  0  0  0
M  END
> <VConfSearch Rank>
86

> <Conf_Id>
73

> <Delta U+W>
1.580

> <U+W>
-26.246

> <U>
25.821

> <W>
-52.067

> <W(PB)>
-54.581

> <W(SA)>
2.514

> <Valence>
4.779

> <Coulomb>
19.614

> <VdW>
1.428

> <VdW6>
-9.390

> <VdW12>
10.818

> <Bond>
0.283

> <Angle>
1.640

> <Pdih>
2.856

> <Idih>
0.000

> <Tether>
0.000

$$$$
VeraChem MOL file


 29 28  0  0  0  0  0  0  0  0999 V2000     
   17.3553   20.7968   20.2205 C   0  0  0  0  0  0  0  0  0  0  0  0
   17.3965   21.6918   20.8550 H   0  0  0  0  0  0  0  0  0  0  0  0
   17.2523   21.1269   19.1786 H   0  0  0  0  0  0  0  0  0  0  0  0
   16.4528   20.2308   20.4856 H   0  0  0  0  0  0  0  0  0  0  0  0
   18.6227   19.9337   20.3958 C   0  0  0  0  0  0  0  0  0  0  0  0
   19.5047   20.5149   20.0922 H   0  0  0  0  0  0  0  0  0  0  0  0
   18.5680   19.0659   19.7236 H   0  0  0  0  0  0  0  0  0  0  0  0
   18.7912   19.4547   21.8546 C   0  0  0  0  0  0  0  0  0  0  0  0
   18.8341   20.3306   22.5148 H   0  0  0  0  0  0  0  0  0  0  0  0
   17.9085   18.8721   22.1524 H   0  0  0  0  0  0  0  0  0  0  0  0
   20.0646   18.5930   22.0320 C   0  0  0  0  0  0  0  0  0  0  0  0
   20.9542   19.1916   21.7918 H   0  0  0  0  0  0  0  0  0  0  0  0
   20.0416   17.7700   21.3043 H   0  0  0  0  0  0  0  0  0  0  0  0
   20.2139   17.9872   23.4495 C   0  0  0  0  0  0  0  0  0  0  0  0
   19.3252   17.3864   23.6875 H   0  0  0  0  0  0  0  0  0  0  0  0
   21.0623   17.2907   23.4324 H   0  0  0  0  0  0  0  0  0  0  0  0
   20.4381   19.0496   24.5564 C   0  0  0  0  0  0  0  0  0  0  0  0
   19.5768   19.7281   24.5879 H   0  0  0  0  0  0  0  0  0  0  0  0
   21.3143   19.6639   24.3101 H   0  0  0  0  0  0  0  0  0  0  0  0
   20.6178   18.4286   25.9588 C   0  0  2  0  0  0  0  0  0  0  0  0
   19.7513   17.7932   26.1662 H   0  0  0  0  0  0  0  0  0  0  0  0
   20.6744   19.5314   27.0281 C   0  0  0  0  0  0  0  0  0  0  0  0
   19.7600   20.1375   27.0122 H   0  0  0  0  0  0  0  0  0  0  0  0
   20.7670   19.0958   28.0307 H   0  0  0  0  0  0  0  0  0  0  0  0
   21.5298   20.1989   26.8650 H   0  0  0  0  0  0  0  0  0  0  0  0
   21.8336   17.5471   26.0489 N   0  3  0  0  0  0  0  0  0  0  0  0
   21.9259   17.1313   26.9801 H   0  0  0  0  0  0  0  0  0  0  0  0
   22.6909   18.0740   25.8619 H   0  0  0  0  0  0  0  0  0  0  0  0
   21.7897   16.7791   25.3737 H   0  0  0  0  0  0  0  0  0  0  0  0
  1  2  1  0  0  0  0
  1  3  1  0  0  0  0
  1  4  1  0  0  0  0
  1  5  1  0  0  0  0
  5  6  1  0  0  0  0
  5  7  1  0  0  0  0
  5  8  1  0  0  0  0
  8  9  1  0  0  0  0
  8 10  1  0  0  0  0
  8 11  1  0  0  0  0
 11 12  1  0  0  0  0
 11 13  1  0  0  0  0
 11 14  1  0  0  0  0
 14 15  1  0  0  0  0
 14 16  1  0  0  0  0
 14 17  1  0  0  0  0
 17 18  1  0  0  0  0
 17 19  1  0  0  0  0
 17 20  1  0  0  0  0
 20 21  1  0  0  0  0
 20 22  1  0  0  0  0
 22 23  1  0  0  0  0
 22 24  1  0  0  0  0
 22 25  1  0  0  0  0
 20 26  1  0  0  0  0
 26 27  1  0  0  0  0
 26 28  1  0  0  0  0
 26 29  1  0  0  0  0
M  END
> <VConfSearch Rank>
87

> <Conf_Id>
111

> <Delta U+W>
0.580

> <U+W>
-27.246

> <U>
24.710

> <W>
-51.957

> <W(PB)>
-54.511

> <W(SA)>
2.555

> <Valence>
3.735

> <Coulomb>
19.760

> <VdW>
1.216

> <VdW6>
-8.624

> <VdW12>
9.840

> <Bond>
0.236

> <Angle>
1.168

> <Pdih>
2.330

> <Idih>
0.000

> <Tether>
0.000

$$$$
VeraChem MOL file


 29 28  0  0  0  0  0  0  0  0999 V2000     
   15.6838   18.9499   25.1931 C   0  0  0  0  0  0  0  0  0  0  0  0
   15.7662   17.8771   25.4110 H   0  0  0  0  0  0  0  0  0  0  0  0
   16.1757   19.5025   26.0043 H   0  0  0  0  0  0  0  0  0  0  0  0
   14.6186   19.2150   25.2023 H   0  0  0  0  0  0  0  0  0  0  0  0
   16.3177   19.2886   23.8273 C   0  0  0  0  0  0  0  0  0  0  0  0
   16.1909   20.3608   23.6222 H   0  0  0  0  0  0  0  0  0  0  0  0
   15.7829   18.7484   23.0336 H   0  0  0  0  0  0  0  0  0  0  0  0
   17.8183   18.9242   23.7872 C   0  0  0  0  0  0  0  0  0  0  0  0
   18.3390   19.4629   24.5896 H   0  0  0  0  0  0  0  0  0  0  0  0
   17.9398   17.8514   23.9909 H   0  0  0  0  0  0  0  0  0  0  0  0
   18.4559   19.2671   22.4194 C   0  0  0  0  0  0  0  0  0  0  0  0
   18.3820   20.3480   22.2366 H   0  0  0  0  0  0  0  0  0  0  0  0
   17.8776   18.7795   21.6224 H   0  0  0  0  0  0  0  0  0  0  0  0
   19.9332   18.8195   22.2977 C   0  0  0  0  0  0  0  0  0  0  0  0
   19.9920   17.7338   22.4505 H   0  0  0  0  0  0  0  0  0  0  0  0
   20.2710   19.0080   21.2692 H   0  0  0  0  0  0  0  0  0  0  0  0
   20.8814   19.5510   23.2825 C   0  0  0  0  0  0  0  0  0  0  0  0
   20.6466   19.2643   24.3153 H   0  0  0  0  0  0  0  0  0  0  0  0
   20.6989   20.6311   23.2074 H   0  0  0  0  0  0  0  0  0  0  0  0
   22.3796   19.2872   23.0089 C   0  0  2  0  0  0  0  0  0  0  0  0
   22.5886   19.5448   21.9661 H   0  0  0  0  0  0  0  0  0  0  0  0
   22.7574   17.8118   23.2316 C   0  0  0  0  0  0  0  0  0  0  0  0
   22.5104   17.4884   24.2505 H   0  0  0  0  0  0  0  0  0  0  0  0
   22.2344   17.1557   22.5263 H   0  0  0  0  0  0  0  0  0  0  0  0
   23.8331   17.6611   23.0782 H   0  0  0  0  0  0  0  0  0  0  0  0
   23.2500   20.1800   23.8489 N   0  3  0  0  0  0  0  0  0  0  0  0
   23.0450   21.1698   23.6843 H   0  0  0  0  0  0  0  0  0  0  0  0
   24.2427   20.0363   23.6420 H   0  0  0  0  0  0  0  0  0  0  0  0
   23.1170   19.9999   24.8477 H   0  0  0  0  0  0  0  0  0  0  0  0
  1  2  1  0  0  0  0
  1  3  1  0  0  0  0
  1  4  1  0  0  0  0
  1  5  1  0  0  0  0
  5  6  1  0  0  0  0
  5  7  1  0  0  0  0
  5  8  1  0  0  0  0
  8  9  1  0  0  0  0
  8 10  1  0  0  0  0
  8 11  1  0  0  0  0
 11 12  1  0  0  0  0
 11 13  1  0  0  0  0
 11 14  1  0  0  0  0
 14 15  1  0  0  0  0
 14 16  1  0  0  0  0
 14 17  1  0  0  0  0
 17 18  1  0  0  0  0
 17 19  1  0  0  0  0
 17 20  1  0  0  0  0
 20 21  1  0  0  0  0
 20 22  1  0  0  0  0
 22 23  1  0  0  0  0
 22 24  1  0  0  0  0
 22 25  1  0  0  0  0
 20 26  1  0  0  0  0
 26 27  1  0  0  0  0
 26 28  1  0  0  0  0
 26 29  1  0  0  0  0
M  END
> <VConfSearch Rank>
88

> <Conf_Id>
39

> <Delta U+W>
0.965

> <U+W>
-26.861

> <U>
25.129

> <W>
-51.990

> <W(PB)>
-54.526

> <W(SA)>
2.536

> <Valence>
4.206

> <Coulomb>
19.678

> <VdW>
1.245

> <VdW6>
-8.834

> <VdW12>
10.079

> <Bond>
0.240

> <Angle>
1.353

> <Pdih>
2.613

> <Idih>
0.000

> <Tether>
0.000

$$$$
VeraChem MOL file


 29 28  0  0  0  0  0  0  0  0999 V2000     
   21.6590   18.9857   27.3061 C   0  0  0  0  0  0  0  0  0  0  0  0
   20.9146   18.2680   27.6745 H   0  0  0  0  0  0  0  0  0  0  0  0
   22.3698   18.4475   26.6672 H   0  0  0  0  0  0  0  0  0  0  0  0
   22.2169   19.3648   28.1722 H   0  0  0  0  0  0  0  0  0  0  0  0
   20.9811   20.1500   26.5487 C   0  0  0  0  0  0  0  0  0  0  0  0
   21.7476   20.8351   26.1601 H   0  0  0  0  0  0  0  0  0  0  0  0
   20.3817   20.7326   27.2622 H   0  0  0  0  0  0  0  0  0  0  0  0
   20.0612   19.6841   25.3942 C   0  0  0  0  0  0  0  0  0  0  0  0
   19.2967   19.0005   25.7880 H   0  0  0  0  0  0  0  0  0  0  0  0
   19.5254   20.5628   25.0134 H   0  0  0  0  0  0  0  0  0  0  0  0
   20.8272   19.0002   24.2332 C   0  0  0  0  0  0  0  0  0  0  0  0
   21.3687   18.1267   24.6185 H   0  0  0  0  0  0  0  0  0  0  0  0
   21.5887   19.6855   23.8364 H   0  0  0  0  0  0  0  0  0  0  0  0
   19.9083   18.5219   23.0820 C   0  0  0  0  0  0  0  0  0  0  0  0
   20.5171   17.9338   22.3830 H   0  0  0  0  0  0  0  0  0  0  0  0
   19.1527   17.8363   23.4878 H   0  0  0  0  0  0  0  0  0  0  0  0
   19.2199   19.6849   22.3163 C   0  0  0  0  0  0  0  0  0  0  0  0
   19.9786   20.4194   22.0161 H   0  0  0  0  0  0  0  0  0  0  0  0
   18.5326   20.2147   22.9872 H   0  0  0  0  0  0  0  0  0  0  0  0
   18.4297   19.2549   21.0578 C   0  0  2  0  0  0  0  0  0  0  0  0
   18.0069   20.1615   20.6139 H   0  0  0  0  0  0  0  0  0  0  0  0
   17.2605   18.3162   21.4031 C   0  0  0  0  0  0  0  0  0  0  0  0
   17.6150   17.3454   21.7693 H   0  0  0  0  0  0  0  0  0  0  0  0
   16.6180   18.7609   22.1732 H   0  0  0  0  0  0  0  0  0  0  0  0
   16.6403   18.1340   20.5169 H   0  0  0  0  0  0  0  0  0  0  0  0
   19.3136   18.6489   20.0026 N   0  3  0  0  0  0  0  0  0  0  0  0
   20.0703   19.2854   19.7360 H   0  0  0  0  0  0  0  0  0  0  0  0
   18.7853   18.4286   19.1535 H   0  0  0  0  0  0  0  0  0  0  0  0
   19.7425   17.7803   20.3313 H   0  0  0  0  0  0  0  0  0  0  0  0
  1  2  1  0  0  0  0
  1  3  1  0  0  0  0
  1  4  1  0  0  0  0
  1  5  1  0  0  0  0
  5  6  1  0  0  0  0
  5  7  1  0  0  0  0
  5  8  1  0  0  0  0
  8  9  1  0  0  0  0
  8 10  1  0  0  0  0
  8 11  1  0  0  0  0
 11 12  1  0  0  0  0
 11 13  1  0  0  0  0
 11 14  1  0  0  0  0
 14 15  1  0  0  0  0
 14 16  1  0  0  0  0
 14 17  1  0  0  0  0
 17 18  1  0  0  0  0
 17 19  1  0  0  0  0
 17 20  1  0  0  0  0
 20 21  1  0  0  0  0
 20 22  1  0  0  0  0
 22 23  1  0  0  0  0
 22 24  1  0  0  0  0
 22 25  1  0  0  0  0
 20 26  1  0  0  0  0
 26 27  1  0  0  0  0
 26 28  1  0  0  0  0
 26 29  1  0  0  0  0
M  END
> <VConfSearch Rank>
89

> <Conf_Id>
155

> <Delta U+W>
1.624

> <U+W>
-26.202

> <U>
25.894

> <W>
-52.096

> <W(PB)>
-54.602

> <W(SA)>
2.506

> <Valence>
4.779

> <Coulomb>
19.659

> <VdW>
1.456

> <VdW6>
-9.843

> <VdW12>
11.299

> <Bond>
0.315

> <Angle>
1.725

> <Pdih>
2.740

> <Idih>
0.000

> <Tether>
0.000

$$$$
VeraChem MOL file


 29 28  0  0  0  0  0  0  0  0999 V2000     
   18.1148   15.7492   21.8804 C   0  0  0  0  0  0  0  0  0  0  0  0
   18.9224   15.3676   22.5174 H   0  0  0  0  0  0  0  0  0  0  0  0
   17.2912   16.0770   22.5280 H   0  0  0  0  0  0  0  0  0  0  0  0
   17.7505   14.9117   21.2715 H   0  0  0  0  0  0  0  0  0  0  0  0
   18.6034   16.9032   20.9761 C   0  0  0  0  0  0  0  0  0  0  0  0
   17.7980   17.1728   20.2786 H   0  0  0  0  0  0  0  0  0  0  0  0
   19.4432   16.5575   20.3572 H   0  0  0  0  0  0  0  0  0  0  0  0
   19.0206   18.1667   21.7665 C   0  0  0  0  0  0  0  0  0  0  0  0
   19.2565   18.9650   21.0495 H   0  0  0  0  0  0  0  0  0  0  0  0
   18.1632   18.5190   22.3545 H   0  0  0  0  0  0  0  0  0  0  0  0
   20.2438   17.9356   22.6895 C   0  0  0  0  0  0  0  0  0  0  0  0
   21.0432   17.4566   22.1076 H   0  0  0  0  0  0  0  0  0  0  0  0
   19.9828   17.2341   23.4929 H   0  0  0  0  0  0  0  0  0  0  0  0
   20.8057   19.2374   23.3127 C   0  0  0  0  0  0  0  0  0  0  0  0
   21.7404   18.9856   23.8298 H   0  0  0  0  0  0  0  0  0  0  0  0
   21.0737   19.9421   22.5135 H   0  0  0  0  0  0  0  0  0  0  0  0
   19.8285   19.9190   24.3058 C   0  0  0  0  0  0  0  0  0  0  0  0
   19.5700   19.2187   25.1111 H   0  0  0  0  0  0  0  0  0  0  0  0
   18.8932   20.1521   23.7830 H   0  0  0  0  0  0  0  0  0  0  0  0
   20.3739   21.2317   24.9138 C   0  0  2  0  0  0  0  0  0  0  0  0
   20.6807   21.8884   24.0939 H   0  0  0  0  0  0  0  0  0  0  0  0
   21.5892   20.9908   25.8274 C   0  0  0  0  0  0  0  0  0  0  0  0
   21.3486   20.2815   26.6291 H   0  0  0  0  0  0  0  0  0  0  0  0
   22.4420   20.5964   25.2634 H   0  0  0  0  0  0  0  0  0  0  0  0
   21.9156   21.9298   26.2912 H   0  0  0  0  0  0  0  0  0  0  0  0
   19.2994   21.9671   25.6657 N   0  3  0  0  0  0  0  0  0  0  0  0
   18.4970   22.1795   25.0659 H   0  0  0  0  0  0  0  0  0  0  0  0
   19.6452   22.8564   26.0376 H   0  0  0  0  0  0  0  0  0  0  0  0
   18.9549   21.4181   26.4580 H   0  0  0  0  0  0  0  0  0  0  0  0
  1  2  1  0  0  0  0
  1  3  1  0  0  0  0
  1  4  1  0  0  0  0
  1  5  1  0  0  0  0
  5  6  1  0  0  0  0
  5  7  1  0  0  0  0
  5  8  1  0  0  0  0
  8  9  1  0  0  0  0
  8 10  1  0  0  0  0
  8 11  1  0  0  0  0
 11 12  1  0  0  0  0
 11 13  1  0  0  0  0
 11 14  1  0  0  0  0
 14 15  1  0  0  0  0
 14 16  1  0  0  0  0
 14 17  1  0  0  0  0
 17 18  1  0  0  0  0
 17 19  1  0  0  0  0
 17 20  1  0  0  0  0
 20 21  1  0  0  0  0
 20 22  1  0  0  0  0
 22 23  1  0  0  0  0
 22 24  1  0  0  0  0
 22 25  1  0  0  0  0
 20 26  1  0  0  0  0
 26 27  1  0  0  0  0
 26 28  1  0  0  0  0
 26 29  1  0  0  0  0
M  END
> <VConfSearch Rank>
90

> <Conf_Id>
135

> <Delta U+W>
1.581

> <U+W>
-26.245

> <U>
25.974

> <W>
-52.219

> <W(PB)>
-54.709

> <W(SA)>
2.490

> <Valence>
4.811

> <Coulomb>
19.700

> <VdW>
1.463

> <VdW6>
-9.391

> <VdW12>
10.854

> <Bond>
0.285

> <Angle>
1.671

> <Pdih>
2.855

> <Idih>
0.000

> <Tether>
0.000

$$$$
VeraChem MOL file


 29 28  0  0  0  0  0  0  0  0999 V2000     
   18.8377   22.6709   25.3125 C   0  0  0  0  0  0  0  0  0  0  0  0
   17.8404   22.3280   25.0076 H   0  0  0  0  0  0  0  0  0  0  0  0
   19.1585   22.0731   26.1747 H   0  0  0  0  0  0  0  0  0  0  0  0
   18.7469   23.7121   25.6480 H   0  0  0  0  0  0  0  0  0  0  0  0
   19.8430   22.5649   24.1435 C   0  0  0  0  0  0  0  0  0  0  0  0
   20.8376   22.8884   24.4810 H   0  0  0  0  0  0  0  0  0  0  0  0
   19.5431   23.2669   23.3530 H   0  0  0  0  0  0  0  0  0  0  0  0
   19.9320   21.1432   23.5385 C   0  0  0  0  0  0  0  0  0  0  0  0
   18.9388   20.8438   23.1786 H   0  0  0  0  0  0  0  0  0  0  0  0
   20.5853   21.1795   22.6558 H   0  0  0  0  0  0  0  0  0  0  0  0
   20.4796   20.0871   24.5313 C   0  0  0  0  0  0  0  0  0  0  0  0
   19.7762   19.9523   25.3636 H   0  0  0  0  0  0  0  0  0  0  0  0
   21.4141   20.4602   24.9725 H   0  0  0  0  0  0  0  0  0  0  0  0
   20.7597   18.7137   23.8737 C   0  0  0  0  0  0  0  0  0  0  0  0
   21.4942   18.8454   23.0683 H   0  0  0  0  0  0  0  0  0  0  0  0
   21.2300   18.0586   24.6200 H   0  0  0  0  0  0  0  0  0  0  0  0
   19.4835   18.0233   23.3272 C   0  0  0  0  0  0  0  0  0  0  0  0
   19.0744   18.5985   22.4869 H   0  0  0  0  0  0  0  0  0  0  0  0
   18.7178   18.0299   24.1141 H   0  0  0  0  0  0  0  0  0  0  0  0
   19.7144   16.5619   22.8804 C   0  0  2  0  0  0  0  0  0  0  0  0
   20.1553   16.0125   23.7178 H   0  0  0  0  0  0  0  0  0  0  0  0
   20.6713   16.4685   21.6784 C   0  0  0  0  0  0  0  0  0  0  0  0
   20.2999   17.0552   20.8290 H   0  0  0  0  0  0  0  0  0  0  0  0
   21.6722   16.8331   21.9367 H   0  0  0  0  0  0  0  0  0  0  0  0
   20.7799   15.4271   21.3511 H   0  0  0  0  0  0  0  0  0  0  0  0
   18.4128   15.8792   22.5637 N   0  3  0  0  0  0  0  0  0  0  0  0
   18.5580   14.8989   22.3054 H   0  0  0  0  0  0  0  0  0  0  0  0
   17.9328   16.3332   21.7820 H   0  0  0  0  0  0  0  0  0  0  0  0
   17.7757   15.8915   23.3655 H   0  0  0  0  0  0  0  0  0  0  0  0
  1  2  1  0  0  0  0
  1  3  1  0  0  0  0
  1  4  1  0  0  0  0
  1  5  1  0  0  0  0
  5  6  1  0  0  0  0
  5  7  1  0  0  0  0
  5  8  1  0  0  0  0
  8  9  1  0  0  0  0
  8 10  1  0  0  0  0
  8 11  1  0  0  0  0
 11 12  1  0  0  0  0
 11 13  1  0  0  0  0
 11 14  1  0  0  0  0
 14 15  1  0  0  0  0
 14 16  1  0  0  0  0
 14 17  1  0  0  0  0
 17 18  1  0  0  0  0
 17 19  1  0  0  0  0
 17 20  1  0  0  0  0
 20 21  1  0  0  0  0
 20 22  1  0  0  0  0
 22 23  1  0  0  0  0
 22 24  1  0  0  0  0
 22 25  1  0  0  0  0
 20 26  1  0  0  0  0
 26 27  1  0  0  0  0
 26 28  1  0  0  0  0
 26 29  1  0  0  0  0
M  END
> <VConfSearch Rank>
91

> <Conf_Id>
130

> <Delta U+W>
1.359

> <U+W>
-26.467

> <U>
25.687

> <W>
-52.154

> <W(PB)>
-54.643

> <W(SA)>
2.489

> <Valence>
4.682

> <Coulomb>
19.653

> <VdW>
1.352

> <VdW6>
-9.477

> <VdW12>
10.829

> <Bond>
0.274

> <Angle>
1.550

> <Pdih>
2.858

> <Idih>
0.000

> <Tether>
0.000

$$$$
VeraChem MOL file


 29 28  0  0  0  0  0  0  0  0999 V2000     
   18.0444   15.9235   25.4556 C   0  0  0  0  0  0  0  0  0  0  0  0
   17.6237   15.5837   26.4108 H   0  0  0  0  0  0  0  0  0  0  0  0
   17.6287   15.2899   24.6613 H   0  0  0  0  0  0  0  0  0  0  0  0
   19.1282   15.7586   25.4960 H   0  0  0  0  0  0  0  0  0  0  0  0
   17.7046   17.4117   25.2143 C   0  0  0  0  0  0  0  0  0  0  0  0
   18.1593   18.0273   26.0030 H   0  0  0  0  0  0  0  0  0  0  0  0
   16.6179   17.5457   25.3082 H   0  0  0  0  0  0  0  0  0  0  0  0
   18.1497   17.9291   23.8250 C   0  0  0  0  0  0  0  0  0  0  0  0
   17.6776   17.3216   23.0408 H   0  0  0  0  0  0  0  0  0  0  0  0
   17.7607   18.9473   23.6992 H   0  0  0  0  0  0  0  0  0  0  0  0
   19.6877   17.9263   23.6309 C   0  0  0  0  0  0  0  0  0  0  0  0
   20.0542   16.8934   23.6919 H   0  0  0  0  0  0  0  0  0  0  0  0
   20.1644   18.4712   24.4546 H   0  0  0  0  0  0  0  0  0  0  0  0
   20.1298   18.5114   22.2643 C   0  0  0  0  0  0  0  0  0  0  0  0
   21.1684   18.2181   22.0576 H   0  0  0  0  0  0  0  0  0  0  0  0
   19.5302   18.0374   21.4750 H   0  0  0  0  0  0  0  0  0  0  0  0
   19.9960   20.0549   22.1428 C   0  0  0  0  0  0  0  0  0  0  0  0
   19.2017   20.4329   22.7974 H   0  0  0  0  0  0  0  0  0  0  0  0
   19.6721   20.2820   21.1186 H   0  0  0  0  0  0  0  0  0  0  0  0
   21.3053   20.8379   22.4021 C   0  0  2  0  0  0  0  0  0  0  0  0
   22.0667   20.4678   21.7086 H   0  0  0  0  0  0  0  0  0  0  0  0
   21.8321   20.6565   23.8356 C   0  0  0  0  0  0  0  0  0  0  0  0
   22.1351   19.6185   24.0149 H   0  0  0  0  0  0  0  0  0  0  0  0
   22.7153   21.2844   24.0058 H   0  0  0  0  0  0  0  0  0  0  0  0
   21.0709   20.9307   24.5765 H   0  0  0  0  0  0  0  0  0  0  0  0
   21.1296   22.2991   22.0948 N   0  3  0  0  0  0  0  0  0  0  0  0
   20.8240   22.4473   21.1286 H   0  0  0  0  0  0  0  0  0  0  0  0
   22.0051   22.8153   22.2198 H   0  0  0  0  0  0  0  0  0  0  0  0
   20.4315   22.7287   22.7079 H   0  0  0  0  0  0  0  0  0  0  0  0
  1  2  1  0  0  0  0
  1  3  1  0  0  0  0
  1  4  1  0  0  0  0
  1  5  1  0  0  0  0
  5  6  1  0  0  0  0
  5  7  1  0  0  0  0
  5  8  1  0  0  0  0
  8  9  1  0  0  0  0
  8 10  1  0  0  0  0
  8 11  1  0  0  0  0
 11 12  1  0  0  0  0
 11 13  1  0  0  0  0
 11 14  1  0  0  0  0
 14 15  1  0  0  0  0
 14 16  1  0  0  0  0
 14 17  1  0  0  0  0
 17 18  1  0  0  0  0
 17 19  1  0  0  0  0
 17 20  1  0  0  0  0
 20 21  1  0  0  0  0
 20 22  1  0  0  0  0
 22 23  1  0  0  0  0
 22 24  1  0  0  0  0
 22 25  1  0  0  0  0
 20 26  1  0  0  0  0
 26 27  1  0  0  0  0
 26 28  1  0  0  0  0
 26 29  1  0  0  0  0
M  END
> <VConfSearch Rank>
92

> <Conf_Id>
157

> <Delta U+W>
4.354

> <U+W>
-23.472

> <U>
28.780

> <W>
-52.252

> <W(PB)>
-54.715

> <W(SA)>
2.462

> <Valence>
7.566

> <Coulomb>
19.822

> <VdW>
1.392

> <VdW6>
-10.248

> <VdW12>
11.641

> <Bond>
0.340

> <Angle>
2.096

> <Pdih>
5.129

> <Idih>
0.000

> <Tether>
0.000

$$$$
VeraChem MOL file


 29 28  0  0  0  0  0  0  0  0999 V2000     
   17.8534   16.6228   25.5057 C   0  0  0  0  0  0  0  0  0  0  0  0
   17.7438   15.5440   25.6758 H   0  0  0  0  0  0  0  0  0  0  0  0
   18.9153   16.8700   25.6133 H   0  0  0  0  0  0  0  0  0  0  0  0
   17.3039   17.1428   26.3011 H   0  0  0  0  0  0  0  0  0  0  0  0
   17.3037   17.0093   24.1128 C   0  0  0  0  0  0  0  0  0  0  0  0
   16.2451   16.7166   24.0737 H   0  0  0  0  0  0  0  0  0  0  0  0
   17.8069   16.4275   23.3281 H   0  0  0  0  0  0  0  0  0  0  0  0
   17.4085   18.5264   23.8106 C   0  0  0  0  0  0  0  0  0  0  0  0
   16.5184   18.8227   23.2385 H   0  0  0  0  0  0  0  0  0  0  0  0
   17.3647   19.1037   24.7444 H   0  0  0  0  0  0  0  0  0  0  0  0
   18.6527   18.9428   22.9844 C   0  0  0  0  0  0  0  0  0  0  0  0
   18.5710   20.0174   22.7759 H   0  0  0  0  0  0  0  0  0  0  0  0
   18.6264   18.4392   22.0083 H   0  0  0  0  0  0  0  0  0  0  0  0
   20.0055   18.6475   23.6778 C   0  0  0  0  0  0  0  0  0  0  0  0
   20.0088   19.0754   24.6890 H   0  0  0  0  0  0  0  0  0  0  0  0
   20.1170   17.5627   23.8003 H   0  0  0  0  0  0  0  0  0  0  0  0
   21.2300   19.1613   22.8773 C   0  0  0  0  0  0  0  0  0  0  0  0
   21.2507   18.6576   21.9017 H   0  0  0  0  0  0  0  0  0  0  0  0
   22.1481   18.8580   23.3979 H   0  0  0  0  0  0  0  0  0  0  0  0
   21.2532   20.6904   22.6552 C   0  0  2  0  0  0  0  0  0  0  0  0
   20.3495   20.9744   22.1084 H   0  0  0  0  0  0  0  0  0  0  0  0
   22.4702   21.0886   21.8055 C   0  0  0  0  0  0  0  0  0  0  0  0
   23.4093   20.8321   22.3117 H   0  0  0  0  0  0  0  0  0  0  0  0
   22.4532   20.5750   20.8361 H   0  0  0  0  0  0  0  0  0  0  0  0
   22.4709   22.1681   21.6103 H   0  0  0  0  0  0  0  0  0  0  0  0
   21.2358   21.4582   23.9483 N   0  3  0  0  0  0  0  0  0  0  0  0
   20.4078   21.2282   24.5046 H   0  0  0  0  0  0  0  0  0  0  0  0
   21.2260   22.4689   23.7840 H   0  0  0  0  0  0  0  0  0  0  0  0
   22.0595   21.2473   24.5179 H   0  0  0  0  0  0  0  0  0  0  0  0
  1  2  1  0  0  0  0
  1  3  1  0  0  0  0
  1  4  1  0  0  0  0
  1  5  1  0  0  0  0
  5  6  1  0  0  0  0
  5  7  1  0  0  0  0
  5  8  1  0  0  0  0
  8  9  1  0  0  0  0
  8 10  1  0  0  0  0
  8 11  1  0  0  0  0
 11 12  1  0  0  0  0
 11 13  1  0  0  0  0
 11 14  1  0  0  0  0
 14 15  1  0  0  0  0
 14 16  1  0  0  0  0
 14 17  1  0  0  0  0
 17 18  1  0  0  0  0
 17 19  1  0  0  0  0
 17 20  1  0  0  0  0
 20 21  1  0  0  0  0
 20 22  1  0  0  0  0
 22 23  1  0  0  0  0
 22 24  1  0  0  0  0
 22 25  1  0  0  0  0
 20 26  1  0  0  0  0
 26 27  1  0  0  0  0
 26 28  1  0  0  0  0
 26 29  1  0  0  0  0
M  END
> <VConfSearch Rank>
93

> <Conf_Id>
158

> <Delta U+W>
3.648

> <U+W>
-24.178

> <U>
28.057

> <W>
-52.235

> <W(PB)>
-54.696

> <W(SA)>
2.460

> <Valence>
6.543

> <Coulomb>
20.387

> <VdW>
1.127

> <VdW6>
-10.342

> <VdW12>
11.469

> <Bond>
0.308

> <Angle>
1.938

> <Pdih>
4.297

> <Idih>
0.000

> <Tether>
0.000

$$$$
VeraChem MOL file


 29 28  0  0  0  0  0  0  0  0999 V2000     
   19.6038   15.9829   25.6248 C   0  0  0  0  0  0  0  0  0  0  0  0
   19.9299   15.3958   24.7564 H   0  0  0  0  0  0  0  0  0  0  0  0
   20.3464   16.7693   25.8075 H   0  0  0  0  0  0  0  0  0  0  0  0
   19.6053   15.3187   26.4987 H   0  0  0  0  0  0  0  0  0  0  0  0
   18.1939   16.5742   25.3979 C   0  0  0  0  0  0  0  0  0  0  0  0
   17.9042   17.1830   26.2658 H   0  0  0  0  0  0  0  0  0  0  0  0
   17.4690   15.7500   25.3448 H   0  0  0  0  0  0  0  0  0  0  0  0
   18.0812   17.4180   24.1054 C   0  0  0  0  0  0  0  0  0  0  0  0
   18.3546   16.7997   23.2392 H   0  0  0  0  0  0  0  0  0  0  0  0
   17.0289   17.7005   23.9638 H   0  0  0  0  0  0  0  0  0  0  0  0
   18.9498   18.6984   24.1272 C   0  0  0  0  0  0  0  0  0  0  0  0
   20.0071   18.4252   24.2139 H   0  0  0  0  0  0  0  0  0  0  0  0
   18.7041   19.2898   25.0199 H   0  0  0  0  0  0  0  0  0  0  0  0
   18.7259   19.5628   22.8622 C   0  0  0  0  0  0  0  0  0  0  0  0
   18.8932   18.9667   21.9544 H   0  0  0  0  0  0  0  0  0  0  0  0
   17.6692   19.8635   22.8361 H   0  0  0  0  0  0  0  0  0  0  0  0
   19.6022   20.8430   22.8277 C   0  0  0  0  0  0  0  0  0  0  0  0
   19.8444   21.1668   23.8486 H   0  0  0  0  0  0  0  0  0  0  0  0
   18.9979   21.6506   22.3938 H   0  0  0  0  0  0  0  0  0  0  0  0
   20.8942   20.7244   21.9836 C   0  0  2  0  0  0  0  0  0  0  0  0
   20.6097   20.4495   20.9633 H   0  0  0  0  0  0  0  0  0  0  0  0
   21.8609   19.6535   22.5164 C   0  0  0  0  0  0  0  0  0  0  0  0
   22.1066   19.8285   23.5712 H   0  0  0  0  0  0  0  0  0  0  0  0
   21.4288   18.6508   22.4197 H   0  0  0  0  0  0  0  0  0  0  0  0
   22.7964   19.6573   21.9435 H   0  0  0  0  0  0  0  0  0  0  0  0
   21.5944   22.0511   21.8828 N   0  3  0  0  0  0  0  0  0  0  0  0
   20.9840   22.7705   21.4842 H   0  0  0  0  0  0  0  0  0  0  0  0
   22.4245   21.9913   21.2861 H   0  0  0  0  0  0  0  0  0  0  0  0
   21.9016   22.3823   22.8012 H   0  0  0  0  0  0  0  0  0  0  0  0
  1  2  1  0  0  0  0
  1  3  1  0  0  0  0
  1  4  1  0  0  0  0
  1  5  1  0  0  0  0
  5  6  1  0  0  0  0
  5  7  1  0  0  0  0
  5  8  1  0  0  0  0
  8  9  1  0  0  0  0
  8 10  1  0  0  0  0
  8 11  1  0  0  0  0
 11 12  1  0  0  0  0
 11 13  1  0  0  0  0
 11 14  1  0  0  0  0
 14 15  1  0  0  0  0
 14 16  1  0  0  0  0
 14 17  1  0  0  0  0
 17 18  1  0  0  0  0
 17 19  1  0  0  0  0
 17 20  1  0  0  0  0
 20 21  1  0  0  0  0
 20 22  1  0  0  0  0
 22 23  1  0  0  0  0
 22 24  1  0  0  0  0
 22 25  1  0  0  0  0
 20 26  1  0  0  0  0
 26 27  1  0  0  0  0
 26 28  1  0  0  0  0
 26 29  1  0  0  0  0
M  END
> <VConfSearch Rank>
94

> <Conf_Id>
156

> <Delta U+W>
3.393

> <U+W>
-24.433

> <U>
27.713

> <W>
-52.146

> <W(PB)>
-54.603

> <W(SA)>
2.458

> <Valence>
6.758

> <Coulomb>
19.720

> <VdW>
1.235

> <VdW6>
-9.782

> <VdW12>
11.017

> <Bond>
0.287

> <Angle>
1.880

> <Pdih>
4.591

> <Idih>
0.000

> <Tether>
0.000

$$$$
VeraChem MOL file


 29 28  0  0  0  0  0  0  0  0999 V2000     
   21.8829   17.2244   20.8991 C   0  0  0  0  0  0  0  0  0  0  0  0
   21.7344   18.0949   20.2468 H   0  0  0  0  0  0  0  0  0  0  0  0
   22.9611   17.0297   20.9694 H   0  0  0  0  0  0  0  0  0  0  0  0
   21.4148   16.3571   20.4158 H   0  0  0  0  0  0  0  0  0  0  0  0
   21.2704   17.4668   22.2947 C   0  0  0  0  0  0  0  0  0  0  0  0
   21.4080   16.5699   22.9145 H   0  0  0  0  0  0  0  0  0  0  0  0
   20.1882   17.6176   22.1869 H   0  0  0  0  0  0  0  0  0  0  0  0
   21.9117   18.6882   22.9944 C   0  0  0  0  0  0  0  0  0  0  0  0
   23.0015   18.5511   23.0222 H   0  0  0  0  0  0  0  0  0  0  0  0
   21.7389   19.5923   22.3960 H   0  0  0  0  0  0  0  0  0  0  0  0
   21.4121   18.9068   24.4461 C   0  0  0  0  0  0  0  0  0  0  0  0
   21.9343   19.7748   24.8715 H   0  0  0  0  0  0  0  0  0  0  0  0
   21.7146   18.0459   25.0580 H   0  0  0  0  0  0  0  0  0  0  0  0
   19.8831   19.1138   24.6028 C   0  0  0  0  0  0  0  0  0  0  0  0
   19.3545   18.2033   24.2938 H   0  0  0  0  0  0  0  0  0  0  0  0
   19.6712   19.2389   25.6723 H   0  0  0  0  0  0  0  0  0  0  0  0
   19.3432   20.3411   23.8188 C   0  0  0  0  0  0  0  0  0  0  0  0
   19.5293   20.2024   22.7467 H   0  0  0  0  0  0  0  0  0  0  0  0
   19.9074   21.2363   24.1117 H   0  0  0  0  0  0  0  0  0  0  0  0
   17.8331   20.6199   24.0056 C   0  0  2  0  0  0  0  0  0  0  0  0
   17.5782   21.4683   23.3630 H   0  0  0  0  0  0  0  0  0  0  0  0
   17.4894   21.0153   25.4524 C   0  0  0  0  0  0  0  0  0  0  0  0
   16.4453   21.3444   25.5214 H   0  0  0  0  0  0  0  0  0  0  0  0
   17.6215   20.1765   26.1458 H   0  0  0  0  0  0  0  0  0  0  0  0
   18.1223   21.8451   25.7908 H   0  0  0  0  0  0  0  0  0  0  0  0
   16.9766   19.4739   23.5421 N   0  3  0  0  0  0  0  0  0  0  0  0
   17.1655   19.2357   22.5643 H   0  0  0  0  0  0  0  0  0  0  0  0
   15.9802   19.6985   23.6159 H   0  0  0  0  0  0  0  0  0  0  0  0
   17.1448   18.6352   24.1032 H   0  0  0  0  0  0  0  0  0  0  0  0
  1  2  1  0  0  0  0
  1  3  1  0  0  0  0
  1  4  1  0  0  0  0
  1  5  1  0  0  0  0
  5  6  1  0  0  0  0
  5  7  1  0  0  0  0
  5  8  1  0  0  0  0
  8  9  1  0  0  0  0
  8 10  1  0  0  0  0
  8 11  1  0  0  0  0
 11 12  1  0  0  0  0
 11 13  1  0  0  0  0
 11 14  1  0  0  0  0
 14 15  1  0  0  0  0
 14 16  1  0  0  0  0
 14 17  1  0  0  0  0
 17 18  1  0  0  0  0
 17 19  1  0  0  0  0
 17 20  1  0  0  0  0
 20 21  1  0  0  0  0
 20 22  1  0  0  0  0
 22 23  1  0  0  0  0
 22 24  1  0  0  0  0
 22 25  1  0  0  0  0
 20 26  1  0  0  0  0
 26 27  1  0  0  0  0
 26 28  1  0  0  0  0
 26 29  1  0  0  0  0
M  END
> <VConfSearch Rank>
95

> <Conf_Id>
78

> <Delta U+W>
1.477

> <U+W>
-26.349

> <U>
26.385

> <W>
-52.734

> <W(PB)>
-55.179

> <W(SA)>
2.445

> <Valence>
4.726

> <Coulomb>
20.482

> <VdW>
1.177

> <VdW6>
-10.349

> <VdW12>
11.526

> <Bond>
0.319

> <Angle>
1.933

> <Pdih>
2.474

> <Idih>
0.000

> <Tether>
0.000

$$$$
VeraChem MOL file


 29 28  0  0  0  0  0  0  0  0999 V2000     
   23.2084   20.0655   22.4285 C   0  0  0  0  0  0  0  0  0  0  0  0
   23.3860   21.1070   22.7264 H   0  0  0  0  0  0  0  0  0  0  0  0
   22.9622   19.4947   23.3307 H   0  0  0  0  0  0  0  0  0  0  0  0
   24.1507   19.6680   22.0297 H   0  0  0  0  0  0  0  0  0  0  0  0
   22.0911   19.9802   21.3626 C   0  0  0  0  0  0  0  0  0  0  0  0
   21.9737   18.9449   21.0136 H   0  0  0  0  0  0  0  0  0  0  0  0
   22.4145   20.5594   20.4863 H   0  0  0  0  0  0  0  0  0  0  0  0
   20.7316   20.5419   21.8523 C   0  0  0  0  0  0  0  0  0  0  0  0
   20.8928   21.3197   22.6113 H   0  0  0  0  0  0  0  0  0  0  0  0
   20.2477   21.0503   21.0068 H   0  0  0  0  0  0  0  0  0  0  0  0
   19.7390   19.4764   22.3847 C   0  0  0  0  0  0  0  0  0  0  0  0
   19.5020   18.7655   21.5812 H   0  0  0  0  0  0  0  0  0  0  0  0
   18.7990   19.9881   22.6283 H   0  0  0  0  0  0  0  0  0  0  0  0
   20.2438   18.6999   23.6257 C   0  0  0  0  0  0  0  0  0  0  0  0
   21.1372   18.1248   23.3512 H   0  0  0  0  0  0  0  0  0  0  0  0
   20.5591   19.4049   24.4059 H   0  0  0  0  0  0  0  0  0  0  0  0
   19.1985   17.7052   24.1943 C   0  0  0  0  0  0  0  0  0  0  0  0
   19.6443   17.1679   25.0419 H   0  0  0  0  0  0  0  0  0  0  0  0
   18.9904   16.9460   23.4288 H   0  0  0  0  0  0  0  0  0  0  0  0
   17.8592   18.3371   24.6425 C   0  0  2  0  0  0  0  0  0  0  0  0
   17.4157   18.8530   23.7861 H   0  0  0  0  0  0  0  0  0  0  0  0
   18.0512   19.3566   25.7792 C   0  0  0  0  0  0  0  0  0  0  0  0
   17.0833   19.7503   26.1130 H   0  0  0  0  0  0  0  0  0  0  0  0
   18.5489   18.8988   26.6430 H   0  0  0  0  0  0  0  0  0  0  0  0
   18.6525   20.2116   25.4486 H   0  0  0  0  0  0  0  0  0  0  0  0
   16.8727   17.2793   25.0523 N   0  3  0  0  0  0  0  0  0  0  0  0
   17.2093   16.7465   25.8588 H   0  0  0  0  0  0  0  0  0  0  0  0
   16.6976   16.6130   24.2945 H   0  0  0  0  0  0  0  0  0  0  0  0
   15.9709   17.6893   25.3119 H   0  0  0  0  0  0  0  0  0  0  0  0
  1  2  1  0  0  0  0
  1  3  1  0  0  0  0
  1  4  1  0  0  0  0
  1  5  1  0  0  0  0
  5  6  1  0  0  0  0
  5  7  1  0  0  0  0
  5  8  1  0  0  0  0
  8  9  1  0  0  0  0
  8 10  1  0  0  0  0
  8 11  1  0  0  0  0
 11 12  1  0  0  0  0
 11 13  1  0  0  0  0
 11 14  1  0  0  0  0
 14 15  1  0  0  0  0
 14 16  1  0  0  0  0
 14 17  1  0  0  0  0
 17 18  1  0  0  0  0
 17 19  1  0  0  0  0
 17 20  1  0  0  0  0
 20 21  1  0  0  0  0
 20 22  1  0  0  0  0
 22 23  1  0  0  0  0
 22 24  1  0  0  0  0
 22 25  1  0  0  0  0
 20 26  1  0  0  0  0
 26 27  1  0  0  0  0
 26 28  1  0  0  0  0
 26 29  1  0  0  0  0
M  END
> <VConfSearch Rank>
96

> <Conf_Id>
145

> <Delta U+W>
3.784

> <U+W>
-24.042

> <U>
28.220

> <W>
-52.262

> <W(PB)>
-54.724

> <W(SA)>
2.462

> <Valence>
7.040

> <Coulomb>
19.984

> <VdW>
1.197

> <VdW6>
-10.566

> <VdW12>
11.763

> <Bond>
0.320

> <Angle>
2.280

> <Pdih>
4.439

> <Idih>
0.000

> <Tether>
0.000

$$$$
VeraChem MOL file


 29 28  0  0  0  0  0  0  0  0999 V2000     
   20.4502   22.3128   21.2432 C   0  0  0  0  0  0  0  0  0  0  0  0
   19.6704   23.0116   20.9129 H   0  0  0  0  0  0  0  0  0  0  0  0
   20.8636   22.6843   22.1899 H   0  0  0  0  0  0  0  0  0  0  0  0
   21.2539   22.3270   20.4957 H   0  0  0  0  0  0  0  0  0  0  0  0
   19.8839   20.8867   21.4075 C   0  0  0  0  0  0  0  0  0  0  0  0
   20.6961   20.2083   21.6950 H   0  0  0  0  0  0  0  0  0  0  0  0
   19.5103   20.5317   20.4369 H   0  0  0  0  0  0  0  0  0  0  0  0
   18.7398   20.8442   22.4490 C   0  0  0  0  0  0  0  0  0  0  0  0
   19.0778   21.2603   23.4080 H   0  0  0  0  0  0  0  0  0  0  0  0
   17.9355   21.5061   22.0990 H   0  0  0  0  0  0  0  0  0  0  0  0
   18.1509   19.4250   22.6603 C   0  0  0  0  0  0  0  0  0  0  0  0
   18.2702   18.8226   21.7492 H   0  0  0  0  0  0  0  0  0  0  0  0
   17.0665   19.5238   22.8084 H   0  0  0  0  0  0  0  0  0  0  0  0
   18.7204   18.6606   23.8833 C   0  0  0  0  0  0  0  0  0  0  0  0
   18.4946   19.2281   24.7959 H   0  0  0  0  0  0  0  0  0  0  0  0
   18.1747   17.7123   23.9675 H   0  0  0  0  0  0  0  0  0  0  0  0
   20.2448   18.3804   23.8026 C   0  0  0  0  0  0  0  0  0  0  0  0
   20.7877   19.3333   23.8089 H   0  0  0  0  0  0  0  0  0  0  0  0
   20.4777   17.8977   22.8444 H   0  0  0  0  0  0  0  0  0  0  0  0
   20.8089   17.5095   24.9502 C   0  0  2  0  0  0  0  0  0  0  0  0
   21.8933   17.4555   24.8128 H   0  0  0  0  0  0  0  0  0  0  0  0
   20.2659   16.0703   24.9090 C   0  0  0  0  0  0  0  0  0  0  0  0
   20.7897   15.4428   25.6405 H   0  0  0  0  0  0  0  0  0  0  0  0
   19.1955   16.0317   25.1422 H   0  0  0  0  0  0  0  0  0  0  0  0
   20.4189   15.6238   23.9186 H   0  0  0  0  0  0  0  0  0  0  0  0
   20.5903   18.1298   26.3026 N   0  3  0  0  0  0  0  0  0  0  0  0
   19.5931   18.2077   26.5173 H   0  0  0  0  0  0  0  0  0  0  0  0
   20.9918   19.0705   26.3534 H   0  0  0  0  0  0  0  0  0  0  0  0
   21.0222   17.5715   27.0445 H   0  0  0  0  0  0  0  0  0  0  0  0
  1  2  1  0  0  0  0
  1  3  1  0  0  0  0
  1  4  1  0  0  0  0
  1  5  1  0  0  0  0
  5  6  1  0  0  0  0
  5  7  1  0  0  0  0
  5  8  1  0  0  0  0
  8  9  1  0  0  0  0
  8 10  1  0  0  0  0
  8 11  1  0  0  0  0
 11 12  1  0  0  0  0
 11 13  1  0  0  0  0
 11 14  1  0  0  0  0
 14 15  1  0  0  0  0
 14 16  1  0  0  0  0
 14 17  1  0  0  0  0
 17 18  1  0  0  0  0
 17 19  1  0  0  0  0
 17 20  1  0  0  0  0
 20 21  1  0  0  0  0
 20 22  1  0  0  0  0
 22 23  1  0  0  0  0
 22 24  1  0  0  0  0
 22 25  1  0  0  0  0
 20 26  1  0  0  0  0
 26 27  1  0  0  0  0
 26 28  1  0  0  0  0
 26 29  1  0  0  0  0
M  END
> <VConfSearch Rank>
97

> <Conf_Id>
71

> <Delta U+W>
3.542

> <U+W>
-24.284

> <U>
28.217

> <W>
-52.501

> <W(PB)>
-54.947

> <W(SA)>
2.446

> <Valence>
6.821

> <Coulomb>
20.147

> <VdW>
1.249

> <VdW6>
-10.237

> <VdW12>
11.486

> <Bond>
0.317

> <Angle>
1.990

> <Pdih>
4.515

> <Idih>
0.000

> <Tether>
0.000

$$$$
VeraChem MOL file


 29 28  0  0  0  0  0  0  0  0999 V2000     
   23.4559   19.5208   25.0597 C   0  0  0  0  0  0  0  0  0  0  0  0
   23.7343   19.1455   24.0663 H   0  0  0  0  0  0  0  0  0  0  0  0
   23.9622   20.4823   25.2163 H   0  0  0  0  0  0  0  0  0  0  0  0
   23.8380   18.8131   25.8067 H   0  0  0  0  0  0  0  0  0  0  0  0
   21.9253   19.6726   25.1857 C   0  0  0  0  0  0  0  0  0  0  0  0
   21.6781   20.0164   26.1998 H   0  0  0  0  0  0  0  0  0  0  0  0
   21.4562   18.6886   25.0676 H   0  0  0  0  0  0  0  0  0  0  0  0
   21.3649   20.6754   24.1484 C   0  0  0  0  0  0  0  0  0  0  0  0
   21.8392   21.6504   24.3266 H   0  0  0  0  0  0  0  0  0  0  0  0
   21.6564   20.3785   23.1316 H   0  0  0  0  0  0  0  0  0  0  0  0
   19.8266   20.8561   24.2315 C   0  0  0  0  0  0  0  0  0  0  0  0
   19.5951   21.9094   24.0206 H   0  0  0  0  0  0  0  0  0  0  0  0
   19.4757   20.6766   25.2570 H   0  0  0  0  0  0  0  0  0  0  0  0
   19.0168   19.9922   23.2305 C   0  0  0  0  0  0  0  0  0  0  0  0
   17.9583   20.2667   23.3263 H   0  0  0  0  0  0  0  0  0  0  0  0
   19.3131   20.2617   22.2080 H   0  0  0  0  0  0  0  0  0  0  0  0
   19.1768   18.4628   23.4383 C   0  0  0  0  0  0  0  0  0  0  0  0
   19.0129   18.2212   24.4965 H   0  0  0  0  0  0  0  0  0  0  0  0
   20.2094   18.1709   23.2099 H   0  0  0  0  0  0  0  0  0  0  0  0
   18.2297   17.5885   22.5830 C   0  0  2  0  0  0  0  0  0  0  0  0
   18.4450   16.5432   22.8250 H   0  0  0  0  0  0  0  0  0  0  0  0
   18.4733   17.7777   21.0756 C   0  0  0  0  0  0  0  0  0  0  0  0
   19.5304   17.6189   20.8288 H   0  0  0  0  0  0  0  0  0  0  0  0
   17.8846   17.0545   20.4980 H   0  0  0  0  0  0  0  0  0  0  0  0
   18.1895   18.7831   20.7425 H   0  0  0  0  0  0  0  0  0  0  0  0
   16.7813   17.8044   22.9259 N   0  3  0  0  0  0  0  0  0  0  0  0
   16.6023   17.6385   23.9204 H   0  0  0  0  0  0  0  0  0  0  0  0
   16.1734   17.1734   22.3959 H   0  0  0  0  0  0  0  0  0  0  0  0
   16.4884   18.7616   22.7153 H   0  0  0  0  0  0  0  0  0  0  0  0
  1  2  1  0  0  0  0
  1  3  1  0  0  0  0
  1  4  1  0  0  0  0
  1  5  1  0  0  0  0
  5  6  1  0  0  0  0
  5  7  1  0  0  0  0
  5  8  1  0  0  0  0
  8  9  1  0  0  0  0
  8 10  1  0  0  0  0
  8 11  1  0  0  0  0
 11 12  1  0  0  0  0
 11 13  1  0  0  0  0
 11 14  1  0  0  0  0
 14 15  1  0  0  0  0
 14 16  1  0  0  0  0
 14 17  1  0  0  0  0
 17 18  1  0  0  0  0
 17 19  1  0  0  0  0
 17 20  1  0  0  0  0
 20 21  1  0  0  0  0
 20 22  1  0  0  0  0
 22 23  1  0  0  0  0
 22 24  1  0  0  0  0
 22 25  1  0  0  0  0
 20 26  1  0  0  0  0
 26 27  1  0  0  0  0
 26 28  1  0  0  0  0
 26 29  1  0  0  0  0
M  END
> <VConfSearch Rank>
98

> <Conf_Id>
163

> <Delta U+W>
3.309

> <U+W>
-24.517

> <U>
27.916

> <W>
-52.433

> <W(PB)>
-54.866

> <W(SA)>
2.433

> <Valence>
6.693

> <Coulomb>
20.015

> <VdW>
1.208

> <VdW6>
-10.294

> <VdW12>
11.503

> <Bond>
0.312

> <Angle>
1.939

> <Pdih>
4.441

> <Idih>
0.000

> <Tether>
0.000

$$$$
VeraChem MOL file


 29 28  0  0  0  0  0  0  0  0999 V2000     
   18.0002   15.6639   22.8949 C   0  0  0  0  0  0  0  0  0  0  0  0
   17.1834   15.6658   23.6284 H   0  0  0  0  0  0  0  0  0  0  0  0
   17.6762   16.2364   22.0171 H   0  0  0  0  0  0  0  0  0  0  0  0
   18.1582   14.6269   22.5714 H   0  0  0  0  0  0  0  0  0  0  0  0
   19.2967   16.2428   23.5053 C   0  0  0  0  0  0  0  0  0  0  0  0
   20.0879   16.2631   22.7429 H   0  0  0  0  0  0  0  0  0  0  0  0
   19.6481   15.5638   24.2948 H   0  0  0  0  0  0  0  0  0  0  0  0
   19.1171   17.6556   24.1116 C   0  0  0  0  0  0  0  0  0  0  0  0
   18.3283   17.6296   24.8758 H   0  0  0  0  0  0  0  0  0  0  0  0
   20.0460   17.9200   24.6330 H   0  0  0  0  0  0  0  0  0  0  0  0
   18.7878   18.7418   23.0566 C   0  0  0  0  0  0  0  0  0  0  0  0
   17.8594   18.4747   22.5358 H   0  0  0  0  0  0  0  0  0  0  0  0
   19.5718   18.7599   22.2881 H   0  0  0  0  0  0  0  0  0  0  0  0
   18.6017   20.1573   23.6626 C   0  0  0  0  0  0  0  0  0  0  0  0
   18.3153   20.8508   22.8606 H   0  0  0  0  0  0  0  0  0  0  0  0
   17.7496   20.1398   24.3559 H   0  0  0  0  0  0  0  0  0  0  0  0
   19.8402   20.7210   24.4095 C   0  0  0  0  0  0  0  0  0  0  0  0
   20.0039   20.1405   25.3264 H   0  0  0  0  0  0  0  0  0  0  0  0
   19.6210   21.7451   24.7397 H   0  0  0  0  0  0  0  0  0  0  0  0
   21.1371   20.7217   23.5706 C   0  0  2  0  0  0  0  0  0  0  0  0
   21.3419   19.6948   23.2533 H   0  0  0  0  0  0  0  0  0  0  0  0
   22.3234   21.2076   24.4178 C   0  0  0  0  0  0  0  0  0  0  0  0
   23.2540   21.1746   23.8379 H   0  0  0  0  0  0  0  0  0  0  0  0
   22.1706   22.2386   24.7607 H   0  0  0  0  0  0  0  0  0  0  0  0
   22.4585   20.5703   25.3006 H   0  0  0  0  0  0  0  0  0  0  0  0
   21.0064   21.5449   22.3188 N   0  3  0  0  0  0  0  0  0  0  0  0
   20.2369   21.2092   21.7332 H   0  0  0  0  0  0  0  0  0  0  0  0
   21.8611   21.5102   21.7559 H   0  0  0  0  0  0  0  0  0  0  0  0
   20.8221   22.5277   22.5372 H   0  0  0  0  0  0  0  0  0  0  0  0
  1  2  1  0  0  0  0
  1  3  1  0  0  0  0
  1  4  1  0  0  0  0
  1  5  1  0  0  0  0
  5  6  1  0  0  0  0
  5  7  1  0  0  0  0
  5  8  1  0  0  0  0
  8  9  1  0  0  0  0
  8 10  1  0  0  0  0
  8 11  1  0  0  0  0
 11 12  1  0  0  0  0
 11 13  1  0  0  0  0
 11 14  1  0  0  0  0
 14 15  1  0  0  0  0
 14 16  1  0  0  0  0
 14 17  1  0  0  0  0
 17 18  1  0  0  0  0
 17 19  1  0  0  0  0
 17 20  1  0  0  0  0
 20 21  1  0  0  0  0
 20 22  1  0  0  0  0
 22 23  1  0  0  0  0
 22 24  1  0  0  0  0
 22 25  1  0  0  0  0
 20 26  1  0  0  0  0
 26 27  1  0  0  0  0
 26 28  1  0  0  0  0
 26 29  1  0  0  0  0
M  END
> <VConfSearch Rank>
99

> <Conf_Id>
173

> <Delta U+W>
1.363

> <U+W>
-26.462

> <U>
25.816

> <W>
-52.279

> <W(PB)>
-54.727

> <W(SA)>
2.449

> <Valence>
4.504

> <Coulomb>
20.342

> <VdW>
0.971

> <VdW6>
-10.532

> <VdW12>
11.503

> <Bond>
0.307

> <Angle>
1.715

> <Pdih>
2.481

> <Idih>
0.000

> <Tether>
0.000

$$$$
VeraChem MOL file


 29 28  0  0  0  0  0  0  0  0999 V2000     
   20.2116   19.1244   19.6642 C   0  0  0  0  0  0  0  0  0  0  0  0
   21.1714   19.6546   19.6102 H   0  0  0  0  0  0  0  0  0  0  0  0
   20.2790   18.2296   19.0316 H   0  0  0  0  0  0  0  0  0  0  0  0
   19.4400   19.7796   19.2395 H   0  0  0  0  0  0  0  0  0  0  0  0
   19.8666   18.7498   21.1210 C   0  0  0  0  0  0  0  0  0  0  0  0
   18.8907   18.2454   21.1463 H   0  0  0  0  0  0  0  0  0  0  0  0
   19.7717   19.6716   21.7100 H   0  0  0  0  0  0  0  0  0  0  0  0
   20.9451   17.8351   21.7451 C   0  0  0  0  0  0  0  0  0  0  0  0
   21.1125   16.9762   21.0806 H   0  0  0  0  0  0  0  0  0  0  0  0
   21.9000   18.3766   21.7903 H   0  0  0  0  0  0  0  0  0  0  0  0
   20.5916   17.2967   23.1557 C   0  0  0  0  0  0  0  0  0  0  0  0
   21.4100   16.6345   23.4707 H   0  0  0  0  0  0  0  0  0  0  0  0
   19.6990   16.6583   23.1034 H   0  0  0  0  0  0  0  0  0  0  0  0
   20.4105   18.3912   24.2396 C   0  0  0  0  0  0  0  0  0  0  0  0
   20.8176   18.0072   25.1843 H   0  0  0  0  0  0  0  0  0  0  0  0
   21.0173   19.2681   23.9801 H   0  0  0  0  0  0  0  0  0  0  0  0
   18.9245   18.7861   24.4655 C   0  0  0  0  0  0  0  0  0  0  0  0
   18.3631   17.8948   24.7748 H   0  0  0  0  0  0  0  0  0  0  0  0
   18.4691   19.1095   23.5229 H   0  0  0  0  0  0  0  0  0  0  0  0
   18.6995   19.8926   25.5227 C   0  0  2  0  0  0  0  0  0  0  0  0
   17.6184   20.0267   25.6273 H   0  0  0  0  0  0  0  0  0  0  0  0
   19.2934   21.2417   25.0811 C   0  0  0  0  0  0  0  0  0  0  0  0
   18.9267   21.5223   24.0860 H   0  0  0  0  0  0  0  0  0  0  0  0
   19.0009   22.0357   25.7791 H   0  0  0  0  0  0  0  0  0  0  0  0
   20.3889   21.2127   25.0483 H   0  0  0  0  0  0  0  0  0  0  0  0
   19.2043   19.5004   26.8839 N   0  3  0  0  0  0  0  0  0  0  0  0
   18.7790   18.6256   27.2042 H   0  0  0  0  0  0  0  0  0  0  0  0
   18.9922   20.2182   27.5827 H   0  0  0  0  0  0  0  0  0  0  0  0
   20.2185   19.3668   26.8788 H   0  0  0  0  0  0  0  0  0  0  0  0
  1  2  1  0  0  0  0
  1  3  1  0  0  0  0
  1  4  1  0  0  0  0
  1  5  1  0  0  0  0
  5  6  1  0  0  0  0
  5  7  1  0  0  0  0
  5  8  1  0  0  0  0
  8  9  1  0  0  0  0
  8 10  1  0  0  0  0
  8 11  1  0  0  0  0
 11 12  1  0  0  0  0
 11 13  1  0  0  0  0
 11 14  1  0  0  0  0
 14 15  1  0  0  0  0
 14 16  1  0  0  0  0
 14 17  1  0  0  0  0
 17 18  1  0  0  0  0
 17 19  1  0  0  0  0
 17 20  1  0  0  0  0
 20 21  1  0  0  0  0
 20 22  1  0  0  0  0
 22 23  1  0  0  0  0
 22 24  1  0  0  0  0
 22 25  1  0  0  0  0
 20 26  1  0  0  0  0
 26 27  1  0  0  0  0
 26 28  1  0  0  0  0
 26 29  1  0  0  0  0
M  END
> <VConfSearch Rank>
100

> <Conf_Id>
117

> <Delta U+W>
3.377

> <U+W>
-24.449

> <U>
27.947

> <W>
-52.396

> <W(PB)>
-54.842

> <W(SA)>
2.447

> <Valence>
6.731

> <Coulomb>
20.067

> <VdW>
1.149

> <VdW6>
-10.427

> <VdW12>
11.575

> <Bond>
0.324

> <Angle>
1.943

> <Pdih>
4.465

> <Idih>
0.000

> <Tether>
0.000

$$$$
VeraChem MOL file


 29 28  0  0  0  0  0  0  0  0999 V2000     
   21.5106   22.2271   20.2229 C   0  0  0  0  0  0  0  0  0  0  0  0
   21.0696   23.0987   20.7240 H   0  0  0  0  0  0  0  0  0  0  0  0
   22.5551   22.1374   20.5488 H   0  0  0  0  0  0  0  0  0  0  0  0
   21.5102   22.4234   19.1428 H   0  0  0  0  0  0  0  0  0  0  0  0
   20.7174   20.9427   20.5436 C   0  0  0  0  0  0  0  0  0  0  0  0
   21.1611   20.0954   20.0022 H   0  0  0  0  0  0  0  0  0  0  0  0
   19.6871   21.0492   20.1762 H   0  0  0  0  0  0  0  0  0  0  0  0
   20.7024   20.6432   22.0588 C   0  0  0  0  0  0  0  0  0  0  0  0
   21.7343   20.5399   22.4219 H   0  0  0  0  0  0  0  0  0  0  0  0
   20.2601   21.4938   22.5958 H   0  0  0  0  0  0  0  0  0  0  0  0
   19.9089   19.3576   22.3839 C   0  0  0  0  0  0  0  0  0  0  0  0
   20.3514   18.5081   21.8452 H   0  0  0  0  0  0  0  0  0  0  0  0
   18.8771   19.4618   22.0208 H   0  0  0  0  0  0  0  0  0  0  0  0
   19.8948   19.0579   23.8999 C   0  0  0  0  0  0  0  0  0  0  0  0
   20.9269   18.9503   24.2615 H   0  0  0  0  0  0  0  0  0  0  0  0
   19.4574   19.9135   24.4314 H   0  0  0  0  0  0  0  0  0  0  0  0
   19.0983   17.7703   24.2228 C   0  0  0  0  0  0  0  0  0  0  0  0
   19.5170   16.9387   23.6403 H   0  0  0  0  0  0  0  0  0  0  0  0
   18.0558   17.8870   23.8979 H   0  0  0  0  0  0  0  0  0  0  0  0
   19.1371   17.3976   25.7206 C   0  0  2  0  0  0  0  0  0  0  0  0
   20.1845   17.3108   26.0255 H   0  0  0  0  0  0  0  0  0  0  0  0
   18.4531   16.0407   25.9515 C   0  0  0  0  0  0  0  0  0  0  0  0
   18.5091   15.7525   27.0085 H   0  0  0  0  0  0  0  0  0  0  0  0
   17.3953   16.0750   25.6620 H   0  0  0  0  0  0  0  0  0  0  0  0
   18.9423   15.2527   25.3655 H   0  0  0  0  0  0  0  0  0  0  0  0
   18.5180   18.4551   26.5932 N   0  3  0  0  0  0  0  0  0  0  0  0
   18.9925   19.3553   26.4830 H   0  0  0  0  0  0  0  0  0  0  0  0
   18.5702   18.2004   27.5837 H   0  0  0  0  0  0  0  0  0  0  0  0
   17.5305   18.5963   26.3644 H   0  0  0  0  0  0  0  0  0  0  0  0
  1  2  1  0  0  0  0
  1  3  1  0  0  0  0
  1  4  1  0  0  0  0
  1  5  1  0  0  0  0
  5  6  1  0  0  0  0
  5  7  1  0  0  0  0
  5  8  1  0  0  0  0
  8  9  1  0  0  0  0
  8 10  1  0  0  0  0
  8 11  1  0  0  0  0
 11 12  1  0  0  0  0
 11 13  1  0  0  0  0
 11 14  1  0  0  0  0
 14 15  1  0  0  0  0
 14 16  1  0  0  0  0
 14 17  1  0  0  0  0
 17 18  1  0  0  0  0
 17 19  1  0  0  0  0
 17 20  1  0  0  0  0
 20 21  1  0  0  0  0
 20 22  1  0  0  0  0
 22 23  1  0  0  0  0
 22 24  1  0  0  0  0
 22 25  1  0  0  0  0
 20 26  1  0  0  0  0
 26 27  1  0  0  0  0
 26 28  1  0  0  0  0
 26 29  1  0  0  0  0
M  END
> <VConfSearch Rank>
101

> <Conf_Id>
164

> <Delta U+W>
0.000

> <U+W>
-27.826

> <U>
23.963

> <W>
-51.789

> <W(PB)>
-54.342

> <W(SA)>
2.554

> <Valence>
3.166

> <Coulomb>
19.734

> <VdW>
1.062

> <VdW6>
-7.938

> <VdW12>
9.001

> <Bond>
0.188

> <Angle>
0.880

> <Pdih>
2.098

> <Idih>
0.000

> <Tether>
0.000

$$$$
VeraChem MOL file


 29 28  0  0  0  0  0  0  0  0999 V2000     
   22.8657   17.1339   20.2930 C   0  0  0  0  0  0  0  0  0  0  0  0
   23.7365   17.1571   20.9612 H   0  0  0  0  0  0  0  0  0  0  0  0
   22.4026   16.1414   20.3690 H   0  0  0  0  0  0  0  0  0  0  0  0
   23.2270   17.2595   19.2640 H   0  0  0  0  0  0  0  0  0  0  0  0
   21.8583   18.2452   20.6562 C   0  0  0  0  0  0  0  0  0  0  0  0
   21.0159   18.2184   19.9508 H   0  0  0  0  0  0  0  0  0  0  0  0
   22.3395   19.2263   20.5384 H   0  0  0  0  0  0  0  0  0  0  0  0
   21.3338   18.0917   22.1010 C   0  0  0  0  0  0  0  0  0  0  0  0
   20.8559   17.1087   22.2144 H   0  0  0  0  0  0  0  0  0  0  0  0
   22.1794   18.1168   22.8021 H   0  0  0  0  0  0  0  0  0  0  0  0
   20.3245   19.2028   22.4684 C   0  0  0  0  0  0  0  0  0  0  0  0
   19.4790   19.1768   21.7670 H   0  0  0  0  0  0  0  0  0  0  0  0
   20.8035   20.1850   22.3531 H   0  0  0  0  0  0  0  0  0  0  0  0
   19.8004   19.0490   23.9141 C   0  0  0  0  0  0  0  0  0  0  0  0
   19.3319   18.0619   24.0207 H   0  0  0  0  0  0  0  0  0  0  0  0
   20.6456   19.0802   24.6157 H   0  0  0  0  0  0  0  0  0  0  0  0
   18.7859   20.1608   24.2780 C   0  0  0  0  0  0  0  0  0  0  0  0
   17.9089   20.0917   23.6206 H   0  0  0  0  0  0  0  0  0  0  0  0
   19.2492   21.1359   24.0773 H   0  0  0  0  0  0  0  0  0  0  0  0
   18.3319   20.1307   25.7554 C   0  0  2  0  0  0  0  0  0  0  0  0
   19.2237   20.1582   26.3891 H   0  0  0  0  0  0  0  0  0  0  0  0
   17.5339   18.8582   26.0918 C   0  0  0  0  0  0  0  0  0  0  0  0
   16.6605   18.7526   25.4363 H   0  0  0  0  0  0  0  0  0  0  0  0
   18.1530   17.9597   25.9877 H   0  0  0  0  0  0  0  0  0  0  0  0
   17.1787   18.8881   27.1293 H   0  0  0  0  0  0  0  0  0  0  0  0
   17.5288   21.3539   26.1003 N   0  3  0  0  0  0  0  0  0  0  0  0
   17.2591   21.3579   27.0882 H   0  0  0  0  0  0  0  0  0  0  0  0
   16.6680   21.4041   25.5486 H   0  0  0  0  0  0  0  0  0  0  0  0
   18.0571   22.2137   25.9255 H   0  0  0  0  0  0  0  0  0  0  0  0
  1  2  1  0  0  0  0
  1  3  1  0  0  0  0
  1  4  1  0  0  0  0
  1  5  1  0  0  0  0
  5  6  1  0  0  0  0
  5  7  1  0  0  0  0
  5  8  1  0  0  0  0
  8  9  1  0  0  0  0
  8 10  1  0  0  0  0
  8 11  1  0  0  0  0
 11 12  1  0  0  0  0
 11 13  1  0  0  0  0
 11 14  1  0  0  0  0
 14 15  1  0  0  0  0
 14 16  1  0  0  0  0
 14 17  1  0  0  0  0
 17 18  1  0  0  0  0
 17 19  1  0  0  0  0
 17 20  1  0  0  0  0
 20 21  1  0  0  0  0
 20 22  1  0  0  0  0
 22 23  1  0  0  0  0
 22 24  1  0  0  0  0
 22 25  1  0  0  0  0
 20 26  1  0  0  0  0
 26 27  1  0  0  0  0
 26 28  1  0  0  0  0
 26 29  1  0  0  0  0
M  END
> <VConfSearch Rank>
102

> <Conf_Id>
58

> <Delta U+W>
0.412

> <U+W>
-27.414

> <U>
24.279

> <W>
-51.694

> <W(PB)>
-54.271

> <W(SA)>
2.577

> <Valence>
3.709

> <Coulomb>
19.380

> <VdW>
1.191

> <VdW6>
-8.093

> <VdW12>
9.284

> <Bond>
0.200

> <Angle>
1.161

> <Pdih>
2.348

> <Idih>
0.000

> <Tether>
0.000

$$$$
VeraChem MOL file


 29 28  0  0  0  0  0  0  0  0999 V2000     
   23.0068   19.9269   20.2259 C   0  0  0  0  0  0  0  0  0  0  0  0
   22.6747   20.9624   20.0755 H   0  0  0  0  0  0  0  0  0  0  0  0
   23.8140   19.9312   20.9700 H   0  0  0  0  0  0  0  0  0  0  0  0
   23.4249   19.5659   19.2772 H   0  0  0  0  0  0  0  0  0  0  0  0
   21.8367   19.0299   20.6820 C   0  0  0  0  0  0  0  0  0  0  0  0
   22.1914   17.9954   20.7912 H   0  0  0  0  0  0  0  0  0  0  0  0
   21.0609   19.0187   19.9036 H   0  0  0  0  0  0  0  0  0  0  0  0
   21.2296   19.5165   22.0164 C   0  0  0  0  0  0  0  0  0  0  0  0
   22.0091   19.5280   22.7907 H   0  0  0  0  0  0  0  0  0  0  0  0
   20.8788   20.5516   21.9031 H   0  0  0  0  0  0  0  0  0  0  0  0
   20.0573   18.6208   22.4762 C   0  0  0  0  0  0  0  0  0  0  0  0
   20.4092   17.5859   22.5885 H   0  0  0  0  0  0  0  0  0  0  0  0
   19.2786   18.6097   21.7010 H   0  0  0  0  0  0  0  0  0  0  0  0
   19.4499   19.1080   23.8112 C   0  0  0  0  0  0  0  0  0  0  0  0
   20.2331   19.1181   24.5806 H   0  0  0  0  0  0  0  0  0  0  0  0
   19.1060   20.1436   23.6902 H   0  0  0  0  0  0  0  0  0  0  0  0
   18.2719   18.2072   24.2654 C   0  0  0  0  0  0  0  0  0  0  0  0
   18.6187   17.1677   24.3339 H   0  0  0  0  0  0  0  0  0  0  0  0
   17.4909   18.2147   23.4937 H   0  0  0  0  0  0  0  0  0  0  0  0
   17.6358   18.5999   25.6198 C   0  0  2  0  0  0  0  0  0  0  0  0
   16.8470   17.8715   25.8318 H   0  0  0  0  0  0  0  0  0  0  0  0
   16.9823   19.9919   25.5705 C   0  0  0  0  0  0  0  0  0  0  0  0
   16.4241   20.1862   26.4945 H   0  0  0  0  0  0  0  0  0  0  0  0
   17.7288   20.7870   25.4572 H   0  0  0  0  0  0  0  0  0  0  0  0
   16.2756   20.0615   24.7343 H   0  0  0  0  0  0  0  0  0  0  0  0
   18.6103   18.5026   26.7612 N   0  3  0  0  0  0  0  0  0  0  0  0
   19.0171   17.5653   26.8286 H   0  0  0  0  0  0  0  0  0  0  0  0
   18.1582   18.7055   27.6573 H   0  0  0  0  0  0  0  0  0  0  0  0
   19.3808   19.1661   26.6487 H   0  0  0  0  0  0  0  0  0  0  0  0
  1  2  1  0  0  0  0
  1  3  1  0  0  0  0
  1  4  1  0  0  0  0
  1  5  1  0  0  0  0
  5  6  1  0  0  0  0
  5  7  1  0  0  0  0
  5  8  1  0  0  0  0
  8  9  1  0  0  0  0
  8 10  1  0  0  0  0
  8 11  1  0  0  0  0
 11 12  1  0  0  0  0
 11 13  1  0  0  0  0
 11 14  1  0  0  0  0
 14 15  1  0  0  0  0
 14 16  1  0  0  0  0
 14 17  1  0  0  0  0
 17 18  1  0  0  0  0
 17 19  1  0  0  0  0
 17 20  1  0  0  0  0
 20 21  1  0  0  0  0
 20 22  1  0  0  0  0
 22 23  1  0  0  0  0
 22 24  1  0  0  0  0
 22 25  1  0  0  0  0
 20 26  1  0  0  0  0
 26 27  1  0  0  0  0
 26 28  1  0  0  0  0
 26 29  1  0  0  0  0
M  END
> <VConfSearch Rank>
103

> <Conf_Id>
137

> <Delta U+W>
0.280

> <U+W>
-27.546

> <U>
24.513

> <W>
-52.059

> <W(PB)>
-54.556

> <W(SA)>
2.497

> <Valence>
3.677

> <Coulomb>
19.662

> <VdW>
1.174

> <VdW6>
-8.569

> <VdW12>
9.743

> <Bond>
0.224

> <Angle>
1.211

> <Pdih>
2.243

> <Idih>
0.000

> <Tether>
0.000

$$$$
VeraChem MOL file


 29 28  0  0  0  0  0  0  0  0999 V2000     
   22.2714   18.1262   27.0631 C   0  0  0  0  0  0  0  0  0  0  0  0
   21.3787   17.5532   27.3459 H   0  0  0  0  0  0  0  0  0  0  0  0
   22.9406   17.4615   26.5012 H   0  0  0  0  0  0  0  0  0  0  0  0
   22.7876   18.4229   27.9853 H   0  0  0  0  0  0  0  0  0  0  0  0
   21.8925   19.3671   26.2273 C   0  0  0  0  0  0  0  0  0  0  0  0
   22.8014   19.9375   25.9899 H   0  0  0  0  0  0  0  0  0  0  0  0
   21.2506   20.0281   26.8264 H   0  0  0  0  0  0  0  0  0  0  0  0
   21.1647   18.9770   24.9218 C   0  0  0  0  0  0  0  0  0  0  0  0
   21.8113   18.3185   24.3257 H   0  0  0  0  0  0  0  0  0  0  0  0
   20.2658   18.3999   25.1739 H   0  0  0  0  0  0  0  0  0  0  0  0
   20.7807   20.2215   24.0855 C   0  0  0  0  0  0  0  0  0  0  0  0
   21.6812   20.8287   23.9185 H   0  0  0  0  0  0  0  0  0  0  0  0
   20.0856   20.8527   24.6562 H   0  0  0  0  0  0  0  0  0  0  0  0
   20.1607   19.8803   22.7078 C   0  0  0  0  0  0  0  0  0  0  0  0
   20.0672   20.8157   22.1416 H   0  0  0  0  0  0  0  0  0  0  0  0
   20.8530   19.2427   22.1408 H   0  0  0  0  0  0  0  0  0  0  0  0
   18.7746   19.1911   22.8053 C   0  0  0  0  0  0  0  0  0  0  0  0
   18.0797   19.8330   23.3627 H   0  0  0  0  0  0  0  0  0  0  0  0
   18.8757   18.2648   23.3834 H   0  0  0  0  0  0  0  0  0  0  0  0
   18.1610   18.8300   21.4328 C   0  0  2  0  0  0  0  0  0  0  0  0
   18.8950   18.2428   20.8723 H   0  0  0  0  0  0  0  0  0  0  0  0
   17.8019   20.0789   20.6074 C   0  0  0  0  0  0  0  0  0  0  0  0
   17.1183   20.7361   21.1592 H   0  0  0  0  0  0  0  0  0  0  0  0
   18.6960   20.6554   20.3440 H   0  0  0  0  0  0  0  0  0  0  0  0
   17.3137   19.7931   19.6676 H   0  0  0  0  0  0  0  0  0  0  0  0
   16.9512   17.9521   21.5950 N   0  3  0  0  0  0  0  0  0  0  0  0
   17.1749   17.0914   22.1029 H   0  0  0  0  0  0  0  0  0  0  0  0
   16.5638   17.6781   20.6875 H   0  0  0  0  0  0  0  0  0  0  0  0
   16.2086   18.4307   22.1122 H   0  0  0  0  0  0  0  0  0  0  0  0
  1  2  1  0  0  0  0
  1  3  1  0  0  0  0
  1  4  1  0  0  0  0
  1  5  1  0  0  0  0
  5  6  1  0  0  0  0
  5  7  1  0  0  0  0
  5  8  1  0  0  0  0
  8  9  1  0  0  0  0
  8 10  1  0  0  0  0
  8 11  1  0  0  0  0
 11 12  1  0  0  0  0
 11 13  1  0  0  0  0
 11 14  1  0  0  0  0
 14 15  1  0  0  0  0
 14 16  1  0  0  0  0
 14 17  1  0  0  0  0
 17 18  1  0  0  0  0
 17 19  1  0  0  0  0
 17 20  1  0  0  0  0
 20 21  1  0  0  0  0
 20 22  1  0  0  0  0
 22 23  1  0  0  0  0
 22 24  1  0  0  0  0
 22 25  1  0  0  0  0
 20 26  1  0  0  0  0
 26 27  1  0  0  0  0
 26 28  1  0  0  0  0
 26 29  1  0  0  0  0
M  END
> <VConfSearch Rank>
104

> <Conf_Id>
40

> <Delta U+W>
1.128

> <U+W>
-26.698

> <U>
25.442

> <W>
-52.140

> <W(PB)>
-54.658

> <W(SA)>
2.519

> <Valence>
4.343

> <Coulomb>
19.740

> <VdW>
1.360

> <VdW6>
-8.739

> <VdW12>
10.099

> <Bond>
0.251

> <Angle>
1.483

> <Pdih>
2.608

> <Idih>
0.000

> <Tether>
0.000

$$$$
VeraChem MOL file


 29 28  0  0  0  0  0  0  0  0999 V2000     
   22.6231   15.8200   23.5475 C   0  0  0  0  0  0  0  0  0  0  0  0
   22.1759   15.7364   24.5456 H   0  0  0  0  0  0  0  0  0  0  0  0
   22.0275   15.2156   22.8511 H   0  0  0  0  0  0  0  0  0  0  0  0
   23.6274   15.3800   23.5993 H   0  0  0  0  0  0  0  0  0  0  0  0
   22.7015   17.2911   23.0799 C   0  0  0  0  0  0  0  0  0  0  0  0
   23.2705   17.3319   22.1405 H   0  0  0  0  0  0  0  0  0  0  0  0
   23.2717   17.8820   23.8103 H   0  0  0  0  0  0  0  0  0  0  0  0
   21.3159   17.9409   22.8477 C   0  0  0  0  0  0  0  0  0  0  0  0
   21.4774   18.9245   22.3890 H   0  0  0  0  0  0  0  0  0  0  0  0
   20.7504   17.3465   22.1171 H   0  0  0  0  0  0  0  0  0  0  0  0
   20.4853   18.1026   24.1465 C   0  0  0  0  0  0  0  0  0  0  0  0
   21.0481   18.7018   24.8753 H   0  0  0  0  0  0  0  0  0  0  0  0
   20.3358   17.1175   24.6068 H   0  0  0  0  0  0  0  0  0  0  0  0
   19.0911   18.7374   23.9182 C   0  0  0  0  0  0  0  0  0  0  0  0
   18.5366   18.1483   23.1745 H   0  0  0  0  0  0  0  0  0  0  0  0
   18.5270   18.6592   24.8568 H   0  0  0  0  0  0  0  0  0  0  0  0
   19.1489   20.2217   23.4733 C   0  0  0  0  0  0  0  0  0  0  0  0
   19.6882   20.2956   22.5212 H   0  0  0  0  0  0  0  0  0  0  0  0
   19.7206   20.8073   24.2055 H   0  0  0  0  0  0  0  0  0  0  0  0
   17.7499   20.8487   23.2869 C   0  0  2  0  0  0  0  0  0  0  0  0
   17.1870   20.2283   22.5827 H   0  0  0  0  0  0  0  0  0  0  0  0
   17.8724   22.2615   22.6939 C   0  0  0  0  0  0  0  0  0  0  0  0
   16.8808   22.6996   22.5262 H   0  0  0  0  0  0  0  0  0  0  0  0
   18.4311   22.9264   23.3646 H   0  0  0  0  0  0  0  0  0  0  0  0
   18.3919   22.2356   21.7279 H   0  0  0  0  0  0  0  0  0  0  0  0
   16.9569   20.8828   24.5649 N   0  3  0  0  0  0  0  0  0  0  0  0
   17.4255   21.4461   25.2795 H   0  0  0  0  0  0  0  0  0  0  0  0
   16.8260   19.9432   24.9490 H   0  0  0  0  0  0  0  0  0  0  0  0
   16.0271   21.2857   24.4174 H   0  0  0  0  0  0  0  0  0  0  0  0
  1  2  1  0  0  0  0
  1  3  1  0  0  0  0
  1  4  1  0  0  0  0
  1  5  1  0  0  0  0
  5  6  1  0  0  0  0
  5  7  1  0  0  0  0
  5  8  1  0  0  0  0
  8  9  1  0  0  0  0
  8 10  1  0  0  0  0
  8 11  1  0  0  0  0
 11 12  1  0  0  0  0
 11 13  1  0  0  0  0
 11 14  1  0  0  0  0
 14 15  1  0  0  0  0
 14 16  1  0  0  0  0
 14 17  1  0  0  0  0
 17 18  1  0  0  0  0
 17 19  1  0  0  0  0
 17 20  1  0  0  0  0
 20 21  1  0  0  0  0
 20 22  1  0  0  0  0
 22 23  1  0  0  0  0
 22 24  1  0  0  0  0
 22 25  1  0  0  0  0
 20 26  1  0  0  0  0
 26 27  1  0  0  0  0
 26 28  1  0  0  0  0
 26 29  1  0  0  0  0
M  END
> <VConfSearch Rank>
105

> <Conf_Id>
134

> <Delta U+W>
1.228

> <U+W>
-26.598

> <U>
25.451

> <W>
-52.048

> <W(PB)>
-54.539

> <W(SA)>
2.490

> <Valence>
4.319

> <Coulomb>
19.732

> <VdW>
1.400

> <VdW6>
-9.173

> <VdW12>
10.573

> <Bond>
0.281

> <Angle>
1.459

> <Pdih>
2.580

> <Idih>
0.000

> <Tether>
0.000

$$$$
VeraChem MOL file


 29 28  0  0  0  0  0  0  0  0999 V2000     
   20.7547   16.5092   26.8495 C   0  0  0  0  0  0  0  0  0  0  0  0
   21.5068   17.2918   27.0082 H   0  0  0  0  0  0  0  0  0  0  0  0
   19.8352   16.8038   27.3717 H   0  0  0  0  0  0  0  0  0  0  0  0
   21.1296   15.5920   27.3218 H   0  0  0  0  0  0  0  0  0  0  0  0
   20.4883   16.2723   25.3456 C   0  0  0  0  0  0  0  0  0  0  0  0
   19.8305   15.3985   25.2378 H   0  0  0  0  0  0  0  0  0  0  0  0
   21.4286   16.0132   24.8392 H   0  0  0  0  0  0  0  0  0  0  0  0
   19.8273   17.4796   24.6373 C   0  0  0  0  0  0  0  0  0  0  0  0
   19.5560   17.1686   23.6204 H   0  0  0  0  0  0  0  0  0  0  0  0
   18.8870   17.7331   25.1458 H   0  0  0  0  0  0  0  0  0  0  0  0
   20.7400   18.7305   24.5702 C   0  0  0  0  0  0  0  0  0  0  0  0
   21.6796   18.4771   24.0603 H   0  0  0  0  0  0  0  0  0  0  0  0
   21.0139   19.0380   25.5875 H   0  0  0  0  0  0  0  0  0  0  0  0
   20.0772   19.9407   23.8672 C   0  0  0  0  0  0  0  0  0  0  0  0
   19.1477   20.1956   24.3934 H   0  0  0  0  0  0  0  0  0  0  0  0
   20.7418   20.8096   23.9711 H   0  0  0  0  0  0  0  0  0  0  0  0
   19.7927   19.7024   22.3616 C   0  0  0  0  0  0  0  0  0  0  0  0
   19.0190   18.9340   22.2402 H   0  0  0  0  0  0  0  0  0  0  0  0
   20.7032   19.3085   21.8911 H   0  0  0  0  0  0  0  0  0  0  0  0
   19.3635   20.9797   21.6046 C   0  0  2  0  0  0  0  0  0  0  0  0
   20.1280   21.7464   21.7640 H   0  0  0  0  0  0  0  0  0  0  0  0
   18.0147   21.5246   22.1077 C   0  0  0  0  0  0  0  0  0  0  0  0
   17.2246   20.7682   22.0226 H   0  0  0  0  0  0  0  0  0  0  0  0
   18.0780   21.8393   23.1557 H   0  0  0  0  0  0  0  0  0  0  0  0
   17.7103   22.4017   21.5234 H   0  0  0  0  0  0  0  0  0  0  0  0
   19.3073   20.7387   20.1217 N   0  3  0  0  0  0  0  0  0  0  0  0
   20.2085   20.4161   19.7577 H   0  0  0  0  0  0  0  0  0  0  0  0
   19.0618   21.5930   19.6132 H   0  0  0  0  0  0  0  0  0  0  0  0
   18.6078   20.0302   19.8841 H   0  0  0  0  0  0  0  0  0  0  0  0
  1  2  1  0  0  0  0
  1  3  1  0  0  0  0
  1  4  1  0  0  0  0
  1  5  1  0  0  0  0
  5  6  1  0  0  0  0
  5  7  1  0  0  0  0
  5  8  1  0  0  0  0
  8  9  1  0  0  0  0
  8 10  1  0  0  0  0
  8 11  1  0  0  0  0
 11 12  1  0  0  0  0
 11 13  1  0  0  0  0
 11 14  1  0  0  0  0
 14 15  1  0  0  0  0
 14 16  1  0  0  0  0
 14 17  1  0  0  0  0
 17 18  1  0  0  0  0
 17 19  1  0  0  0  0
 17 20  1  0  0  0  0
 20 21  1  0  0  0  0
 20 22  1  0  0  0  0
 22 23  1  0  0  0  0
 22 24  1  0  0  0  0
 22 25  1  0  0  0  0
 20 26  1  0  0  0  0
 26 27  1  0  0  0  0
 26 28  1  0  0  0  0
 26 29  1  0  0  0  0
M  END
> <VConfSearch Rank>
106

> <Conf_Id>
73

> <Delta U+W>
1.580

> <U+W>
-26.246

> <U>
25.821

> <W>
-52.067

> <W(PB)>
-54.581

> <W(SA)>
2.514

> <Valence>
4.779

> <Coulomb>
19.614

> <VdW>
1.428

> <VdW6>
-9.390

> <VdW12>
10.818

> <Bond>
0.283

> <Angle>
1.640

> <Pdih>
2.856

> <Idih>
0.000

> <Tether>
0.000

$$$$
VeraChem MOL file


 29 28  0  0  0  0  0  0  0  0999 V2000     
   18.1911   22.9480   25.0288 C   0  0  0  0  0  0  0  0  0  0  0  0
   19.2566   23.1773   25.1607 H   0  0  0  0  0  0  0  0  0  0  0  0
   17.6622   23.8936   24.8522 H   0  0  0  0  0  0  0  0  0  0  0  0
   17.8143   22.5212   25.9676 H   0  0  0  0  0  0  0  0  0  0  0  0
   17.9747   21.9744   23.8510 C   0  0  0  0  0  0  0  0  0  0  0  0
   18.3307   22.4413   22.9218 H   0  0  0  0  0  0  0  0  0  0  0  0
   16.8986   21.7921   23.7223 H   0  0  0  0  0  0  0  0  0  0  0  0
   18.7085   20.6337   24.0748 C   0  0  0  0  0  0  0  0  0  0  0  0
   19.7794   20.8319   24.2117 H   0  0  0  0  0  0  0  0  0  0  0  0
   18.3474   20.1699   25.0031 H   0  0  0  0  0  0  0  0  0  0  0  0
   18.4958   19.6588   22.8917 C   0  0  0  0  0  0  0  0  0  0  0  0
   18.9097   20.0953   21.9722 H   0  0  0  0  0  0  0  0  0  0  0  0
   17.4174   19.5402   22.7178 H   0  0  0  0  0  0  0  0  0  0  0  0
   19.1102   18.2561   23.1227 C   0  0  0  0  0  0  0  0  0  0  0  0
   18.6933   17.8194   24.0408 H   0  0  0  0  0  0  0  0  0  0  0  0
   18.7896   17.6061   22.2981 H   0  0  0  0  0  0  0  0  0  0  0  0
   20.6585   18.2641   23.2041 C   0  0  0  0  0  0  0  0  0  0  0  0
   20.9745   18.8937   24.0450 H   0  0  0  0  0  0  0  0  0  0  0  0
   21.0763   18.7184   22.2959 H   0  0  0  0  0  0  0  0  0  0  0  0
   21.2580   16.8547   23.4018 C   0  0  2  0  0  0  0  0  0  0  0  0
   20.8003   16.4088   24.2903 H   0  0  0  0  0  0  0  0  0  0  0  0
   22.7745   16.9470   23.6350 C   0  0  0  0  0  0  0  0  0  0  0  0
   22.9971   17.5645   24.5142 H   0  0  0  0  0  0  0  0  0  0  0  0
   23.2016   15.9520   23.8109 H   0  0  0  0  0  0  0  0  0  0  0  0
   23.2830   17.3893   22.7691 H   0  0  0  0  0  0  0  0  0  0  0  0
   20.9589   15.9331   22.2510 N   0  3  0  0  0  0  0  0  0  0  0  0
   21.3492   14.9995   22.4083 H   0  0  0  0  0  0  0  0  0  0  0  0
   21.3551   16.2878   21.3765 H   0  0  0  0  0  0  0  0  0  0  0  0
   19.9509   15.8238   22.1113 H   0  0  0  0  0  0  0  0  0  0  0  0
  1  2  1  0  0  0  0
  1  3  1  0  0  0  0
  1  4  1  0  0  0  0
  1  5  1  0  0  0  0
  5  6  1  0  0  0  0
  5  7  1  0  0  0  0
  5  8  1  0  0  0  0
  8  9  1  0  0  0  0
  8 10  1  0  0  0  0
  8 11  1  0  0  0  0
 11 12  1  0  0  0  0
 11 13  1  0  0  0  0
 11 14  1  0  0  0  0
 14 15  1  0  0  0  0
 14 16  1  0  0  0  0
 14 17  1  0  0  0  0
 17 18  1  0  0  0  0
 17 19  1  0  0  0  0
 17 20  1  0  0  0  0
 20 21  1  0  0  0  0
 20 22  1  0  0  0  0
 22 23  1  0  0  0  0
 22 24  1  0  0  0  0
 22 25  1  0  0  0  0
 20 26  1  0  0  0  0
 26 27  1  0  0  0  0
 26 28  1  0  0  0  0
 26 29  1  0  0  0  0
M  END
> <VConfSearch Rank>
107

> <Conf_Id>
111

> <Delta U+W>
0.580

> <U+W>
-27.246

> <U>
24.710

> <W>
-51.957

> <W(PB)>
-54.511

> <W(SA)>
2.555

> <Valence>
3.735

> <Coulomb>
19.760

> <VdW>
1.216

> <VdW6>
-8.624

> <VdW12>
9.840

> <Bond>
0.236

> <Angle>
1.168

> <Pdih>
2.330

> <Idih>
0.000

> <Tether>
0.000

$$$$
VeraChem MOL file


 29 28  0  0  0  0  0  0  0  0999 V2000     
   22.2902   22.0661   21.5958 C   0  0  0  0  0  0  0  0  0  0  0  0
   22.7464   22.3539   22.5520 H   0  0  0  0  0  0  0  0  0  0  0  0
   22.7937   21.1593   21.2358 H   0  0  0  0  0  0  0  0  0  0  0  0
   22.4857   22.8694   20.8737 H   0  0  0  0  0  0  0  0  0  0  0  0
   20.7728   21.8325   21.7534 C   0  0  0  0  0  0  0  0  0  0  0  0
   20.3393   21.5788   20.7758 H   0  0  0  0  0  0  0  0  0  0  0  0
   20.2928   22.7654   22.0808 H   0  0  0  0  0  0  0  0  0  0  0  0
   20.4696   20.7061   22.7660 C   0  0  0  0  0  0  0  0  0  0  0  0
   20.9616   19.7830   22.4324 H   0  0  0  0  0  0  0  0  0  0  0  0
   20.9031   20.9650   23.7418 H   0  0  0  0  0  0  0  0  0  0  0  0
   18.9484   20.4683   22.9218 C   0  0  0  0  0  0  0  0  0  0  0  0
   18.5211   20.1586   21.9580 H   0  0  0  0  0  0  0  0  0  0  0  0
   18.4624   21.4184   23.1833 H   0  0  0  0  0  0  0  0  0  0  0  0
   18.5953   19.4216   24.0069 C   0  0  0  0  0  0  0  0  0  0  0  0
   18.9993   19.7560   24.9716 H   0  0  0  0  0  0  0  0  0  0  0  0
   17.5028   19.3920   24.1203 H   0  0  0  0  0  0  0  0  0  0  0  0
   19.1075   17.9959   23.6770 C   0  0  0  0  0  0  0  0  0  0  0  0
   20.2045   17.9753   23.6968 H   0  0  0  0  0  0  0  0  0  0  0  0
   18.8073   17.7445   22.6513 H   0  0  0  0  0  0  0  0  0  0  0  0
   18.5607   16.9073   24.6282 C   0  0  2  0  0  0  0  0  0  0  0  0
   17.4679   16.9649   24.6236 H   0  0  0  0  0  0  0  0  0  0  0  0
   19.0527   17.1016   26.0737 C   0  0  0  0  0  0  0  0  0  0  0  0
   20.1488   17.1106   26.1219 H   0  0  0  0  0  0  0  0  0  0  0  0
   18.6821   18.0419   26.4978 H   0  0  0  0  0  0  0  0  0  0  0  0
   18.6906   16.2904   26.7173 H   0  0  0  0  0  0  0  0  0  0  0  0
   18.9149   15.5307   24.1383 N   0  3  0  0  0  0  0  0  0  0  0  0
   18.5590   15.3639   23.1926 H   0  0  0  0  0  0  0  0  0  0  0  0
   18.5206   14.8054   24.7443 H   0  0  0  0  0  0  0  0  0  0  0  0
   19.9286   15.3913   24.1148 H   0  0  0  0  0  0  0  0  0  0  0  0
  1  2  1  0  0  0  0
  1  3  1  0  0  0  0
  1  4  1  0  0  0  0
  1  5  1  0  0  0  0
  5  6  1  0  0  0  0
  5  7  1  0  0  0  0
  5  8  1  0  0  0  0
  8  9  1  0  0  0  0
  8 10  1  0  0  0  0
  8 11  1  0  0  0  0
 11 12  1  0  0  0  0
 11 13  1  0  0  0  0
 11 14  1  0  0  0  0
 14 15  1  0  0  0  0
 14 16  1  0  0  0  0
 14 17  1  0  0  0  0
 17 18  1  0  0  0  0
 17 19  1  0  0  0  0
 17 20  1  0  0  0  0
 20 21  1  0  0  0  0
 20 22  1  0  0  0  0
 22 23  1  0  0  0  0
 22 24  1  0  0  0  0
 22 25  1  0  0  0  0
 20 26  1  0  0  0  0
 26 27  1  0  0  0  0
 26 28  1  0  0  0  0
 26 29  1  0  0  0  0
M  END
> <VConfSearch Rank>
108

> <Conf_Id>
39

> <Delta U+W>
0.965

> <U+W>
-26.861

> <U>
25.129

> <W>
-51.990

> <W(PB)>
-54.526

> <W(SA)>
2.536

> <Valence>
4.206

> <Coulomb>
19.678

> <VdW>
1.245

> <VdW6>
-8.834

> <VdW12>
10.079

> <Bond>
0.240

> <Angle>
1.353

> <Pdih>
2.613

> <Idih>
0.000

> <Tether>
0.000

$$$$
VeraChem MOL file


 29 28  0  0  0  0  0  0  0  0999 V2000     
   19.2622   23.0750   24.9078 C   0  0  0  0  0  0  0  0  0  0  0  0
   19.0762   23.4250   23.8841 H   0  0  0  0  0  0  0  0  0  0  0  0
   18.3536   22.5811   25.2734 H   0  0  0  0  0  0  0  0  0  0  0  0
   19.4333   23.9573   25.5381 H   0  0  0  0  0  0  0  0  0  0  0  0
   20.4840   22.1297   24.9587 C   0  0  0  0  0  0  0  0  0  0  0  0
   20.6281   21.7657   25.9855 H   0  0  0  0  0  0  0  0  0  0  0  0
   21.3855   22.7059   24.7077 H   0  0  0  0  0  0  0  0  0  0  0  0
   20.3777   20.9292   23.9874 C   0  0  0  0  0  0  0  0  0  0  0  0
   20.2346   21.2985   22.9626 H   0  0  0  0  0  0  0  0  0  0  0  0
   21.3399   20.4016   23.9957 H   0  0  0  0  0  0  0  0  0  0  0  0
   19.2407   19.9405   24.3512 C   0  0  0  0  0  0  0  0  0  0  0  0
   18.2809   20.4727   24.3502 H   0  0  0  0  0  0  0  0  0  0  0  0
   19.3863   19.5678   25.3744 H   0  0  0  0  0  0  0  0  0  0  0  0
   19.1239   18.7446   23.3742 C   0  0  0  0  0  0  0  0  0  0  0  0
   18.2150   18.1844   23.6298 H   0  0  0  0  0  0  0  0  0  0  0  0
   18.9765   19.1270   22.3555 H   0  0  0  0  0  0  0  0  0  0  0  0
   20.3486   17.7901   23.4159 C   0  0  0  0  0  0  0  0  0  0  0  0
   20.5518   17.5074   24.4571 H   0  0  0  0  0  0  0  0  0  0  0  0
   21.2429   18.3193   23.0645 H   0  0  0  0  0  0  0  0  0  0  0  0
   20.1929   16.4982   22.5792 C   0  0  2  0  0  0  0  0  0  0  0  0
   21.1131   15.9186   22.7018 H   0  0  0  0  0  0  0  0  0  0  0  0
   20.0276   16.7983   21.0793 C   0  0  0  0  0  0  0  0  0  0  0  0
   19.0754   17.2998   20.8689 H   0  0  0  0  0  0  0  0  0  0  0  0
   20.8413   17.4393   20.7180 H   0  0  0  0  0  0  0  0  0  0  0  0
   20.0527   15.8690   20.4971 H   0  0  0  0  0  0  0  0  0  0  0  0
   19.0789   15.6200   23.0789 N   0  3  0  0  0  0  0  0  0  0  0  0
   19.2043   15.3802   24.0666 H   0  0  0  0  0  0  0  0  0  0  0  0
   19.0310   14.7418   22.5543 H   0  0  0  0  0  0  0  0  0  0  0  0
   18.1712   16.0826   22.9866 H   0  0  0  0  0  0  0  0  0  0  0  0
  1  2  1  0  0  0  0
  1  3  1  0  0  0  0
  1  4  1  0  0  0  0
  1  5  1  0  0  0  0
  5  6  1  0  0  0  0
  5  7  1  0  0  0  0
  5  8  1  0  0  0  0
  8  9  1  0  0  0  0
  8 10  1  0  0  0  0
  8 11  1  0  0  0  0
 11 12  1  0  0  0  0
 11 13  1  0  0  0  0
 11 14  1  0  0  0  0
 14 15  1  0  0  0  0
 14 16  1  0  0  0  0
 14 17  1  0  0  0  0
 17 18  1  0  0  0  0
 17 19  1  0  0  0  0
 17 20  1  0  0  0  0
 20 21  1  0  0  0  0
 20 22  1  0  0  0  0
 22 23  1  0  0  0  0
 22 24  1  0  0  0  0
 22 25  1  0  0  0  0
 20 26  1  0  0  0  0
 26 27  1  0  0  0  0
 26 28  1  0  0  0  0
 26 29  1  0  0  0  0
M  END
> <VConfSearch Rank>
109

> <Conf_Id>
155

> <Delta U+W>
1.624

> <U+W>
-26.202

> <U>
25.894

> <W>
-52.096

> <W(PB)>
-54.602

> <W(SA)>
2.506

> <Valence>
4.779

> <Coulomb>
19.659

> <VdW>
1.456

> <VdW6>
-9.843

> <VdW12>
11.299

> <Bond>
0.315

> <Angle>
1.725

> <Pdih>
2.740

> <Idih>
0.000

> <Tether>
0.000

$$$$
VeraChem MOL file


 29 28  0  0  0  0  0  0  0  0999 V2000     
   18.2500   15.3163   23.7644 C   0  0  0  0  0  0  0  0  0  0  0  0
   19.2688   15.2269   24.1614 H   0  0  0  0  0  0  0  0  0  0  0  0
   17.6315   15.8256   24.5148 H   0  0  0  0  0  0  0  0  0  0  0  0
   17.8548   14.3002   23.6368 H   0  0  0  0  0  0  0  0  0  0  0  0
   18.2305   16.0771   22.4193 C   0  0  0  0  0  0  0  0  0  0  0  0
   17.2131   16.0404   22.0056 H   0  0  0  0  0  0  0  0  0  0  0  0
   18.8761   15.5623   21.6942 H   0  0  0  0  0  0  0  0  0  0  0  0
   18.6625   17.5578   22.5465 C   0  0  0  0  0  0  0  0  0  0  0  0
   18.5248   18.0466   21.5722 H   0  0  0  0  0  0  0  0  0  0  0  0
   17.9896   18.0668   23.2487 H   0  0  0  0  0  0  0  0  0  0  0  0
   20.1354   17.7296   22.9969 C   0  0  0  0  0  0  0  0  0  0  0  0
   20.7769   17.1027   22.3624 H   0  0  0  0  0  0  0  0  0  0  0  0
   20.2611   17.3615   24.0237 H   0  0  0  0  0  0  0  0  0  0  0  0
   20.6434   19.1903   22.9138 C   0  0  0  0  0  0  0  0  0  0  0  0
   21.7216   19.1827   23.1180 H   0  0  0  0  0  0  0  0  0  0  0  0
   20.5250   19.5632   21.8871 H   0  0  0  0  0  0  0  0  0  0  0  0
   19.9326   20.1491   23.9044 C   0  0  0  0  0  0  0  0  0  0  0  0
   20.0610   19.7828   24.9315 H   0  0  0  0  0  0  0  0  0  0  0  0
   18.8549   20.1372   23.7015 H   0  0  0  0  0  0  0  0  0  0  0  0
   20.4185   21.6138   23.8102 C   0  0  2  0  0  0  0  0  0  0  0  0
   20.3377   21.9360   22.7675 H   0  0  0  0  0  0  0  0  0  0  0  0
   21.8826   21.7727   24.2584 C   0  0  0  0  0  0  0  0  0  0  0  0
   22.0282   21.3975   25.2791 H   0  0  0  0  0  0  0  0  0  0  0  0
   22.5658   21.2331   23.5927 H   0  0  0  0  0  0  0  0  0  0  0  0
   22.1798   22.8284   24.2390 H   0  0  0  0  0  0  0  0  0  0  0  0
   19.5316   22.5303   24.6065 N   0  3  0  0  0  0  0  0  0  0  0  0
   18.5572   22.4762   24.2960 H   0  0  0  0  0  0  0  0  0  0  0  0
   19.8260   23.5070   24.5161 H   0  0  0  0  0  0  0  0  0  0  0  0
   19.5507   22.2965   25.6029 H   0  0  0  0  0  0  0  0  0  0  0  0
  1  2  1  0  0  0  0
  1  3  1  0  0  0  0
  1  4  1  0  0  0  0
  1  5  1  0  0  0  0
  5  6  1  0  0  0  0
  5  7  1  0  0  0  0
  5  8  1  0  0  0  0
  8  9  1  0  0  0  0
  8 10  1  0  0  0  0
  8 11  1  0  0  0  0
 11 12  1  0  0  0  0
 11 13  1  0  0  0  0
 11 14  1  0  0  0  0
 14 15  1  0  0  0  0
 14 16  1  0  0  0  0
 14 17  1  0  0  0  0
 17 18  1  0  0  0  0
 17 19  1  0  0  0  0
 17 20  1  0  0  0  0
 20 21  1  0  0  0  0
 20 22  1  0  0  0  0
 22 23  1  0  0  0  0
 22 24  1  0  0  0  0
 22 25  1  0  0  0  0
 20 26  1  0  0  0  0
 26 27  1  0  0  0  0
 26 28  1  0  0  0  0
 26 29  1  0  0  0  0
M  END
> <VConfSearch Rank>
110

> <Conf_Id>
135

> <Delta U+W>
1.581

> <U+W>
-26.245

> <U>
25.974

> <W>
-52.219

> <W(PB)>
-54.709

> <W(SA)>
2.490

> <Valence>
4.811

> <Coulomb>
19.700

> <VdW>
1.463

> <VdW6>
-9.391

> <VdW12>
10.854

> <Bond>
0.285

> <Angle>
1.671

> <Pdih>
2.855

> <Idih>
0.000

> <Tether>
0.000

$$$$
VeraChem MOL file


 29 28  0  0  0  0  0  0  0  0999 V2000     
   18.1097   22.7466   24.4177 C   0  0  0  0  0  0  0  0  0  0  0  0
   18.5163   22.9420   23.4169 H   0  0  0  0  0  0  0  0  0  0  0  0
   17.2112   22.1266   24.3091 H   0  0  0  0  0  0  0  0  0  0  0  0
   17.7979   23.7075   24.8471 H   0  0  0  0  0  0  0  0  0  0  0  0
   19.1623   22.0662   25.3218 C   0  0  0  0  0  0  0  0  0  0  0  0
   18.7234   21.8577   26.3075 H   0  0  0  0  0  0  0  0  0  0  0  0
   19.9885   22.7697   25.4957 H   0  0  0  0  0  0  0  0  0  0  0  0
   19.7380   20.7625   24.7185 C   0  0  0  0  0  0  0  0  0  0  0  0
   20.1993   20.9895   23.7483 H   0  0  0  0  0  0  0  0  0  0  0  0
   20.5455   20.4025   25.3708 H   0  0  0  0  0  0  0  0  0  0  0  0
   18.6799   19.6422   24.5562 C   0  0  0  0  0  0  0  0  0  0  0  0
   17.9268   19.9400   23.8148 H   0  0  0  0  0  0  0  0  0  0  0  0
   18.1450   19.5136   25.5072 H   0  0  0  0  0  0  0  0  0  0  0  0
   19.2878   18.2789   24.1452 C   0  0  0  0  0  0  0  0  0  0  0  0
   20.0109   17.9642   24.9092 H   0  0  0  0  0  0  0  0  0  0  0  0
   18.4878   17.5257   24.1447 H   0  0  0  0  0  0  0  0  0  0  0  0
   19.9606   18.3029   22.7485 C   0  0  0  0  0  0  0  0  0  0  0  0
   20.8466   18.9502   22.7682 H   0  0  0  0  0  0  0  0  0  0  0  0
   19.2609   18.7509   22.0307 H   0  0  0  0  0  0  0  0  0  0  0  0
   20.3633   16.9030   22.2320 C   0  0  2  0  0  0  0  0  0  0  0  0
   19.4770   16.2614   22.2529 H   0  0  0  0  0  0  0  0  0  0  0  0
   21.4540   16.2560   23.1042 C   0  0  0  0  0  0  0  0  0  0  0  0
   22.3451   16.8933   23.1628 H   0  0  0  0  0  0  0  0  0  0  0  0
   21.0936   16.0743   24.1233 H   0  0  0  0  0  0  0  0  0  0  0  0
   21.7558   15.2864   22.6893 H   0  0  0  0  0  0  0  0  0  0  0  0
   20.8105   16.9617   20.7978 N   0  3  0  0  0  0  0  0  0  0  0  0
   21.0405   16.0303   20.4395 H   0  0  0  0  0  0  0  0  0  0  0  0
   21.6445   17.5451   20.6896 H   0  0  0  0  0  0  0  0  0  0  0  0
   20.0822   17.3499   20.1913 H   0  0  0  0  0  0  0  0  0  0  0  0
  1  2  1  0  0  0  0
  1  3  1  0  0  0  0
  1  4  1  0  0  0  0
  1  5  1  0  0  0  0
  5  6  1  0  0  0  0
  5  7  1  0  0  0  0
  5  8  1  0  0  0  0
  8  9  1  0  0  0  0
  8 10  1  0  0  0  0
  8 11  1  0  0  0  0
 11 12  1  0  0  0  0
 11 13  1  0  0  0  0
 11 14  1  0  0  0  0
 14 15  1  0  0  0  0
 14 16  1  0  0  0  0
 14 17  1  0  0  0  0
 17 18  1  0  0  0  0
 17 19  1  0  0  0  0
 17 20  1  0  0  0  0
 20 21  1  0  0  0  0
 20 22  1  0  0  0  0
 22 23  1  0  0  0  0
 22 24  1  0  0  0  0
 22 25  1  0  0  0  0
 20 26  1  0  0  0  0
 26 27  1  0  0  0  0
 26 28  1  0  0  0  0
 26 29  1  0  0  0  0
M  END
> <VConfSearch Rank>
111

> <Conf_Id>
130

> <Delta U+W>
1.359

> <U+W>
-26.467

> <U>
25.687

> <W>
-52.154

> <W(PB)>
-54.643

> <W(SA)>
2.489

> <Valence>
4.682

> <Coulomb>
19.653

> <VdW>
1.352

> <VdW6>
-9.477

> <VdW12>
10.829

> <Bond>
0.274

> <Angle>
1.550

> <Pdih>
2.858

> <Idih>
0.000

> <Tether>
0.000

$$$$
VeraChem MOL file


 29 28  0  0  0  0  0  0  0  0999 V2000     
   23.7707   19.8256   23.8784 C   0  0  0  0  0  0  0  0  0  0  0  0
   24.5310   20.3544   24.4677 H   0  0  0  0  0  0  0  0  0  0  0  0
   24.2683   19.0019   23.3503 H   0  0  0  0  0  0  0  0  0  0  0  0
   23.3842   20.5301   23.1317 H   0  0  0  0  0  0  0  0  0  0  0  0
   22.6457   19.2974   24.7972 C   0  0  0  0  0  0  0  0  0  0  0  0
   22.1421   20.1419   25.2879 H   0  0  0  0  0  0  0  0  0  0  0  0
   23.0976   18.6998   25.6012 H   0  0  0  0  0  0  0  0  0  0  0  0
   21.6031   18.4249   24.0572 C   0  0  0  0  0  0  0  0  0  0  0  0
   22.1099   17.5726   23.5842 H   0  0  0  0  0  0  0  0  0  0  0  0
   20.9217   17.9995   24.8046 H   0  0  0  0  0  0  0  0  0  0  0  0
   20.7925   19.2058   22.9911 C   0  0  0  0  0  0  0  0  0  0  0  0
   21.4784   19.5676   22.2143 H   0  0  0  0  0  0  0  0  0  0  0  0
   20.3462   20.0976   23.4474 H   0  0  0  0  0  0  0  0  0  0  0  0
   19.7021   18.3435   22.3035 C   0  0  0  0  0  0  0  0  0  0  0  0
   19.3726   18.8367   21.3785 H   0  0  0  0  0  0  0  0  0  0  0  0
   20.1606   17.3980   21.9824 H   0  0  0  0  0  0  0  0  0  0  0  0
   18.4647   18.0301   23.1897 C   0  0  0  0  0  0  0  0  0  0  0  0
   18.7328   18.0312   24.2530 H   0  0  0  0  0  0  0  0  0  0  0  0
   18.1438   17.0046   22.9640 H   0  0  0  0  0  0  0  0  0  0  0  0
   17.2510   18.9607   22.9546 C   0  0  2  0  0  0  0  0  0  0  0  0
   16.9814   18.9080   21.8953 H   0  0  0  0  0  0  0  0  0  0  0  0
   17.5517   20.4285   23.3016 C   0  0  0  0  0  0  0  0  0  0  0  0
   18.3070   20.8457   22.6257 H   0  0  0  0  0  0  0  0  0  0  0  0
   16.6496   21.0438   23.1965 H   0  0  0  0  0  0  0  0  0  0  0  0
   17.9135   20.5272   24.3326 H   0  0  0  0  0  0  0  0  0  0  0  0
   16.0485   18.4823   23.7199 N   0  3  0  0  0  0  0  0  0  0  0  0
   15.8001   17.5208   23.4698 H   0  0  0  0  0  0  0  0  0  0  0  0
   15.2291   19.0671   23.5322 H   0  0  0  0  0  0  0  0  0  0  0  0
   16.2150   18.5047   24.7296 H   0  0  0  0  0  0  0  0  0  0  0  0
  1  2  1  0  0  0  0
  1  3  1  0  0  0  0
  1  4  1  0  0  0  0
  1  5  1  0  0  0  0
  5  6  1  0  0  0  0
  5  7  1  0  0  0  0
  5  8  1  0  0  0  0
  8  9  1  0  0  0  0
  8 10  1  0  0  0  0
  8 11  1  0  0  0  0
 11 12  1  0  0  0  0
 11 13  1  0  0  0  0
 11 14  1  0  0  0  0
 14 15  1  0  0  0  0
 14 16  1  0  0  0  0
 14 17  1  0  0  0  0
 17 18  1  0  0  0  0
 17 19  1  0  0  0  0
 17 20  1  0  0  0  0
 20 21  1  0  0  0  0
 20 22  1  0  0  0  0
 22 23  1  0  0  0  0
 22 24  1  0  0  0  0
 22 25  1  0  0  0  0
 20 26  1  0  0  0  0
 26 27  1  0  0  0  0
 26 28  1  0  0  0  0
 26 29  1  0  0  0  0
M  END
> <VConfSearch Rank>
112

> <Conf_Id>
157

> <Delta U+W>
4.354

> <U+W>
-23.472

> <U>
28.780

> <W>
-52.252

> <W(PB)>
-54.715

> <W(SA)>
2.462

> <Valence>
7.566

> <Coulomb>
19.822

> <VdW>
1.392

> <VdW6>
-10.248

> <VdW12>
11.641

> <Bond>
0.340

> <Angle>
2.096

> <Pdih>
5.129

> <Idih>
0.000

> <Tether>
0.000

$$$$
VeraChem MOL file


 29 28  0  0  0  0  0  0  0  0999 V2000     
   16.8182   21.0381   24.7935 C   0  0  0  0  0  0  0  0  0  0  0  0
   15.8754   20.9349   25.3461 H   0  0  0  0  0  0  0  0  0  0  0  0
   17.6105   20.5867   25.4009 H   0  0  0  0  0  0  0  0  0  0  0  0
   17.0339   22.1104   24.7007 H   0  0  0  0  0  0  0  0  0  0  0  0
   16.7038   20.3764   23.4004 C   0  0  0  0  0  0  0  0  0  0  0  0
   15.8822   20.8665   22.8595 H   0  0  0  0  0  0  0  0  0  0  0  0
   16.4124   19.3216   23.5008 H   0  0  0  0  0  0  0  0  0  0  0  0
   17.9965   20.5007   22.5535 C   0  0  0  0  0  0  0  0  0  0  0  0
   17.7045   20.6441   21.5040 H   0  0  0  0  0  0  0  0  0  0  0  0
   18.5480   21.4090   22.8330 H   0  0  0  0  0  0  0  0  0  0  0  0
   18.9355   19.2682   22.6111 C   0  0  0  0  0  0  0  0  0  0  0  0
   19.7673   19.4491   21.9182 H   0  0  0  0  0  0  0  0  0  0  0  0
   18.4034   18.3872   22.2267 H   0  0  0  0  0  0  0  0  0  0  0  0
   19.4912   18.9566   24.0226 C   0  0  0  0  0  0  0  0  0  0  0  0
   19.9511   19.8569   24.4508 H   0  0  0  0  0  0  0  0  0  0  0  0
   18.6584   18.6892   24.6854 H   0  0  0  0  0  0  0  0  0  0  0  0
   20.5033   17.7820   24.0376 C   0  0  0  0  0  0  0  0  0  0  0  0
   19.9967   16.8746   23.6826 H   0  0  0  0  0  0  0  0  0  0  0  0
   20.7996   17.5808   25.0757 H   0  0  0  0  0  0  0  0  0  0  0  0
   21.7699   18.0181   23.1844 C   0  0  2  0  0  0  0  0  0  0  0  0
   21.4627   18.1854   22.1480 H   0  0  0  0  0  0  0  0  0  0  0  0
   22.6766   16.7777   23.2192 C   0  0  0  0  0  0  0  0  0  0  0  0
   23.0218   16.5665   24.2390 H   0  0  0  0  0  0  0  0  0  0  0  0
   22.1418   15.8940   22.8494 H   0  0  0  0  0  0  0  0  0  0  0  0
   23.5584   16.9235   22.5831 H   0  0  0  0  0  0  0  0  0  0  0  0
   22.5305   19.2426   23.6133 N   0  3  0  0  0  0  0  0  0  0  0  0
   21.9456   20.0808   23.5565 H   0  0  0  0  0  0  0  0  0  0  0  0
   23.3523   19.3993   23.0229 H   0  0  0  0  0  0  0  0  0  0  0  0
   22.8576   19.1585   24.5794 H   0  0  0  0  0  0  0  0  0  0  0  0
  1  2  1  0  0  0  0
  1  3  1  0  0  0  0
  1  4  1  0  0  0  0
  1  5  1  0  0  0  0
  5  6  1  0  0  0  0
  5  7  1  0  0  0  0
  5  8  1  0  0  0  0
  8  9  1  0  0  0  0
  8 10  1  0  0  0  0
  8 11  1  0  0  0  0
 11 12  1  0  0  0  0
 11 13  1  0  0  0  0
 11 14  1  0  0  0  0
 14 15  1  0  0  0  0
 14 16  1  0  0  0  0
 14 17  1  0  0  0  0
 17 18  1  0  0  0  0
 17 19  1  0  0  0  0
 17 20  1  0  0  0  0
 20 21  1  0  0  0  0
 20 22  1  0  0  0  0
 22 23  1  0  0  0  0
 22 24  1  0  0  0  0
 22 25  1  0  0  0  0
 20 26  1  0  0  0  0
 26 27  1  0  0  0  0
 26 28  1  0  0  0  0
 26 29  1  0  0  0  0
M  END
> <VConfSearch Rank>
113

> <Conf_Id>
158

> <Delta U+W>
3.648

> <U+W>
-24.178

> <U>
28.057

> <W>
-52.235

> <W(PB)>
-54.696

> <W(SA)>
2.460

> <Valence>
6.543

> <Coulomb>
20.387

> <VdW>
1.127

> <VdW6>
-10.342

> <VdW12>
11.469

> <Bond>
0.308

> <Angle>
1.938

> <Pdih>
4.297

> <Idih>
0.000

> <Tether>
0.000

$$$$
VeraChem MOL file


 29 28  0  0  0  0  0  0  0  0999 V2000     
   17.7113   20.6326   26.1015 C   0  0  0  0  0  0  0  0  0  0  0  0
   17.1731   19.6823   26.2124 H   0  0  0  0  0  0  0  0  0  0  0  0
   18.7807   20.4427   26.2550 H   0  0  0  0  0  0  0  0  0  0  0  0
   17.3772   21.3031   26.9038 H   0  0  0  0  0  0  0  0  0  0  0  0
   17.4394   21.2670   24.7186 C   0  0  0  0  0  0  0  0  0  0  0  0
   18.0138   22.1988   24.6199 H   0  0  0  0  0  0  0  0  0  0  0  0
   16.3795   21.5518   24.6623 H   0  0  0  0  0  0  0  0  0  0  0  0
   17.7633   20.3243   23.5347 C   0  0  0  0  0  0  0  0  0  0  0  0
   17.1733   19.4022   23.6286 H   0  0  0  0  0  0  0  0  0  0  0  0
   17.4355   20.8077   22.6040 H   0  0  0  0  0  0  0  0  0  0  0  0
   19.2658   19.9727   23.4197 C   0  0  0  0  0  0  0  0  0  0  0  0
   19.5903   19.4418   24.3212 H   0  0  0  0  0  0  0  0  0  0  0  0
   19.8539   20.8995   23.3723 H   0  0  0  0  0  0  0  0  0  0  0  0
   19.5579   19.1156   22.1635 C   0  0  0  0  0  0  0  0  0  0  0  0
   18.9228   18.2189   22.1536 H   0  0  0  0  0  0  0  0  0  0  0  0
   19.2715   19.6990   21.2774 H   0  0  0  0  0  0  0  0  0  0  0  0
   21.0502   18.7130   22.0259 C   0  0  0  0  0  0  0  0  0  0  0  0
   21.6924   19.4563   22.5165 H   0  0  0  0  0  0  0  0  0  0  0  0
   21.3100   18.7512   20.9597 H   0  0  0  0  0  0  0  0  0  0  0  0
   21.3904   17.2920   22.5364 C   0  0  2  0  0  0  0  0  0  0  0  0
   20.7676   16.5764   21.9907 H   0  0  0  0  0  0  0  0  0  0  0  0
   21.1180   17.1150   24.0397 C   0  0  0  0  0  0  0  0  0  0  0  0
   21.6470   17.8722   24.6317 H   0  0  0  0  0  0  0  0  0  0  0  0
   20.0460   17.1881   24.2563 H   0  0  0  0  0  0  0  0  0  0  0  0
   21.4482   16.1255   24.3789 H   0  0  0  0  0  0  0  0  0  0  0  0
   22.8165   16.9346   22.2221 N   0  3  0  0  0  0  0  0  0  0  0  0
   23.0090   16.9982   21.2182 H   0  0  0  0  0  0  0  0  0  0  0  0
   23.0353   15.9778   22.5141 H   0  0  0  0  0  0  0  0  0  0  0  0
   23.4722   17.5577   22.7013 H   0  0  0  0  0  0  0  0  0  0  0  0
  1  2  1  0  0  0  0
  1  3  1  0  0  0  0
  1  4  1  0  0  0  0
  1  5  1  0  0  0  0
  5  6  1  0  0  0  0
  5  7  1  0  0  0  0
  5  8  1  0  0  0  0
  8  9  1  0  0  0  0
  8 10  1  0  0  0  0
  8 11  1  0  0  0  0
 11 12  1  0  0  0  0
 11 13  1  0  0  0  0
 11 14  1  0  0  0  0
 14 15  1  0  0  0  0
 14 16  1  0  0  0  0
 14 17  1  0  0  0  0
 17 18  1  0  0  0  0
 17 19  1  0  0  0  0
 17 20  1  0  0  0  0
 20 21  1  0  0  0  0
 20 22  1  0  0  0  0
 22 23  1  0  0  0  0
 22 24  1  0  0  0  0
 22 25  1  0  0  0  0
 20 26  1  0  0  0  0
 26 27  1  0  0  0  0
 26 28  1  0  0  0  0
 26 29  1  0  0  0  0
M  END
> <VConfSearch Rank>
114

> <Conf_Id>
156

> <Delta U+W>
3.393

> <U+W>
-24.433

> <U>
27.713

> <W>
-52.146

> <W(PB)>
-54.603

> <W(SA)>
2.458

> <Valence>
6.758

> <Coulomb>
19.720

> <VdW>
1.235

> <VdW6>
-9.782

> <VdW12>
11.017

> <Bond>
0.287

> <Angle>
1.880

> <Pdih>
4.591

> <Idih>
0.000

> <Tether>
0.000

$$$$
VeraChem MOL file


 29 28  0  0  0  0  0  0  0  0999 V2000     
   18.7734   22.2665   25.6717 C   0  0  0  0  0  0  0  0  0  0  0  0
   18.0601   22.5025   24.8712 H   0  0  0  0  0  0  0  0  0  0  0  0
   18.2248   22.2403   26.6222 H   0  0  0  0  0  0  0  0  0  0  0  0
   19.5025   23.0853   25.7260 H   0  0  0  0  0  0  0  0  0  0  0  0
   19.4828   20.9225   25.4031 C   0  0  0  0  0  0  0  0  0  0  0  0
   20.2103   20.7274   26.2033 H   0  0  0  0  0  0  0  0  0  0  0  0
   20.0513   21.0011   24.4670 H   0  0  0  0  0  0  0  0  0  0  0  0
   18.4745   19.7527   25.3178 C   0  0  0  0  0  0  0  0  0  0  0  0
   17.8648   19.7407   26.2317 H   0  0  0  0  0  0  0  0  0  0  0  0
   17.7725   19.9267   24.4918 H   0  0  0  0  0  0  0  0  0  0  0  0
   19.1453   18.3631   25.1627 C   0  0  0  0  0  0  0  0  0  0  0  0
   18.3608   17.5943   25.1348 H   0  0  0  0  0  0  0  0  0  0  0  0
   19.7379   18.1535   26.0638 H   0  0  0  0  0  0  0  0  0  0  0  0
   20.0572   18.1960   23.9195 C   0  0  0  0  0  0  0  0  0  0  0  0
   20.9140   18.8770   23.9969 H   0  0  0  0  0  0  0  0  0  0  0  0
   20.4737   17.1810   23.9452 H   0  0  0  0  0  0  0  0  0  0  0  0
   19.3133   18.4189   22.5744 C   0  0  0  0  0  0  0  0  0  0  0  0
   18.9220   19.4429   22.5368 H   0  0  0  0  0  0  0  0  0  0  0  0
   18.4381   17.7574   22.5292 H   0  0  0  0  0  0  0  0  0  0  0  0
   20.1745   18.1937   21.3092 C   0  0  2  0  0  0  0  0  0  0  0  0
   19.5489   18.4344   20.4441 H   0  0  0  0  0  0  0  0  0  0  0  0
   20.6220   16.7288   21.1635 C   0  0  0  0  0  0  0  0  0  0  0  0
   21.1049   16.5710   20.1913 H   0  0  0  0  0  0  0  0  0  0  0  0
   21.3387   16.4428   21.9423 H   0  0  0  0  0  0  0  0  0  0  0  0
   19.7617   16.0505   21.2211 H   0  0  0  0  0  0  0  0  0  0  0  0
   21.3526   19.1262   21.2438 N   0  3  0  0  0  0  0  0  0  0  0  0
   21.0588   20.1060   21.2919 H   0  0  0  0  0  0  0  0  0  0  0  0
   21.8765   19.0057   20.3723 H   0  0  0  0  0  0  0  0  0  0  0  0
   22.0007   18.9591   22.0175 H   0  0  0  0  0  0  0  0  0  0  0  0
  1  2  1  0  0  0  0
  1  3  1  0  0  0  0
  1  4  1  0  0  0  0
  1  5  1  0  0  0  0
  5  6  1  0  0  0  0
  5  7  1  0  0  0  0
  5  8  1  0  0  0  0
  8  9  1  0  0  0  0
  8 10  1  0  0  0  0
  8 11  1  0  0  0  0
 11 12  1  0  0  0  0
 11 13  1  0  0  0  0
 11 14  1  0  0  0  0
 14 15  1  0  0  0  0
 14 16  1  0  0  0  0
 14 17  1  0  0  0  0
 17 18  1  0  0  0  0
 17 19  1  0  0  0  0
 17 20  1  0  0  0  0
 20 21  1  0  0  0  0
 20 22  1  0  0  0  0
 22 23  1  0  0  0  0
 22 24  1  0  0  0  0
 22 25  1  0  0  0  0
 20 26  1  0  0  0  0
 26 27  1  0  0  0  0
 26 28  1  0  0  0  0
 26 29  1  0  0  0  0
M  END
> <VConfSearch Rank>
115

> <Conf_Id>
78

> <Delta U+W>
1.477

> <U+W>
-26.349

> <U>
26.385

> <W>
-52.734

> <W(PB)>
-55.179

> <W(SA)>
2.445

> <Valence>
4.726

> <Coulomb>
20.482

> <VdW>
1.177

> <VdW6>
-10.349

> <VdW12>
11.526

> <Bond>
0.319

> <Angle>
1.933

> <Pdih>
2.474

> <Idih>
0.000

> <Tether>
0.000

$$$$
VeraChem MOL file


 29 28  0  0  0  0  0  0  0  0999 V2000     
   19.5400   17.3553   26.8275 C   0  0  0  0  0  0  0  0  0  0  0  0
   20.3147   17.7527   27.4961 H   0  0  0  0  0  0  0  0  0  0  0  0
   18.9283   18.1966   26.4837 H   0  0  0  0  0  0  0  0  0  0  0  0
   18.8948   16.6950   27.4212 H   0  0  0  0  0  0  0  0  0  0  0  0
   20.1740   16.5772   25.6509 C   0  0  0  0  0  0  0  0  0  0  0  0
   19.3919   16.1175   25.0309 H   0  0  0  0  0  0  0  0  0  0  0  0
   20.7553   15.7441   26.0703 H   0  0  0  0  0  0  0  0  0  0  0  0
   21.1147   17.4457   24.7766 C   0  0  0  0  0  0  0  0  0  0  0  0
   21.5562   18.2519   25.3785 H   0  0  0  0  0  0  0  0  0  0  0  0
   21.9591   16.8193   24.4574 H   0  0  0  0  0  0  0  0  0  0  0  0
   20.4609   18.0324   23.4989 C   0  0  0  0  0  0  0  0  0  0  0  0
   20.1199   17.2109   22.8541 H   0  0  0  0  0  0  0  0  0  0  0  0
   21.2422   18.5597   22.9363 H   0  0  0  0  0  0  0  0  0  0  0  0
   19.2795   18.9952   23.7730 C   0  0  0  0  0  0  0  0  0  0  0  0
   18.4689   18.4398   24.2616 H   0  0  0  0  0  0  0  0  0  0  0  0
   19.5885   19.7753   24.4809 H   0  0  0  0  0  0  0  0  0  0  0  0
   18.7014   19.6392   22.4860 C   0  0  0  0  0  0  0  0  0  0  0  0
   17.8467   20.2723   22.7591 H   0  0  0  0  0  0  0  0  0  0  0  0
   18.2971   18.8405   21.8504 H   0  0  0  0  0  0  0  0  0  0  0  0
   19.7052   20.4734   21.6552 C   0  0  2  0  0  0  0  0  0  0  0  0
   20.5422   19.8282   21.3733 H   0  0  0  0  0  0  0  0  0  0  0  0
   20.2590   21.6710   22.4475 C   0  0  0  0  0  0  0  0  0  0  0  0
   20.9267   22.2742   21.8201 H   0  0  0  0  0  0  0  0  0  0  0  0
   19.4490   22.3192   22.8044 H   0  0  0  0  0  0  0  0  0  0  0  0
   20.8414   21.3385   23.3147 H   0  0  0  0  0  0  0  0  0  0  0  0
   19.0845   20.9419   20.3686 N   0  3  0  0  0  0  0  0  0  0  0  0
   18.2883   21.5615   20.5416 H   0  0  0  0  0  0  0  0  0  0  0  0
   18.7465   20.1565   19.8050 H   0  0  0  0  0  0  0  0  0  0  0  0
   19.7566   21.4608   19.7962 H   0  0  0  0  0  0  0  0  0  0  0  0
  1  2  1  0  0  0  0
  1  3  1  0  0  0  0
  1  4  1  0  0  0  0
  1  5  1  0  0  0  0
  5  6  1  0  0  0  0
  5  7  1  0  0  0  0
  5  8  1  0  0  0  0
  8  9  1  0  0  0  0
  8 10  1  0  0  0  0
  8 11  1  0  0  0  0
 11 12  1  0  0  0  0
 11 13  1  0  0  0  0
 11 14  1  0  0  0  0
 14 15  1  0  0  0  0
 14 16  1  0  0  0  0
 14 17  1  0  0  0  0
 17 18  1  0  0  0  0
 17 19  1  0  0  0  0
 17 20  1  0  0  0  0
 20 21  1  0  0  0  0
 20 22  1  0  0  0  0
 22 23  1  0  0  0  0
 22 24  1  0  0  0  0
 22 25  1  0  0  0  0
 20 26  1  0  0  0  0
 26 27  1  0  0  0  0
 26 28  1  0  0  0  0
 26 29  1  0  0  0  0
M  END
> <VConfSearch Rank>
116

> <Conf_Id>
145

> <Delta U+W>
3.784

> <U+W>
-24.042

> <U>
28.220

> <W>
-52.262

> <W(PB)>
-54.724

> <W(SA)>
2.462

> <Valence>
7.040

> <Coulomb>
19.984

> <VdW>
1.197

> <VdW6>
-10.566

> <VdW12>
11.763

> <Bond>
0.320

> <Angle>
2.280

> <Pdih>
4.439

> <Idih>
0.000

> <Tether>
0.000

$$$$
VeraChem MOL file


 29 28  0  0  0  0  0  0  0  0999 V2000     
   16.3441   17.4671   24.4204 C   0  0  0  0  0  0  0  0  0  0  0  0
   15.7254   16.9074   23.7068 H   0  0  0  0  0  0  0  0  0  0  0  0
   17.0266   16.7600   24.9096 H   0  0  0  0  0  0  0  0  0  0  0  0
   15.6798   17.8817   25.1897 H   0  0  0  0  0  0  0  0  0  0  0  0
   17.1270   18.5928   23.7122 C   0  0  0  0  0  0  0  0  0  0  0  0
   17.6987   19.1575   24.4584 H   0  0  0  0  0  0  0  0  0  0  0  0
   16.4162   19.3007   23.2633 H   0  0  0  0  0  0  0  0  0  0  0  0
   18.0624   18.0327   22.6138 C   0  0  0  0  0  0  0  0  0  0  0  0
   18.7348   17.2718   23.0333 H   0  0  0  0  0  0  0  0  0  0  0  0
   17.4424   17.5117   21.8711 H   0  0  0  0  0  0  0  0  0  0  0  0
   18.8838   19.1286   21.8857 C   0  0  0  0  0  0  0  0  0  0  0  0
   18.3435   20.0851   21.9027 H   0  0  0  0  0  0  0  0  0  0  0  0
   18.9588   18.8511   20.8252 H   0  0  0  0  0  0  0  0  0  0  0  0
   20.3265   19.3218   22.4200 C   0  0  0  0  0  0  0  0  0  0  0  0
   20.8828   18.3835   22.2937 H   0  0  0  0  0  0  0  0  0  0  0  0
   20.8228   20.0623   21.7800 H   0  0  0  0  0  0  0  0  0  0  0  0
   20.3986   19.7799   23.9012 C   0  0  0  0  0  0  0  0  0  0  0  0
   19.9810   18.9943   24.5425 H   0  0  0  0  0  0  0  0  0  0  0  0
   19.7635   20.6644   24.0417 H   0  0  0  0  0  0  0  0  0  0  0  0
   21.8219   20.1007   24.4156 C   0  0  2  0  0  0  0  0  0  0  0  0
   21.7363   20.3337   25.4815 H   0  0  0  0  0  0  0  0  0  0  0  0
   22.4275   21.3330   23.7208 C   0  0  0  0  0  0  0  0  0  0  0  0
   23.3693   21.6203   24.2040 H   0  0  0  0  0  0  0  0  0  0  0  0
   22.6406   21.1406   22.6628 H   0  0  0  0  0  0  0  0  0  0  0  0
   21.7465   22.1907   23.7844 H   0  0  0  0  0  0  0  0  0  0  0  0
   22.7470   18.9189   24.3201 N   0  3  0  0  0  0  0  0  0  0  0  0
   22.8920   18.6399   23.3466 H   0  0  0  0  0  0  0  0  0  0  0  0
   22.3731   18.1081   24.8216 H   0  0  0  0  0  0  0  0  0  0  0  0
   23.6659   19.1297   24.7199 H   0  0  0  0  0  0  0  0  0  0  0  0
  1  2  1  0  0  0  0
  1  3  1  0  0  0  0
  1  4  1  0  0  0  0
  1  5  1  0  0  0  0
  5  6  1  0  0  0  0
  5  7  1  0  0  0  0
  5  8  1  0  0  0  0
  8  9  1  0  0  0  0
  8 10  1  0  0  0  0
  8 11  1  0  0  0  0
 11 12  1  0  0  0  0
 11 13  1  0  0  0  0
 11 14  1  0  0  0  0
 14 15  1  0  0  0  0
 14 16  1  0  0  0  0
 14 17  1  0  0  0  0
 17 18  1  0  0  0  0
 17 19  1  0  0  0  0
 17 20  1  0  0  0  0
 20 21  1  0  0  0  0
 20 22  1  0  0  0  0
 22 23  1  0  0  0  0
 22 24  1  0  0  0  0
 22 25  1  0  0  0  0
 20 26  1  0  0  0  0
 26 27  1  0  0  0  0
 26 28  1  0  0  0  0
 26 29  1  0  0  0  0
M  END
> <VConfSearch Rank>
117

> <Conf_Id>
71

> <Delta U+W>
3.542

> <U+W>
-24.284

> <U>
28.217

> <W>
-52.501

> <W(PB)>
-54.947

> <W(SA)>
2.446

> <Valence>
6.821

> <Coulomb>
20.147

> <VdW>
1.249

> <VdW6>
-10.237

> <VdW12>
11.486

> <Bond>
0.317

> <Angle>
1.990

> <Pdih>
4.515

> <Idih>
0.000

> <Tether>
0.000

$$$$
VeraChem MOL file


 29 28  0  0  0  0  0  0  0  0999 V2000     
   23.1714   17.8507   21.8258 C   0  0  0  0  0  0  0  0  0  0  0  0
   22.7150   16.8785   22.0532 H   0  0  0  0  0  0  0  0  0  0  0  0
   23.3738   17.8897   20.7475 H   0  0  0  0  0  0  0  0  0  0  0  0
   24.1338   17.9024   22.3514 H   0  0  0  0  0  0  0  0  0  0  0  0
   22.2503   19.0103   22.2599 C   0  0  0  0  0  0  0  0  0  0  0  0
   22.7495   19.9667   22.0505 H   0  0  0  0  0  0  0  0  0  0  0  0
   22.1054   18.9661   23.3459 H   0  0  0  0  0  0  0  0  0  0  0  0
   20.8902   18.9642   21.5228 C   0  0  0  0  0  0  0  0  0  0  0  0
   21.0846   19.0433   20.4442 H   0  0  0  0  0  0  0  0  0  0  0  0
   20.4059   17.9894   21.6721 H   0  0  0  0  0  0  0  0  0  0  0  0
   19.9258   20.1078   21.9321 C   0  0  0  0  0  0  0  0  0  0  0  0
   19.3667   20.4188   21.0387 H   0  0  0  0  0  0  0  0  0  0  0  0
   20.4950   20.9933   22.2469 H   0  0  0  0  0  0  0  0  0  0  0  0
   18.8892   19.7244   23.0196 C   0  0  0  0  0  0  0  0  0  0  0  0
   18.2171   20.5804   23.1628 H   0  0  0  0  0  0  0  0  0  0  0  0
   18.2654   18.9034   22.6420 H   0  0  0  0  0  0  0  0  0  0  0  0
   19.5167   19.3243   24.3813 C   0  0  0  0  0  0  0  0  0  0  0  0
   20.2442   20.0885   24.6841 H   0  0  0  0  0  0  0  0  0  0  0  0
   20.0797   18.3903   24.2618 H   0  0  0  0  0  0  0  0  0  0  0  0
   18.5015   19.1298   25.5321 C   0  0  2  0  0  0  0  0  0  0  0  0
   19.0710   18.8533   26.4248 H   0  0  0  0  0  0  0  0  0  0  0  0
   17.5096   17.9904   25.2407 C   0  0  0  0  0  0  0  0  0  0  0  0
   18.0422   17.0651   24.9882 H   0  0  0  0  0  0  0  0  0  0  0  0
   16.8889   17.7871   26.1219 H   0  0  0  0  0  0  0  0  0  0  0  0
   16.8396   18.2395   24.4091 H   0  0  0  0  0  0  0  0  0  0  0  0
   17.7757   20.4004   25.8797 N   0  3  0  0  0  0  0  0  0  0  0  0
   18.4285   21.1528   26.1170 H   0  0  0  0  0  0  0  0  0  0  0  0
   17.1550   20.2686   26.6834 H   0  0  0  0  0  0  0  0  0  0  0  0
   17.2011   20.7256   25.0983 H   0  0  0  0  0  0  0  0  0  0  0  0
  1  2  1  0  0  0  0
  1  3  1  0  0  0  0
  1  4  1  0  0  0  0
  1  5  1  0  0  0  0
  5  6  1  0  0  0  0
  5  7  1  0  0  0  0
  5  8  1  0  0  0  0
  8  9  1  0  0  0  0
  8 10  1  0  0  0  0
  8 11  1  0  0  0  0
 11 12  1  0  0  0  0
 11 13  1  0  0  0  0
 11 14  1  0  0  0  0
 14 15  1  0  0  0  0
 14 16  1  0  0  0  0
 14 17  1  0  0  0  0
 17 18  1  0  0  0  0
 17 19  1  0  0  0  0
 17 20  1  0  0  0  0
 20 21  1  0  0  0  0
 20 22  1  0  0  0  0
 22 23  1  0  0  0  0
 22 24  1  0  0  0  0
 22 25  1  0  0  0  0
 20 26  1  0  0  0  0
 26 27  1  0  0  0  0
 26 28  1  0  0  0  0
 26 29  1  0  0  0  0
M  END
> <VConfSearch Rank>
118

> <Conf_Id>
163

> <Delta U+W>
3.309

> <U+W>
-24.517

> <U>
27.916

> <W>
-52.433

> <W(PB)>
-54.866

> <W(SA)>
2.433

> <Valence>
6.693

> <Coulomb>
20.015

> <VdW>
1.208

> <VdW6>
-10.294

> <VdW12>
11.503

> <Bond>
0.312

> <Angle>
1.939

> <Pdih>
4.441

> <Idih>
0.000

> <Tether>
0.000

$$$$
VeraChem MOL file


 29 28  0  0  0  0  0  0  0  0999 V2000     
   18.1909   19.8478   19.9423 C   0  0  0  0  0  0  0  0  0  0  0  0
   17.1422   20.0723   20.1767 H   0  0  0  0  0  0  0  0  0  0  0  0
   18.7807   20.7601   20.0938 H   0  0  0  0  0  0  0  0  0  0  0  0
   18.2491   19.5915   18.8766 H   0  0  0  0  0  0  0  0  0  0  0  0
   18.7161   18.6801   20.8081 C   0  0  0  0  0  0  0  0  0  0  0  0
   19.7757   18.4980   20.5807 H   0  0  0  0  0  0  0  0  0  0  0  0
   18.1795   17.7634   20.5260 H   0  0  0  0  0  0  0  0  0  0  0  0
   18.5384   18.9094   22.3285 C   0  0  0  0  0  0  0  0  0  0  0  0
   17.4774   19.0868   22.5515 H   0  0  0  0  0  0  0  0  0  0  0  0
   18.8131   17.9805   22.8446 H   0  0  0  0  0  0  0  0  0  0  0  0
   19.3917   20.0800   22.8791 C   0  0  0  0  0  0  0  0  0  0  0  0
   19.1160   21.0074   22.3608 H   0  0  0  0  0  0  0  0  0  0  0  0
   20.4506   19.9063   22.6468 H   0  0  0  0  0  0  0  0  0  0  0  0
   19.2108   20.3154   24.4014 C   0  0  0  0  0  0  0  0  0  0  0  0
   19.8013   21.1931   24.6963 H   0  0  0  0  0  0  0  0  0  0  0  0
   18.1640   20.5838   24.5994 H   0  0  0  0  0  0  0  0  0  0  0  0
   19.5958   19.1121   25.3032 C   0  0  0  0  0  0  0  0  0  0  0  0
   18.8745   18.2996   25.1484 H   0  0  0  0  0  0  0  0  0  0  0  0
   19.4907   19.4080   26.3555 H   0  0  0  0  0  0  0  0  0  0  0  0
   21.0243   18.5754   25.0640 C   0  0  2  0  0  0  0  0  0  0  0  0
   21.1100   18.2826   24.0133 H   0  0  0  0  0  0  0  0  0  0  0  0
   21.2824   17.3331   25.9308 C   0  0  0  0  0  0  0  0  0  0  0  0
   22.2823   16.9257   25.7372 H   0  0  0  0  0  0  0  0  0  0  0  0
   21.2117   17.5727   26.9992 H   0  0  0  0  0  0  0  0  0  0  0  0
   20.5528   16.5445   25.7084 H   0  0  0  0  0  0  0  0  0  0  0  0
   22.0757   19.6222   25.3101 N   0  3  0  0  0  0  0  0  0  0  0  0
   21.9290   20.4419   24.7148 H   0  0  0  0  0  0  0  0  0  0  0  0
   23.0150   19.2634   25.1163 H   0  0  0  0  0  0  0  0  0  0  0  0
   22.0631   19.9408   26.2826 H   0  0  0  0  0  0  0  0  0  0  0  0
  1  2  1  0  0  0  0
  1  3  1  0  0  0  0
  1  4  1  0  0  0  0
  1  5  1  0  0  0  0
  5  6  1  0  0  0  0
  5  7  1  0  0  0  0
  5  8  1  0  0  0  0
  8  9  1  0  0  0  0
  8 10  1  0  0  0  0
  8 11  1  0  0  0  0
 11 12  1  0  0  0  0
 11 13  1  0  0  0  0
 11 14  1  0  0  0  0
 14 15  1  0  0  0  0
 14 16  1  0  0  0  0
 14 17  1  0  0  0  0
 17 18  1  0  0  0  0
 17 19  1  0  0  0  0
 17 20  1  0  0  0  0
 20 21  1  0  0  0  0
 20 22  1  0  0  0  0
 22 23  1  0  0  0  0
 22 24  1  0  0  0  0
 22 25  1  0  0  0  0
 20 26  1  0  0  0  0
 26 27  1  0  0  0  0
 26 28  1  0  0  0  0
 26 29  1  0  0  0  0
M  END
> <VConfSearch Rank>
119

> <Conf_Id>
173

> <Delta U+W>
1.363

> <U+W>
-26.462

> <U>
25.816

> <W>
-52.279

> <W(PB)>
-54.727

> <W(SA)>
2.449

> <Valence>
4.504

> <Coulomb>
20.342

> <VdW>
0.971

> <VdW6>
-10.532

> <VdW12>
11.503

> <Bond>
0.307

> <Angle>
1.715

> <Pdih>
2.481

> <Idih>
0.000

> <Tether>
0.000

$$$$
VeraChem MOL file


 29 28  0  0  0  0  0  0  0  0999 V2000     
   16.0793   19.7249   22.7434 C   0  0  0  0  0  0  0  0  0  0  0  0
   15.6745   18.7397   23.0092 H   0  0  0  0  0  0  0  0  0  0  0  0
   15.4747   20.4904   23.2471 H   0  0  0  0  0  0  0  0  0  0  0  0
   15.9577   19.8585   21.6606 H   0  0  0  0  0  0  0  0  0  0  0  0
   17.5656   19.8394   23.1428 C   0  0  0  0  0  0  0  0  0  0  0  0
   17.9492   20.8239   22.8409 H   0  0  0  0  0  0  0  0  0  0  0  0
   18.1392   19.0834   22.5907 H   0  0  0  0  0  0  0  0  0  0  0  0
   17.7639   19.6440   24.6633 C   0  0  0  0  0  0  0  0  0  0  0  0
   17.0928   20.3276   25.2014 H   0  0  0  0  0  0  0  0  0  0  0  0
   17.4531   18.6280   24.9434 H   0  0  0  0  0  0  0  0  0  0  0  0
   19.2119   19.8940   25.1587 C   0  0  0  0  0  0  0  0  0  0  0  0
   19.2144   19.7638   26.2498 H   0  0  0  0  0  0  0  0  0  0  0  0
   19.4944   20.9416   24.9859 H   0  0  0  0  0  0  0  0  0  0  0  0
   20.2762   18.9408   24.5553 C   0  0  0  0  0  0  0  0  0  0  0  0
   21.0119   18.7112   25.3374 H   0  0  0  0  0  0  0  0  0  0  0  0
   19.8047   17.9857   24.2904 H   0  0  0  0  0  0  0  0  0  0  0  0
   21.0231   19.5527   23.3376 C   0  0  0  0  0  0  0  0  0  0  0  0
   21.5245   20.4761   23.6559 H   0  0  0  0  0  0  0  0  0  0  0  0
   20.3074   19.8564   22.5655 H   0  0  0  0  0  0  0  0  0  0  0  0
   22.0783   18.6259   22.6895 C   0  0  2  0  0  0  0  0  0  0  0  0
   22.5676   19.1971   21.8945 H   0  0  0  0  0  0  0  0  0  0  0  0
   21.4372   17.3860   22.0422 C   0  0  0  0  0  0  0  0  0  0  0  0
   20.6408   17.6771   21.3460 H   0  0  0  0  0  0  0  0  0  0  0  0
   22.1856   16.8209   21.4732 H   0  0  0  0  0  0  0  0  0  0  0  0
   21.0084   16.7112   22.7923 H   0  0  0  0  0  0  0  0  0  0  0  0
   23.1666   18.2317   23.6496 N   0  3  0  0  0  0  0  0  0  0  0  0
   23.6286   19.0528   24.0509 H   0  0  0  0  0  0  0  0  0  0  0  0
   23.8873   17.6696   23.1879 H   0  0  0  0  0  0  0  0  0  0  0  0
   22.7942   17.6774   24.4246 H   0  0  0  0  0  0  0  0  0  0  0  0
  1  2  1  0  0  0  0
  1  3  1  0  0  0  0
  1  4  1  0  0  0  0
  1  5  1  0  0  0  0
  5  6  1  0  0  0  0
  5  7  1  0  0  0  0
  5  8  1  0  0  0  0
  8  9  1  0  0  0  0
  8 10  1  0  0  0  0
  8 11  1  0  0  0  0
 11 12  1  0  0  0  0
 11 13  1  0  0  0  0
 11 14  1  0  0  0  0
 14 15  1  0  0  0  0
 14 16  1  0  0  0  0
 14 17  1  0  0  0  0
 17 18  1  0  0  0  0
 17 19  1  0  0  0  0
 17 20  1  0  0  0  0
 20 21  1  0  0  0  0
 20 22  1  0  0  0  0
 22 23  1  0  0  0  0
 22 24  1  0  0  0  0
 22 25  1  0  0  0  0
 20 26  1  0  0  0  0
 26 27  1  0  0  0  0
 26 28  1  0  0  0  0
 26 29  1  0  0  0  0
M  END
> <VConfSearch Rank>
120

> <Conf_Id>
117

> <Delta U+W>
3.377

> <U+W>
-24.449

> <U>
27.947

> <W>
-52.396

> <W(PB)>
-54.842

> <W(SA)>
2.447

> <Valence>
6.731

> <Coulomb>
20.067

> <VdW>
1.149

> <VdW6>
-10.427

> <VdW12>
11.575

> <Bond>
0.324

> <Angle>
1.943

> <Pdih>
4.465

> <Idih>
0.000

> <Tether>
0.000

$$$$
VeraChem MOL file


 29 28  0  0  0  0  0  0  0  0999 V2000     
   18.5761   14.5576   22.4948 C   0  0  0  0  0  0  0  0  0  0  0  0
   17.7112   14.5719   23.1708 H   0  0  0  0  0  0  0  0  0  0  0  0
   18.2197   14.7723   21.4788 H   0  0  0  0  0  0  0  0  0  0  0  0
   18.9903   13.5410   22.4989 H   0  0  0  0  0  0  0  0  0  0  0  0
   19.6423   15.5822   22.9366 C   0  0  0  0  0  0  0  0  0  0  0  0
   20.5082   15.5210   22.2625 H   0  0  0  0  0  0  0  0  0  0  0  0
   20.0036   15.3221   23.9414 H   0  0  0  0  0  0  0  0  0  0  0  0
   19.0845   17.0226   22.9395 C   0  0  0  0  0  0  0  0  0  0  0  0
   18.7226   17.2772   21.9337 H   0  0  0  0  0  0  0  0  0  0  0  0
   18.2179   17.0782   23.6128 H   0  0  0  0  0  0  0  0  0  0  0  0
   20.1495   18.0516   23.3814 C   0  0  0  0  0  0  0  0  0  0  0  0
   21.0160   17.9939   22.7081 H   0  0  0  0  0  0  0  0  0  0  0  0
   20.5107   17.7965   24.3873 H   0  0  0  0  0  0  0  0  0  0  0  0
   19.5913   19.4926   23.3835 C   0  0  0  0  0  0  0  0  0  0  0  0
   19.2335   19.7482   22.3763 H   0  0  0  0  0  0  0  0  0  0  0  0
   18.7223   19.5406   24.0532 H   0  0  0  0  0  0  0  0  0  0  0  0
   20.6596   20.5211   23.8276 C   0  0  0  0  0  0  0  0  0  0  0  0
   21.5408   20.4195   23.1801 H   0  0  0  0  0  0  0  0  0  0  0  0
   20.9931   20.2930   24.8488 H   0  0  0  0  0  0  0  0  0  0  0  0
   20.1573   21.9795   23.7588 C   0  0  2  0  0  0  0  0  0  0  0  0
   19.8090   22.1746   22.7399 H   0  0  0  0  0  0  0  0  0  0  0  0
   21.3032   22.9547   24.0723 C   0  0  0  0  0  0  0  0  0  0  0  0
   20.9621   23.9941   23.9894 H   0  0  0  0  0  0  0  0  0  0  0  0
   21.6885   22.8012   25.0881 H   0  0  0  0  0  0  0  0  0  0  0  0
   22.1335   22.8200   23.3679 H   0  0  0  0  0  0  0  0  0  0  0  0
   18.9881   22.2294   24.6717 N   0  3  0  0  0  0  0  0  0  0  0  0
   18.2000   21.6166   24.4457 H   0  0  0  0  0  0  0  0  0  0  0  0
   18.6561   23.1954   24.5984 H   0  0  0  0  0  0  0  0  0  0  0  0
   19.2372   22.0640   25.6505 H   0  0  0  0  0  0  0  0  0  0  0  0
  1  2  1  0  0  0  0
  1  3  1  0  0  0  0
  1  4  1  0  0  0  0
  1  5  1  0  0  0  0
  5  6  1  0  0  0  0
  5  7  1  0  0  0  0
  5  8  1  0  0  0  0
  8  9  1  0  0  0  0
  8 10  1  0  0  0  0
  8 11  1  0  0  0  0
 11 12  1  0  0  0  0
 11 13  1  0  0  0  0
 11 14  1  0  0  0  0
 14 15  1  0  0  0  0
 14 16  1  0  0  0  0
 14 17  1  0  0  0  0
 17 18  1  0  0  0  0
 17 19  1  0  0  0  0
 17 20  1  0  0  0  0
 20 21  1  0  0  0  0
 20 22  1  0  0  0  0
 22 23  1  0  0  0  0
 22 24  1  0  0  0  0
 22 25  1  0  0  0  0
 20 26  1  0  0  0  0
 26 27  1  0  0  0  0
 26 28  1  0  0  0  0
 26 29  1  0  0  0  0
M  END
> <VConfSearch Rank>
121

> <Conf_Id>
164

> <Delta U+W>
0.000

> <U+W>
-27.826

> <U>
23.963

> <W>
-51.789

> <W(PB)>
-54.342

> <W(SA)>
2.554

> <Valence>
3.166

> <Coulomb>
19.734

> <VdW>
1.062

> <VdW6>
-7.938

> <VdW12>
9.001

> <Bond>
0.188

> <Angle>
0.880

> <Pdih>
2.098

> <Idih>
0.000

> <Tether>
0.000

$$$$
VeraChem MOL file


 29 28  0  0  0  0  0  0  0  0999 V2000     
   17.6567   20.2572   19.3272 C   0  0  0  0  0  0  0  0  0  0  0  0
   18.5574   20.6878   18.8705 H   0  0  0  0  0  0  0  0  0  0  0  0
   17.5782   19.2100   19.0070 H   0  0  0  0  0  0  0  0  0  0  0  0
   16.7868   20.7969   18.9308 H   0  0  0  0  0  0  0  0  0  0  0  0
   17.7097   20.3642   20.8658 C   0  0  0  0  0  0  0  0  0  0  0  0
   16.7821   19.9568   21.2918 H   0  0  0  0  0  0  0  0  0  0  0  0
   17.7537   21.4233   21.1563 H   0  0  0  0  0  0  0  0  0  0  0  0
   18.9261   19.6123   21.4498 C   0  0  0  0  0  0  0  0  0  0  0  0
   18.8789   18.5549   21.1548 H   0  0  0  0  0  0  0  0  0  0  0  0
   19.8506   20.0215   21.0195 H   0  0  0  0  0  0  0  0  0  0  0  0
   18.9826   19.7172   22.9906 C   0  0  0  0  0  0  0  0  0  0  0  0
   18.0578   19.3076   23.4202 H   0  0  0  0  0  0  0  0  0  0  0  0
   19.0282   20.7752   23.2840 H   0  0  0  0  0  0  0  0  0  0  0  0
   20.2000   18.9652   23.5743 C   0  0  0  0  0  0  0  0  0  0  0  0
   20.1492   17.9121   23.2683 H   0  0  0  0  0  0  0  0  0  0  0  0
   21.1249   19.3784   23.1484 H   0  0  0  0  0  0  0  0  0  0  0  0
   20.2516   19.0679   25.1185 C   0  0  0  0  0  0  0  0  0  0  0  0
   19.3588   18.5970   25.5511 H   0  0  0  0  0  0  0  0  0  0  0  0
   20.2110   20.1286   25.3996 H   0  0  0  0  0  0  0  0  0  0  0  0
   21.5217   18.4456   25.7422 C   0  0  2  0  0  0  0  0  0  0  0  0
   22.3960   18.9001   25.2661 H   0  0  0  0  0  0  0  0  0  0  0  0
   21.5870   16.9227   25.5288 C   0  0  0  0  0  0  0  0  0  0  0  0
   20.6967   16.4265   25.9349 H   0  0  0  0  0  0  0  0  0  0  0  0
   21.6656   16.6718   24.4647 H   0  0  0  0  0  0  0  0  0  0  0  0
   22.4685   16.5004   26.0269 H   0  0  0  0  0  0  0  0  0  0  0  0
   21.6204   18.7696   27.2070 N   0  3  0  0  0  0  0  0  0  0  0  0
   22.4803   18.3930   27.6163 H   0  0  0  0  0  0  0  0  0  0  0  0
   20.8345   18.3752   27.7311 H   0  0  0  0  0  0  0  0  0  0  0  0
   21.6229   19.7807   27.3704 H   0  0  0  0  0  0  0  0  0  0  0  0
  1  2  1  0  0  0  0
  1  3  1  0  0  0  0
  1  4  1  0  0  0  0
  1  5  1  0  0  0  0
  5  6  1  0  0  0  0
  5  7  1  0  0  0  0
  5  8  1  0  0  0  0
  8  9  1  0  0  0  0
  8 10  1  0  0  0  0
  8 11  1  0  0  0  0
 11 12  1  0  0  0  0
 11 13  1  0  0  0  0
 11 14  1  0  0  0  0
 14 15  1  0  0  0  0
 14 16  1  0  0  0  0
 14 17  1  0  0  0  0
 17 18  1  0  0  0  0
 17 19  1  0  0  0  0
 17 20  1  0  0  0  0
 20 21  1  0  0  0  0
 20 22  1  0  0  0  0
 22 23  1  0  0  0  0
 22 24  1  0  0  0  0
 22 25  1  0  0  0  0
 20 26  1  0  0  0  0
 26 27  1  0  0  0  0
 26 28  1  0  0  0  0
 26 29  1  0  0  0  0
M  END
> <VConfSearch Rank>
122

> <Conf_Id>
58

> <Delta U+W>
0.412

> <U+W>
-27.414

> <U>
24.279

> <W>
-51.694

> <W(PB)>
-54.271

> <W(SA)>
2.577

> <Valence>
3.709

> <Coulomb>
19.380

> <VdW>
1.191

> <VdW6>
-8.093

> <VdW12>
9.284

> <Bond>
0.200

> <Angle>
1.161

> <Pdih>
2.348

> <Idih>
0.000

> <Tether>
0.000

$$$$
VeraChem MOL file


 29 28  0  0  0  0  0  0  0  0999 V2000     
   23.8188   21.4121   23.6779 C   0  0  0  0  0  0  0  0  0  0  0  0
   23.6780   21.6827   24.7326 H   0  0  0  0  0  0  0  0  0  0  0  0
   24.3986   20.4807   23.6383 H   0  0  0  0  0  0  0  0  0  0  0  0
   24.4166   22.2017   23.2043 H   0  0  0  0  0  0  0  0  0  0  0  0
   22.4618   21.2516   22.9606 C   0  0  0  0  0  0  0  0  0  0  0  0
   22.6350   21.0147   21.9015 H   0  0  0  0  0  0  0  0  0  0  0  0
   21.9200   22.2074   22.9874 H   0  0  0  0  0  0  0  0  0  0  0  0
   21.6000   20.1453   23.6082 C   0  0  0  0  0  0  0  0  0  0  0  0
   22.1465   19.1924   23.5810 H   0  0  0  0  0  0  0  0  0  0  0  0
   21.4317   20.3852   24.6672 H   0  0  0  0  0  0  0  0  0  0  0  0
   20.2401   19.9818   22.8927 C   0  0  0  0  0  0  0  0  0  0  0  0
   20.4098   19.7427   21.8337 H   0  0  0  0  0  0  0  0  0  0  0  0
   19.6946   20.9354   22.9200 H   0  0  0  0  0  0  0  0  0  0  0  0
   19.3780   18.8751   23.5409 C   0  0  0  0  0  0  0  0  0  0  0  0
   19.9291   17.9259   23.5116 H   0  0  0  0  0  0  0  0  0  0  0  0
   19.2182   19.1205   24.5990 H   0  0  0  0  0  0  0  0  0  0  0  0
   18.0134   18.7183   22.8206 C   0  0  0  0  0  0  0  0  0  0  0  0
   18.1889   18.5226   21.7546 H   0  0  0  0  0  0  0  0  0  0  0  0
   17.4673   19.6698   22.8669 H   0  0  0  0  0  0  0  0  0  0  0  0
   17.1062   17.5971   23.3800 C   0  0  2  0  0  0  0  0  0  0  0  0
   16.1996   17.5764   22.7672 H   0  0  0  0  0  0  0  0  0  0  0  0
   16.6792   17.8688   24.8330 C   0  0  0  0  0  0  0  0  0  0  0  0
   15.9316   17.1341   25.1565 H   0  0  0  0  0  0  0  0  0  0  0  0
   17.5286   17.8080   25.5237 H   0  0  0  0  0  0  0  0  0  0  0  0
   16.2291   18.8648   24.9274 H   0  0  0  0  0  0  0  0  0  0  0  0
   17.7296   16.2349   23.2477 N   0  3  0  0  0  0  0  0  0  0  0  0
   17.9764   16.0279   22.2756 H   0  0  0  0  0  0  0  0  0  0  0  0
   17.0918   15.4992   23.5650 H   0  0  0  0  0  0  0  0  0  0  0  0
   18.5842   16.1622   23.8053 H   0  0  0  0  0  0  0  0  0  0  0  0
  1  2  1  0  0  0  0
  1  3  1  0  0  0  0
  1  4  1  0  0  0  0
  1  5  1  0  0  0  0
  5  6  1  0  0  0  0
  5  7  1  0  0  0  0
  5  8  1  0  0  0  0
  8  9  1  0  0  0  0
  8 10  1  0  0  0  0
  8 11  1  0  0  0  0
 11 12  1  0  0  0  0
 11 13  1  0  0  0  0
 11 14  1  0  0  0  0
 14 15  1  0  0  0  0
 14 16  1  0  0  0  0
 14 17  1  0  0  0  0
 17 18  1  0  0  0  0
 17 19  1  0  0  0  0
 17 20  1  0  0  0  0
 20 21  1  0  0  0  0
 20 22  1  0  0  0  0
 22 23  1  0  0  0  0
 22 24  1  0  0  0  0
 22 25  1  0  0  0  0
 20 26  1  0  0  0  0
 26 27  1  0  0  0  0
 26 28  1  0  0  0  0
 26 29  1  0  0  0  0
M  END
> <VConfSearch Rank>
123

> <Conf_Id>
137

> <Delta U+W>
0.280

> <U+W>
-27.546

> <U>
24.513

> <W>
-52.059

> <W(PB)>
-54.556

> <W(SA)>
2.497

> <Valence>
3.677

> <Coulomb>
19.662

> <VdW>
1.174

> <VdW6>
-8.569

> <VdW12>
9.743

> <Bond>
0.224

> <Angle>
1.211

> <Pdih>
2.243

> <Idih>
0.000

> <Tether>
0.000

$$$$
VeraChem MOL file


 29 28  0  0  0  0  0  0  0  0999 V2000     
   19.9637   19.3611   19.0688 C   0  0  0  0  0  0  0  0  0  0  0  0
   20.8900   19.9078   19.2884 H   0  0  0  0  0  0  0  0  0  0  0  0
   20.2143   18.2994   18.9453 H   0  0  0  0  0  0  0  0  0  0  0  0
   19.5742   19.7291   18.1107 H   0  0  0  0  0  0  0  0  0  0  0  0
   18.9235   19.5584   20.1917 C   0  0  0  0  0  0  0  0  0  0  0  0
   17.9973   19.0292   19.9271 H   0  0  0  0  0  0  0  0  0  0  0  0
   18.6685   20.6246   20.2694 H   0  0  0  0  0  0  0  0  0  0  0  0
   19.4467   19.0473   21.5523 C   0  0  0  0  0  0  0  0  0  0  0  0
   19.6978   17.9808   21.4701 H   0  0  0  0  0  0  0  0  0  0  0  0
   20.3762   19.5767   21.7982 H   0  0  0  0  0  0  0  0  0  0  0  0
   18.4054   19.2490   22.6796 C   0  0  0  0  0  0  0  0  0  0  0  0
   17.4573   18.7849   22.3743 H   0  0  0  0  0  0  0  0  0  0  0  0
   18.1969   20.3204   22.8055 H   0  0  0  0  0  0  0  0  0  0  0  0
   18.8309   18.6394   24.0384 C   0  0  0  0  0  0  0  0  0  0  0  0
   17.9713   18.7025   24.7177 H   0  0  0  0  0  0  0  0  0  0  0  0
   19.0467   17.5697   23.9100 H   0  0  0  0  0  0  0  0  0  0  0  0
   20.0531   19.3470   24.6798 C   0  0  0  0  0  0  0  0  0  0  0  0
   19.8336   20.4140   24.8178 H   0  0  0  0  0  0  0  0  0  0  0  0
   20.9025   19.2902   23.9885 H   0  0  0  0  0  0  0  0  0  0  0  0
   20.4942   18.7288   26.0265 C   0  0  2  0  0  0  0  0  0  0  0  0
   20.6478   17.6555   25.8778 H   0  0  0  0  0  0  0  0  0  0  0  0
   19.4395   18.9229   27.1310 C   0  0  0  0  0  0  0  0  0  0  0  0
   19.2008   19.9847   27.2695 H   0  0  0  0  0  0  0  0  0  0  0  0
   18.5115   18.3891   26.8965 H   0  0  0  0  0  0  0  0  0  0  0  0
   19.8053   18.5293   28.0874 H   0  0  0  0  0  0  0  0  0  0  0  0
   21.8172   19.2881   26.4711 N   0  3  0  0  0  0  0  0  0  0  0  0
   22.5479   19.1309   25.7709 H   0  0  0  0  0  0  0  0  0  0  0  0
   22.1327   18.8536   27.3431 H   0  0  0  0  0  0  0  0  0  0  0  0
   21.7604   20.2968   26.6357 H   0  0  0  0  0  0  0  0  0  0  0  0
  1  2  1  0  0  0  0
  1  3  1  0  0  0  0
  1  4  1  0  0  0  0
  1  5  1  0  0  0  0
  5  6  1  0  0  0  0
  5  7  1  0  0  0  0
  5  8  1  0  0  0  0
  8  9  1  0  0  0  0
  8 10  1  0  0  0  0
  8 11  1  0  0  0  0
 11 12  1  0  0  0  0
 11 13  1  0  0  0  0
 11 14  1  0  0  0  0
 14 15  1  0  0  0  0
 14 16  1  0  0  0  0
 14 17  1  0  0  0  0
 17 18  1  0  0  0  0
 17 19  1  0  0  0  0
 17 20  1  0  0  0  0
 20 21  1  0  0  0  0
 20 22  1  0  0  0  0
 22 23  1  0  0  0  0
 22 24  1  0  0  0  0
 22 25  1  0  0  0  0
 20 26  1  0  0  0  0
 26 27  1  0  0  0  0
 26 28  1  0  0  0  0
 26 29  1  0  0  0  0
M  END
> <VConfSearch Rank>
124

> <Conf_Id>
40

> <Delta U+W>
1.128

> <U+W>
-26.698

> <U>
25.442

> <W>
-52.140

> <W(PB)>
-54.658

> <W(SA)>
2.519

> <Valence>
4.343

> <Coulomb>
19.740

> <VdW>
1.360

> <VdW6>
-8.739

> <VdW12>
10.099

> <Bond>
0.251

> <Angle>
1.483

> <Pdih>
2.608

> <Idih>
0.000

> <Tether>
0.000

$$$$
VeraChem MOL file


 29 28  0  0  0  0  0  0  0  0999 V2000     
   15.8392   18.3113   21.8466 C   0  0  0  0  0  0  0  0  0  0  0  0
   15.9737   19.3713   21.5987 H   0  0  0  0  0  0  0  0  0  0  0  0
   16.2421   17.7104   21.0209 H   0  0  0  0  0  0  0  0  0  0  0  0
   14.7596   18.1214   21.9040 H   0  0  0  0  0  0  0  0  0  0  0  0
   16.5235   17.9478   23.1840 C   0  0  0  0  0  0  0  0  0  0  0  0
   16.2514   16.9167   23.4496 H   0  0  0  0  0  0  0  0  0  0  0  0
   16.1294   18.5860   23.9871 H   0  0  0  0  0  0  0  0  0  0  0  0
   18.0670   18.0561   23.1385 C   0  0  0  0  0  0  0  0  0  0  0  0
   18.4614   17.6480   24.0775 H   0  0  0  0  0  0  0  0  0  0  0  0
   18.4555   17.4163   22.3342 H   0  0  0  0  0  0  0  0  0  0  0  0
   18.5778   19.5070   22.9465 C   0  0  0  0  0  0  0  0  0  0  0  0
   18.1942   20.1459   23.7537 H   0  0  0  0  0  0  0  0  0  0  0  0
   18.1719   19.9140   22.0115 H   0  0  0  0  0  0  0  0  0  0  0  0
   20.1213   19.6197   22.8837 C   0  0  0  0  0  0  0  0  0  0  0  0
   20.5054   18.9654   22.0890 H   0  0  0  0  0  0  0  0  0  0  0  0
   20.3728   20.6463   22.5869 H   0  0  0  0  0  0  0  0  0  0  0  0
   20.8244   19.2836   24.2244 C   0  0  0  0  0  0  0  0  0  0  0  0
   20.5954   18.2487   24.5060 H   0  0  0  0  0  0  0  0  0  0  0  0
   20.4262   19.9229   25.0235 H   0  0  0  0  0  0  0  0  0  0  0  0
   22.3594   19.4377   24.1538 C   0  0  2  0  0  0  0  0  0  0  0  0
   22.7283   18.8213   23.3282 H   0  0  0  0  0  0  0  0  0  0  0  0
   23.0068   18.9384   25.4554 C   0  0  0  0  0  0  0  0  0  0  0  0
   24.0999   19.0125   25.3987 H   0  0  0  0  0  0  0  0  0  0  0  0
   22.6685   19.5263   26.3179 H   0  0  0  0  0  0  0  0  0  0  0  0
   22.7541   17.8866   25.6385 H   0  0  0  0  0  0  0  0  0  0  0  0
   22.7856   20.8510   23.8640 N   0  3  0  0  0  0  0  0  0  0  0  0
   22.4712   21.4929   24.5965 H   0  0  0  0  0  0  0  0  0  0  0  0
   22.4003   21.1833   22.9759 H   0  0  0  0  0  0  0  0  0  0  0  0
   23.8049   20.9294   23.8040 H   0  0  0  0  0  0  0  0  0  0  0  0
  1  2  1  0  0  0  0
  1  3  1  0  0  0  0
  1  4  1  0  0  0  0
  1  5  1  0  0  0  0
  5  6  1  0  0  0  0
  5  7  1  0  0  0  0
  5  8  1  0  0  0  0
  8  9  1  0  0  0  0
  8 10  1  0  0  0  0
  8 11  1  0  0  0  0
 11 12  1  0  0  0  0
 11 13  1  0  0  0  0
 11 14  1  0  0  0  0
 14 15  1  0  0  0  0
 14 16  1  0  0  0  0
 14 17  1  0  0  0  0
 17 18  1  0  0  0  0
 17 19  1  0  0  0  0
 17 20  1  0  0  0  0
 20 21  1  0  0  0  0
 20 22  1  0  0  0  0
 22 23  1  0  0  0  0
 22 24  1  0  0  0  0
 22 25  1  0  0  0  0
 20 26  1  0  0  0  0
 26 27  1  0  0  0  0
 26 28  1  0  0  0  0
 26 29  1  0  0  0  0
M  END
> <VConfSearch Rank>
125

> <Conf_Id>
134

> <Delta U+W>
1.228

> <U+W>
-26.598

> <U>
25.451

> <W>
-52.048

> <W(PB)>
-54.539

> <W(SA)>
2.490

> <Valence>
4.319

> <Coulomb>
19.732

> <VdW>
1.400

> <VdW6>
-9.173

> <VdW12>
10.573

> <Bond>
0.281

> <Angle>
1.459

> <Pdih>
2.580

> <Idih>
0.000

> <Tether>
0.000

$$$$
VeraChem MOL file


 29 28  0  0  0  0  0  0  0  0999 V2000     
   15.5719   18.2507   23.9851 C   0  0  0  0  0  0  0  0  0  0  0  0
   15.5780   19.3039   24.2916 H   0  0  0  0  0  0  0  0  0  0  0  0
   15.4357   18.2092   22.8967 H   0  0  0  0  0  0  0  0  0  0  0  0
   14.6978   17.7776   24.4510 H   0  0  0  0  0  0  0  0  0  0  0  0
   16.8692   17.5264   24.4109 C   0  0  0  0  0  0  0  0  0  0  0  0
   16.7598   16.4538   24.1980 H   0  0  0  0  0  0  0  0  0  0  0  0
   17.0011   17.6118   25.4985 H   0  0  0  0  0  0  0  0  0  0  0  0
   18.1343   18.0480   23.6872 C   0  0  0  0  0  0  0  0  0  0  0  0
   18.9711   17.3884   23.9505 H   0  0  0  0  0  0  0  0  0  0  0  0
   17.9982   17.9584   22.6008 H   0  0  0  0  0  0  0  0  0  0  0  0
   18.4937   19.5110   24.0511 C   0  0  0  0  0  0  0  0  0  0  0  0
   18.6312   19.6000   25.1374 H   0  0  0  0  0  0  0  0  0  0  0  0
   17.6545   20.1689   23.7911 H   0  0  0  0  0  0  0  0  0  0  0  0
   19.7557   20.0357   23.3228 C   0  0  0  0  0  0  0  0  0  0  0  0
   19.6020   19.9571   22.2384 H   0  0  0  0  0  0  0  0  0  0  0  0
   19.8650   21.1063   23.5447 H   0  0  0  0  0  0  0  0  0  0  0  0
   21.0579   19.3014   23.7343 C   0  0  0  0  0  0  0  0  0  0  0  0
   21.0294   18.2599   23.3902 H   0  0  0  0  0  0  0  0  0  0  0  0
   21.1103   19.2686   24.8305 H   0  0  0  0  0  0  0  0  0  0  0  0
   22.3422   19.9771   23.2026 C   0  0  2  0  0  0  0  0  0  0  0  0
   22.3385   21.0229   23.5250 H   0  0  0  0  0  0  0  0  0  0  0  0
   22.4210   19.9413   21.6658 C   0  0  0  0  0  0  0  0  0  0  0  0
   22.3687   18.9120   21.2897 H   0  0  0  0  0  0  0  0  0  0  0  0
   21.6050   20.5152   21.2115 H   0  0  0  0  0  0  0  0  0  0  0  0
   23.3622   20.3837   21.3168 H   0  0  0  0  0  0  0  0  0  0  0  0
   23.5718   19.3530   23.8016 N   0  3  0  0  0  0  0  0  0  0  0  0
   23.5607   19.4045   24.8244 H   0  0  0  0  0  0  0  0  0  0  0  0
   24.4234   19.8238   23.4824 H   0  0  0  0  0  0  0  0  0  0  0  0
   23.6537   18.3658   23.5440 H   0  0  0  0  0  0  0  0  0  0  0  0
  1  2  1  0  0  0  0
  1  3  1  0  0  0  0
  1  4  1  0  0  0  0
  1  5  1  0  0  0  0
  5  6  1  0  0  0  0
  5  7  1  0  0  0  0
  5  8  1  0  0  0  0
  8  9  1  0  0  0  0
  8 10  1  0  0  0  0
  8 11  1  0  0  0  0
 11 12  1  0  0  0  0
 11 13  1  0  0  0  0
 11 14  1  0  0  0  0
 14 15  1  0  0  0  0
 14 16  1  0  0  0  0
 14 17  1  0  0  0  0
 17 18  1  0  0  0  0
 17 19  1  0  0  0  0
 17 20  1  0  0  0  0
 20 21  1  0  0  0  0
 20 22  1  0  0  0  0
 22 23  1  0  0  0  0
 22 24  1  0  0  0  0
 22 25  1  0  0  0  0
 20 26  1  0  0  0  0
 26 27  1  0  0  0  0
 26 28  1  0  0  0  0
 26 29  1  0  0  0  0
M  END
> <VConfSearch Rank>
126

> <Conf_Id>
73

> <Delta U+W>
1.580

> <U+W>
-26.246

> <U>
25.821

> <W>
-52.067

> <W(PB)>
-54.581

> <W(SA)>
2.514

> <Valence>
4.779

> <Coulomb>
19.614

> <VdW>
1.428

> <VdW6>
-9.390

> <VdW12>
10.818

> <Bond>
0.283

> <Angle>
1.640

> <Pdih>
2.856

> <Idih>
0.000

> <Tether>
0.000

$$$$
VeraChem MOL file


 29 28  0  0  0  0  0  0  0  0999 V2000     
   20.3732   14.6623   23.7896 C   0  0  0  0  0  0  0  0  0  0  0  0
   19.6255   14.7685   24.5864 H   0  0  0  0  0  0  0  0  0  0  0  0
   20.2639   13.6597   23.3563 H   0  0  0  0  0  0  0  0  0  0  0  0
   21.3700   14.7257   24.2454 H   0  0  0  0  0  0  0  0  0  0  0  0
   20.1884   15.7468   22.7072 C   0  0  0  0  0  0  0  0  0  0  0  0
   19.1962   15.6377   22.2472 H   0  0  0  0  0  0  0  0  0  0  0  0
   20.9271   15.5933   21.9081 H   0  0  0  0  0  0  0  0  0  0  0  0
   20.3384   17.1691   23.2910 C   0  0  0  0  0  0  0  0  0  0  0  0
   19.6021   17.3045   24.0937 H   0  0  0  0  0  0  0  0  0  0  0  0
   21.3325   17.2740   23.7472 H   0  0  0  0  0  0  0  0  0  0  0  0
   20.1484   18.2572   22.2069 C   0  0  0  0  0  0  0  0  0  0  0  0
   19.1338   18.1927   21.7902 H   0  0  0  0  0  0  0  0  0  0  0  0
   20.8365   18.0543   21.3746 H   0  0  0  0  0  0  0  0  0  0  0  0
   20.4097   19.6961   22.7165 C   0  0  0  0  0  0  0  0  0  0  0  0
   21.4257   19.7602   23.1303 H   0  0  0  0  0  0  0  0  0  0  0  0
   20.3852   20.3714   21.8513 H   0  0  0  0  0  0  0  0  0  0  0  0
   19.3831   20.1738   23.7757 C   0  0  0  0  0  0  0  0  0  0  0  0
   19.4286   19.5121   24.6495 H   0  0  0  0  0  0  0  0  0  0  0  0
   18.3657   20.0916   23.3710 H   0  0  0  0  0  0  0  0  0  0  0  0
   19.6372   21.6213   24.2500 C   0  0  2  0  0  0  0  0  0  0  0  0
   20.6670   21.6872   24.6144 H   0  0  0  0  0  0  0  0  0  0  0  0
   18.6918   21.9776   25.4084 C   0  0  0  0  0  0  0  0  0  0  0  0
   18.8299   21.2885   26.2508 H   0  0  0  0  0  0  0  0  0  0  0  0
   18.8904   22.9928   25.7736 H   0  0  0  0  0  0  0  0  0  0  0  0
   17.6418   21.9267   25.0939 H   0  0  0  0  0  0  0  0  0  0  0  0
   19.5058   22.6252   23.1373 N   0  3  0  0  0  0  0  0  0  0  0  0
   19.6947   23.5761   23.4673 H   0  0  0  0  0  0  0  0  0  0  0  0
   18.5626   22.6202   22.7400 H   0  0  0  0  0  0  0  0  0  0  0  0
   20.1622   22.4290   22.3770 H   0  0  0  0  0  0  0  0  0  0  0  0
  1  2  1  0  0  0  0
  1  3  1  0  0  0  0
  1  4  1  0  0  0  0
  1  5  1  0  0  0  0
  5  6  1  0  0  0  0
  5  7  1  0  0  0  0
  5  8  1  0  0  0  0
  8  9  1  0  0  0  0
  8 10  1  0  0  0  0
  8 11  1  0  0  0  0
 11 12  1  0  0  0  0
 11 13  1  0  0  0  0
 11 14  1  0  0  0  0
 14 15  1  0  0  0  0
 14 16  1  0  0  0  0
 14 17  1  0  0  0  0
 17 18  1  0  0  0  0
 17 19  1  0  0  0  0
 17 20  1  0  0  0  0
 20 21  1  0  0  0  0
 20 22  1  0  0  0  0
 22 23  1  0  0  0  0
 22 24  1  0  0  0  0
 22 25  1  0  0  0  0
 20 26  1  0  0  0  0
 26 27  1  0  0  0  0
 26 28  1  0  0  0  0
 26 29  1  0  0  0  0
M  END
> <VConfSearch Rank>
127

> <Conf_Id>
111

> <Delta U+W>
0.580

> <U+W>
-27.246

> <U>
24.710

> <W>
-51.957

> <W(PB)>
-54.511

> <W(SA)>
2.555

> <Valence>
3.735

> <Coulomb>
19.760

> <VdW>
1.216

> <VdW6>
-8.624

> <VdW12>
9.840

> <Bond>
0.236

> <Angle>
1.168

> <Pdih>
2.330

> <Idih>
0.000

> <Tether>
0.000

$$$$
VeraChem MOL file


 29 28  0  0  0  0  0  0  0  0999 V2000     
   18.8201   22.3155   26.3337 C   0  0  0  0  0  0  0  0  0  0  0  0
   17.7430   22.2553   26.1302 H   0  0  0  0  0  0  0  0  0  0  0  0
   19.0756   21.5317   27.0587 H   0  0  0  0  0  0  0  0  0  0  0  0
   19.0207   23.2873   26.8031 H   0  0  0  0  0  0  0  0  0  0  0  0
   19.6393   22.1583   25.0352 C   0  0  0  0  0  0  0  0  0  0  0  0
   20.7096   22.2558   25.2651 H   0  0  0  0  0  0  0  0  0  0  0  0
   19.3875   22.9753   24.3445 H   0  0  0  0  0  0  0  0  0  0  0  0
   19.3747   20.7978   24.3532 C   0  0  0  0  0  0  0  0  0  0  0  0
   19.6214   19.9912   25.0559 H   0  0  0  0  0  0  0  0  0  0  0  0
   18.3041   20.7057   24.1237 H   0  0  0  0  0  0  0  0  0  0  0  0
   20.1987   20.6373   23.0532 C   0  0  0  0  0  0  0  0  0  0  0  0
   21.2715   20.6770   23.2871 H   0  0  0  0  0  0  0  0  0  0  0  0
   19.9955   21.4917   22.3927 H   0  0  0  0  0  0  0  0  0  0  0  0
   19.8836   19.3335   22.2797 C   0  0  0  0  0  0  0  0  0  0  0  0
   18.8160   19.3186   22.0232 H   0  0  0  0  0  0  0  0  0  0  0  0
   20.4323   19.3515   21.3279 H   0  0  0  0  0  0  0  0  0  0  0  0
   20.2652   18.0481   23.0582 C   0  0  0  0  0  0  0  0  0  0  0  0
   19.6272   17.9407   23.9446 H   0  0  0  0  0  0  0  0  0  0  0  0
   21.2952   18.1529   23.4238 H   0  0  0  0  0  0  0  0  0  0  0  0
   20.1759   16.7609   22.2075 C   0  0  2  0  0  0  0  0  0  0  0  0
   20.7890   16.8984   21.3115 H   0  0  0  0  0  0  0  0  0  0  0  0
   18.7324   16.4565   21.7682 C   0  0  0  0  0  0  0  0  0  0  0  0
   18.0644   16.3683   22.6341 H   0  0  0  0  0  0  0  0  0  0  0  0
   18.3418   17.2422   21.1112 H   0  0  0  0  0  0  0  0  0  0  0  0
   18.6896   15.5143   21.2081 H   0  0  0  0  0  0  0  0  0  0  0  0
   20.7557   15.5839   22.9416 N   0  3  0  0  0  0  0  0  0  0  0  0
   21.7314   15.7479   23.2061 H   0  0  0  0  0  0  0  0  0  0  0  0
   20.7346   14.7371   22.3661 H   0  0  0  0  0  0  0  0  0  0  0  0
   20.2337   15.3836   23.7990 H   0  0  0  0  0  0  0  0  0  0  0  0
  1  2  1  0  0  0  0
  1  3  1  0  0  0  0
  1  4  1  0  0  0  0
  1  5  1  0  0  0  0
  5  6  1  0  0  0  0
  5  7  1  0  0  0  0
  5  8  1  0  0  0  0
  8  9  1  0  0  0  0
  8 10  1  0  0  0  0
  8 11  1  0  0  0  0
 11 12  1  0  0  0  0
 11 13  1  0  0  0  0
 11 14  1  0  0  0  0
 14 15  1  0  0  0  0
 14 16  1  0  0  0  0
 14 17  1  0  0  0  0
 17 18  1  0  0  0  0
 17 19  1  0  0  0  0
 17 20  1  0  0  0  0
 20 21  1  0  0  0  0
 20 22  1  0  0  0  0
 22 23  1  0  0  0  0
 22 24  1  0  0  0  0
 22 25  1  0  0  0  0
 20 26  1  0  0  0  0
 26 27  1  0  0  0  0
 26 28  1  0  0  0  0
 26 29  1  0  0  0  0
M  END
> <VConfSearch Rank>
128

> <Conf_Id>
39

> <Delta U+W>
0.965

> <U+W>
-26.861

> <U>
25.129

> <W>
-51.990

> <W(PB)>
-54.526

> <W(SA)>
2.536

> <Valence>
4.206

> <Coulomb>
19.678

> <VdW>
1.245

> <VdW6>
-8.834

> <VdW12>
10.079

> <Bond>
0.240

> <Angle>
1.353

> <Pdih>
2.613

> <Idih>
0.000

> <Tether>
0.000

$$$$
VeraChem MOL file


 29 28  0  0  0  0  0  0  0  0999 V2000     
   22.9101   21.1457   21.5401 C   0  0  0  0  0  0  0  0  0  0  0  0
   23.5584   21.0118   22.4157 H   0  0  0  0  0  0  0  0  0  0  0  0
   22.8679   20.1952   20.9941 H   0  0  0  0  0  0  0  0  0  0  0  0
   23.3852   21.8832   20.8804 H   0  0  0  0  0  0  0  0  0  0  0  0
   21.5015   21.6244   21.9595 C   0  0  0  0  0  0  0  0  0  0  0  0
   20.8619   21.7169   21.0706 H   0  0  0  0  0  0  0  0  0  0  0  0
   21.5850   22.6345   22.3843 H   0  0  0  0  0  0  0  0  0  0  0  0
   20.8206   20.7041   23.0013 C   0  0  0  0  0  0  0  0  0  0  0  0
   21.4634   20.6157   23.8879 H   0  0  0  0  0  0  0  0  0  0  0  0
   19.8980   21.1959   23.3348 H   0  0  0  0  0  0  0  0  0  0  0  0
   20.4874   19.2931   22.4533 C   0  0  0  0  0  0  0  0  0  0  0  0
   21.4108   18.8070   22.1131 H   0  0  0  0  0  0  0  0  0  0  0  0
   19.8409   19.3813   21.5695 H   0  0  0  0  0  0  0  0  0  0  0  0
   19.8170   18.3658   23.4970 C   0  0  0  0  0  0  0  0  0  0  0  0
   19.7493   17.3594   23.0638 H   0  0  0  0  0  0  0  0  0  0  0  0
   20.4713   18.2822   24.3749 H   0  0  0  0  0  0  0  0  0  0  0  0
   18.4019   18.8402   23.9271 C   0  0  0  0  0  0  0  0  0  0  0  0
   17.7956   19.0284   23.0314 H   0  0  0  0  0  0  0  0  0  0  0  0
   18.4765   19.8010   24.4511 H   0  0  0  0  0  0  0  0  0  0  0  0
   17.6358   17.8523   24.8383 C   0  0  2  0  0  0  0  0  0  0  0  0
   16.6618   18.3008   25.0576 H   0  0  0  0  0  0  0  0  0  0  0  0
   18.3566   17.6254   26.1785 C   0  0  0  0  0  0  0  0  0  0  0  0
   19.3053   17.0924   26.0431 H   0  0  0  0  0  0  0  0  0  0  0  0
   18.5665   18.5810   26.6748 H   0  0  0  0  0  0  0  0  0  0  0  0
   17.7310   17.0298   26.8546 H   0  0  0  0  0  0  0  0  0  0  0  0
   17.3464   16.5446   24.1540 N   0  3  0  0  0  0  0  0  0  0  0  0
   16.8287   16.6840   23.2816 H   0  0  0  0  0  0  0  0  0  0  0  0
   16.7849   15.9279   24.7481 H   0  0  0  0  0  0  0  0  0  0  0  0
   18.2099   16.0466   23.9241 H   0  0  0  0  0  0  0  0  0  0  0  0
  1  2  1  0  0  0  0
  1  3  1  0  0  0  0
  1  4  1  0  0  0  0
  1  5  1  0  0  0  0
  5  6  1  0  0  0  0
  5  7  1  0  0  0  0
  5  8  1  0  0  0  0
  8  9  1  0  0  0  0
  8 10  1  0  0  0  0
  8 11  1  0  0  0  0
 11 12  1  0  0  0  0
 11 13  1  0  0  0  0
 11 14  1  0  0  0  0
 14 15  1  0  0  0  0
 14 16  1  0  0  0  0
 14 17  1  0  0  0  0
 17 18  1  0  0  0  0
 17 19  1  0  0  0  0
 17 20  1  0  0  0  0
 20 21  1  0  0  0  0
 20 22  1  0  0  0  0
 22 23  1  0  0  0  0
 22 24  1  0  0  0  0
 22 25  1  0  0  0  0
 20 26  1  0  0  0  0
 26 27  1  0  0  0  0
 26 28  1  0  0  0  0
 26 29  1  0  0  0  0
M  END
> <VConfSearch Rank>
129

> <Conf_Id>
155

> <Delta U+W>
1.624

> <U+W>
-26.202

> <U>
25.894

> <W>
-52.096

> <W(PB)>
-54.602

> <W(SA)>
2.506

> <Valence>
4.779

> <Coulomb>
19.659

> <VdW>
1.456

> <VdW6>
-9.843

> <VdW12>
11.299

> <Bond>
0.315

> <Angle>
1.725

> <Pdih>
2.740

> <Idih>
0.000

> <Tether>
0.000

$$$$
VeraChem MOL file


 29 28  0  0  0  0  0  0  0  0999 V2000     
   17.7589   16.1610   25.5374 C   0  0  0  0  0  0  0  0  0  0  0  0
   18.1816   16.7882   26.3322 H   0  0  0  0  0  0  0  0  0  0  0  0
   16.9173   16.7005   25.0840 H   0  0  0  0  0  0  0  0  0  0  0  0
   17.3610   15.2533   26.0094 H   0  0  0  0  0  0  0  0  0  0  0  0
   18.8221   15.7975   24.4764 C   0  0  0  0  0  0  0  0  0  0  0  0
   18.3859   15.0785   23.7688 H   0  0  0  0  0  0  0  0  0  0  0  0
   19.6643   15.2818   24.9587 H   0  0  0  0  0  0  0  0  0  0  0  0
   19.3414   17.0217   23.6847 C   0  0  0  0  0  0  0  0  0  0  0  0
   20.0122   16.6652   22.8909 H   0  0  0  0  0  0  0  0  0  0  0  0
   18.4946   17.5074   23.1827 H   0  0  0  0  0  0  0  0  0  0  0  0
   20.0989   18.0456   24.5676 C   0  0  0  0  0  0  0  0  0  0  0  0
   20.8532   17.5128   25.1629 H   0  0  0  0  0  0  0  0  0  0  0  0
   19.4085   18.5083   25.2852 H   0  0  0  0  0  0  0  0  0  0  0  0
   20.8112   19.1568   23.7572 C   0  0  0  0  0  0  0  0  0  0  0  0
   21.4242   19.7407   24.4555 H   0  0  0  0  0  0  0  0  0  0  0  0
   21.5076   18.7003   23.0403 H   0  0  0  0  0  0  0  0  0  0  0  0
   19.8329   20.0996   23.0091 C   0  0  0  0  0  0  0  0  0  0  0  0
   19.1446   20.5649   23.7270 H   0  0  0  0  0  0  0  0  0  0  0  0
   19.2154   19.5041   22.3260 H   0  0  0  0  0  0  0  0  0  0  0  0
   20.5382   21.1969   22.1791 C   0  0  2  0  0  0  0  0  0  0  0  0
   21.2615   20.7136   21.5151 H   0  0  0  0  0  0  0  0  0  0  0  0
   21.2884   22.2073   23.0657 C   0  0  0  0  0  0  0  0  0  0  0  0
   20.6146   22.6700   23.7976 H   0  0  0  0  0  0  0  0  0  0  0  0
   22.1111   21.7292   23.6094 H   0  0  0  0  0  0  0  0  0  0  0  0
   21.7264   23.0062   22.4547 H   0  0  0  0  0  0  0  0  0  0  0  0
   19.5610   21.9148   21.2900 N   0  3  0  0  0  0  0  0  0  0  0  0
   19.0807   21.2680   20.6576 H   0  0  0  0  0  0  0  0  0  0  0  0
   20.0294   22.6164   20.7095 H   0  0  0  0  0  0  0  0  0  0  0  0
   18.8444   22.3998   21.8369 H   0  0  0  0  0  0  0  0  0  0  0  0
  1  2  1  0  0  0  0
  1  3  1  0  0  0  0
  1  4  1  0  0  0  0
  1  5  1  0  0  0  0
  5  6  1  0  0  0  0
  5  7  1  0  0  0  0
  5  8  1  0  0  0  0
  8  9  1  0  0  0  0
  8 10  1  0  0  0  0
  8 11  1  0  0  0  0
 11 12  1  0  0  0  0
 11 13  1  0  0  0  0
 11 14  1  0  0  0  0
 14 15  1  0  0  0  0
 14 16  1  0  0  0  0
 14 17  1  0  0  0  0
 17 18  1  0  0  0  0
 17 19  1  0  0  0  0
 17 20  1  0  0  0  0
 20 21  1  0  0  0  0
 20 22  1  0  0  0  0
 22 23  1  0  0  0  0
 22 24  1  0  0  0  0
 22 25  1  0  0  0  0
 20 26  1  0  0  0  0
 26 27  1  0  0  0  0
 26 28  1  0  0  0  0
 26 29  1  0  0  0  0
M  END
> <VConfSearch Rank>
130

> <Conf_Id>
135

> <Delta U+W>
1.581

> <U+W>
-26.245

> <U>
25.974

> <W>
-52.219

> <W(PB)>
-54.709

> <W(SA)>
2.490

> <Valence>
4.811

> <Coulomb>
19.700

> <VdW>
1.463

> <VdW6>
-9.391

> <VdW12>
10.854

> <Bond>
0.285

> <Angle>
1.671

> <Pdih>
2.855

> <Idih>
0.000

> <Tether>
0.000

$$$$
VeraChem MOL file


 29 28  0  0  0  0  0  0  0  0999 V2000     
   16.9445   21.3616   25.4544 C   0  0  0  0  0  0  0  0  0  0  0  0
   16.9123   20.4335   26.0397 H   0  0  0  0  0  0  0  0  0  0  0  0
   17.8632   21.9014   25.7154 H   0  0  0  0  0  0  0  0  0  0  0  0
   16.0958   21.9845   25.7654 H   0  0  0  0  0  0  0  0  0  0  0  0
   16.8717   21.0657   23.9393 C   0  0  0  0  0  0  0  0  0  0  0  0
   16.9322   22.0072   23.3756 H   0  0  0  0  0  0  0  0  0  0  0  0
   15.8884   20.6323   23.7094 H   0  0  0  0  0  0  0  0  0  0  0  0
   17.9708   20.0916   23.4514 C   0  0  0  0  0  0  0  0  0  0  0  0
   17.8811   19.1453   24.0010 H   0  0  0  0  0  0  0  0  0  0  0  0
   17.7853   19.8568   22.3943 H   0  0  0  0  0  0  0  0  0  0  0  0
   19.4046   20.6601   23.6004 C   0  0  0  0  0  0  0  0  0  0  0  0
   19.6500   20.7894   24.6628 H   0  0  0  0  0  0  0  0  0  0  0  0
   19.4420   21.6613   23.1494 H   0  0  0  0  0  0  0  0  0  0  0  0
   20.4870   19.7782   22.9313 C   0  0  0  0  0  0  0  0  0  0  0  0
   20.2612   19.6843   21.8609 H   0  0  0  0  0  0  0  0  0  0  0  0
   21.4529   20.2974   23.0014 H   0  0  0  0  0  0  0  0  0  0  0  0
   20.6195   18.3744   23.5759 C   0  0  0  0  0  0  0  0  0  0  0  0
   19.7079   17.7901   23.3972 H   0  0  0  0  0  0  0  0  0  0  0  0
   20.7060   18.4956   24.6638 H   0  0  0  0  0  0  0  0  0  0  0  0
   21.8436   17.5760   23.0729 C   0  0  2  0  0  0  0  0  0  0  0  0
   22.7384   18.1872   23.2257 H   0  0  0  0  0  0  0  0  0  0  0  0
   21.7364   17.2346   21.5759 C   0  0  0  0  0  0  0  0  0  0  0  0
   20.8201   16.6702   21.3622 H   0  0  0  0  0  0  0  0  0  0  0  0
   21.7335   18.1411   20.9596 H   0  0  0  0  0  0  0  0  0  0  0  0
   22.5922   16.6275   21.2559 H   0  0  0  0  0  0  0  0  0  0  0  0
   22.0431   16.3231   23.8796 N   0  3  0  0  0  0  0  0  0  0  0  0
   22.8763   15.8113   23.5752 H   0  0  0  0  0  0  0  0  0  0  0  0
   21.2449   15.6887   23.7889 H   0  0  0  0  0  0  0  0  0  0  0  0
   22.1602   16.5305   24.8756 H   0  0  0  0  0  0  0  0  0  0  0  0
  1  2  1  0  0  0  0
  1  3  1  0  0  0  0
  1  4  1  0  0  0  0
  1  5  1  0  0  0  0
  5  6  1  0  0  0  0
  5  7  1  0  0  0  0
  5  8  1  0  0  0  0
  8  9  1  0  0  0  0
  8 10  1  0  0  0  0
  8 11  1  0  0  0  0
 11 12  1  0  0  0  0
 11 13  1  0  0  0  0
 11 14  1  0  0  0  0
 14 15  1  0  0  0  0
 14 16  1  0  0  0  0
 14 17  1  0  0  0  0
 17 18  1  0  0  0  0
 17 19  1  0  0  0  0
 17 20  1  0  0  0  0
 20 21  1  0  0  0  0
 20 22  1  0  0  0  0
 22 23  1  0  0  0  0
 22 24  1  0  0  0  0
 22 25  1  0  0  0  0
 20 26  1  0  0  0  0
 26 27  1  0  0  0  0
 26 28  1  0  0  0  0
 26 29  1  0  0  0  0
M  END
> <VConfSearch Rank>
131

> <Conf_Id>
130

> <Delta U+W>
1.359

> <U+W>
-26.467

> <U>
25.687

> <W>
-52.154

> <W(PB)>
-54.643

> <W(SA)>
2.489

> <Valence>
4.682

> <Coulomb>
19.653

> <VdW>
1.352

> <VdW6>
-9.477

> <VdW12>
10.829

> <Bond>
0.274

> <Angle>
1.550

> <Pdih>
2.858

> <Idih>
0.000

> <Tether>
0.000

$$$$
VeraChem MOL file


 29 28  0  0  0  0  0  0  0  0999 V2000     
   23.7525   19.6950   24.1859 C   0  0  0  0  0  0  0  0  0  0  0  0
   24.6667   19.2743   24.6243 H   0  0  0  0  0  0  0  0  0  0  0  0
   24.0513   20.4435   23.4406 H   0  0  0  0  0  0  0  0  0  0  0  0
   23.2078   20.2068   24.9889 H   0  0  0  0  0  0  0  0  0  0  0  0
   22.8989   18.5793   23.5417 C   0  0  0  0  0  0  0  0  0  0  0  0
   22.5851   17.8620   24.3129 H   0  0  0  0  0  0  0  0  0  0  0  0
   23.5267   18.0169   22.8364 H   0  0  0  0  0  0  0  0  0  0  0  0
   21.6575   19.1108   22.7853 C   0  0  0  0  0  0  0  0  0  0  0  0
   21.9790   19.8130   22.0039 H   0  0  0  0  0  0  0  0  0  0  0  0
   21.1880   18.2670   22.2642 H   0  0  0  0  0  0  0  0  0  0  0  0
   20.6214   19.7995   23.7102 C   0  0  0  0  0  0  0  0  0  0  0  0
   21.0845   20.6809   24.1723 H   0  0  0  0  0  0  0  0  0  0  0  0
   20.3552   19.1247   24.5327 H   0  0  0  0  0  0  0  0  0  0  0  0
   19.3487   20.2666   22.9569 C   0  0  0  0  0  0  0  0  0  0  0  0
   18.8011   20.9916   23.5749 H   0  0  0  0  0  0  0  0  0  0  0  0
   19.6611   20.8232   22.0624 H   0  0  0  0  0  0  0  0  0  0  0  0
   18.3875   19.1225   22.5304 C   0  0  0  0  0  0  0  0  0  0  0  0
   18.9351   18.1840   22.3832 H   0  0  0  0  0  0  0  0  0  0  0  0
   17.9734   19.3837   21.5476 H   0  0  0  0  0  0  0  0  0  0  0  0
   17.1969   18.8892   23.4909 C   0  0  2  0  0  0  0  0  0  0  0  0
   16.6467   19.8303   23.5865 H   0  0  0  0  0  0  0  0  0  0  0  0
   17.6438   18.4489   24.8951 C   0  0  0  0  0  0  0  0  0  0  0  0
   18.2034   19.2460   25.3978 H   0  0  0  0  0  0  0  0  0  0  0  0
   16.7746   18.2191   25.5236 H   0  0  0  0  0  0  0  0  0  0  0  0
   18.2769   17.5541   24.8484 H   0  0  0  0  0  0  0  0  0  0  0  0
   16.2292   17.8914   22.9176 N   0  3  0  0  0  0  0  0  0  0  0  0
   15.8809   18.1874   22.0011 H   0  0  0  0  0  0  0  0  0  0  0  0
   15.4156   17.7672   23.5269 H   0  0  0  0  0  0  0  0  0  0  0  0
   16.6654   16.9731   22.7993 H   0  0  0  0  0  0  0  0  0  0  0  0
  1  2  1  0  0  0  0
  1  3  1  0  0  0  0
  1  4  1  0  0  0  0
  1  5  1  0  0  0  0
  5  6  1  0  0  0  0
  5  7  1  0  0  0  0
  5  8  1  0  0  0  0
  8  9  1  0  0  0  0
  8 10  1  0  0  0  0
  8 11  1  0  0  0  0
 11 12  1  0  0  0  0
 11 13  1  0  0  0  0
 11 14  1  0  0  0  0
 14 15  1  0  0  0  0
 14 16  1  0  0  0  0
 14 17  1  0  0  0  0
 17 18  1  0  0  0  0
 17 19  1  0  0  0  0
 17 20  1  0  0  0  0
 20 21  1  0  0  0  0
 20 22  1  0  0  0  0
 22 23  1  0  0  0  0
 22 24  1  0  0  0  0
 22 25  1  0  0  0  0
 20 26  1  0  0  0  0
 26 27  1  0  0  0  0
 26 28  1  0  0  0  0
 26 29  1  0  0  0  0
M  END
> <VConfSearch Rank>
132

> <Conf_Id>
157

> <Delta U+W>
4.354

> <U+W>
-23.472

> <U>
28.780

> <W>
-52.252

> <W(PB)>
-54.715

> <W(SA)>
2.462

> <Valence>
7.566

> <Coulomb>
19.822

> <VdW>
1.392

> <VdW6>
-10.248

> <VdW12>
11.641

> <Bond>
0.340

> <Angle>
2.096

> <Pdih>
5.129

> <Idih>
0.000

> <Tether>
0.000

$$$$
VeraChem MOL file


 29 28  0  0  0  0  0  0  0  0999 V2000     
   17.3345   18.1031   20.9131 C   0  0  0  0  0  0  0  0  0  0  0  0
   17.2505   17.5493   19.9691 H   0  0  0  0  0  0  0  0  0  0  0  0
   17.8238   17.4466   21.6411 H   0  0  0  0  0  0  0  0  0  0  0  0
   16.3170   18.3054   21.2720 H   0  0  0  0  0  0  0  0  0  0  0  0
   18.1156   19.4207   20.6997 C   0  0  0  0  0  0  0  0  0  0  0  0
   17.5772   20.0152   19.9484 H   0  0  0  0  0  0  0  0  0  0  0  0
   19.1047   19.2133   20.2683 H   0  0  0  0  0  0  0  0  0  0  0  0
   18.2568   20.2669   21.9911 C   0  0  0  0  0  0  0  0  0  0  0  0
   18.1849   21.3276   21.7136 H   0  0  0  0  0  0  0  0  0  0  0  0
   17.4080   20.0795   22.6629 H   0  0  0  0  0  0  0  0  0  0  0  0
   19.5929   20.0750   22.7542 C   0  0  0  0  0  0  0  0  0  0  0  0
   19.5998   20.7772   23.5977 H   0  0  0  0  0  0  0  0  0  0  0  0
   20.4285   20.3695   22.1043 H   0  0  0  0  0  0  0  0  0  0  0  0
   19.8289   18.6350   23.2726 C   0  0  0  0  0  0  0  0  0  0  0  0
   18.9599   18.2995   23.8538 H   0  0  0  0  0  0  0  0  0  0  0  0
   19.9102   17.9537   22.4160 H   0  0  0  0  0  0  0  0  0  0  0  0
   21.1222   18.4910   24.1156 C   0  0  0  0  0  0  0  0  0  0  0  0
   21.9842   18.7532   23.4878 H   0  0  0  0  0  0  0  0  0  0  0  0
   21.2528   17.4356   24.3894 H   0  0  0  0  0  0  0  0  0  0  0  0
   21.1505   19.3553   25.3963 C   0  0  2  0  0  0  0  0  0  0  0  0
   21.0515   20.4056   25.1072 H   0  0  0  0  0  0  0  0  0  0  0  0
   22.4922   19.1855   26.1262 C   0  0  0  0  0  0  0  0  0  0  0  0
   22.6414   18.1469   26.4469 H   0  0  0  0  0  0  0  0  0  0  0  0
   23.3286   19.4651   25.4735 H   0  0  0  0  0  0  0  0  0  0  0  0
   22.5346   19.8271   27.0150 H   0  0  0  0  0  0  0  0  0  0  0  0
   20.0029   19.0507   26.3195 N   0  3  0  0  0  0  0  0  0  0  0  0
   19.1035   19.1984   25.8536 H   0  0  0  0  0  0  0  0  0  0  0  0
   20.0216   19.6485   27.1507 H   0  0  0  0  0  0  0  0  0  0  0  0
   20.0299   18.0788   26.6391 H   0  0  0  0  0  0  0  0  0  0  0  0
  1  2  1  0  0  0  0
  1  3  1  0  0  0  0
  1  4  1  0  0  0  0
  1  5  1  0  0  0  0
  5  6  1  0  0  0  0
  5  7  1  0  0  0  0
  5  8  1  0  0  0  0
  8  9  1  0  0  0  0
  8 10  1  0  0  0  0
  8 11  1  0  0  0  0
 11 12  1  0  0  0  0
 11 13  1  0  0  0  0
 11 14  1  0  0  0  0
 14 15  1  0  0  0  0
 14 16  1  0  0  0  0
 14 17  1  0  0  0  0
 17 18  1  0  0  0  0
 17 19  1  0  0  0  0
 17 20  1  0  0  0  0
 20 21  1  0  0  0  0
 20 22  1  0  0  0  0
 22 23  1  0  0  0  0
 22 24  1  0  0  0  0
 22 25  1  0  0  0  0
 20 26  1  0  0  0  0
 26 27  1  0  0  0  0
 26 28  1  0  0  0  0
 26 29  1  0  0  0  0
M  END
> <VConfSearch Rank>
133

> <Conf_Id>
158

> <Delta U+W>
3.648

> <U+W>
-24.178

> <U>
28.057

> <W>
-52.235

> <W(PB)>
-54.696

> <W(SA)>
2.460

> <Valence>
6.543

> <Coulomb>
20.387

> <VdW>
1.127

> <VdW6>
-10.342

> <VdW12>
11.469

> <Bond>
0.308

> <Angle>
1.938

> <Pdih>
4.297

> <Idih>
0.000

> <Tether>
0.000

$$$$
VeraChem MOL file


 29 28  0  0  0  0  0  0  0  0999 V2000     
   22.8171   17.3589   24.8987 C   0  0  0  0  0  0  0  0  0  0  0  0
   22.4080   16.4005   24.5533 H   0  0  0  0  0  0  0  0  0  0  0  0
   22.8710   18.0397   24.0402 H   0  0  0  0  0  0  0  0  0  0  0  0
   23.8440   17.1809   25.2431 H   0  0  0  0  0  0  0  0  0  0  0  0
   21.9591   17.9503   26.0401 C   0  0  0  0  0  0  0  0  0  0  0  0
   22.3697   18.9229   26.3455 H   0  0  0  0  0  0  0  0  0  0  0  0
   22.0377   17.2941   26.9181 H   0  0  0  0  0  0  0  0  0  0  0  0
   20.4646   18.1060   25.6693 C   0  0  0  0  0  0  0  0  0  0  0  0
   20.0546   17.1279   25.3821 H   0  0  0  0  0  0  0  0  0  0  0  0
   19.9136   18.4210   26.5662 H   0  0  0  0  0  0  0  0  0  0  0  0
   20.2138   19.1297   24.5364 C   0  0  0  0  0  0  0  0  0  0  0  0
   20.7152   18.7969   23.6211 H   0  0  0  0  0  0  0  0  0  0  0  0
   20.6660   20.0930   24.8096 H   0  0  0  0  0  0  0  0  0  0  0  0
   18.7014   19.3302   24.2716 C   0  0  0  0  0  0  0  0  0  0  0  0
   18.2149   18.3657   24.0706 H   0  0  0  0  0  0  0  0  0  0  0  0
   18.2411   19.7152   25.1922 H   0  0  0  0  0  0  0  0  0  0  0  0
   18.4045   20.3267   23.1197 C   0  0  0  0  0  0  0  0  0  0  0  0
   19.2223   21.0532   23.0237 H   0  0  0  0  0  0  0  0  0  0  0  0
   17.5184   20.9104   23.4022 H   0  0  0  0  0  0  0  0  0  0  0  0
   18.1102   19.6688   21.7499 C   0  0  2  0  0  0  0  0  0  0  0  0
   17.2601   18.9908   21.8740 H   0  0  0  0  0  0  0  0  0  0  0  0
   19.2976   18.8542   21.2098 C   0  0  0  0  0  0  0  0  0  0  0  0
   20.2070   19.4653   21.1543 H   0  0  0  0  0  0  0  0  0  0  0  0
   19.4992   17.9843   21.8456 H   0  0  0  0  0  0  0  0  0  0  0  0
   19.0806   18.4741   20.2039 H   0  0  0  0  0  0  0  0  0  0  0  0
   17.6846   20.6975   20.7395 N   0  3  0  0  0  0  0  0  0  0  0  0
   16.8635   21.2209   21.0568 H   0  0  0  0  0  0  0  0  0  0  0  0
   17.4419   20.2640   19.8440 H   0  0  0  0  0  0  0  0  0  0  0  0
   18.4304   21.3748   20.5587 H   0  0  0  0  0  0  0  0  0  0  0  0
  1  2  1  0  0  0  0
  1  3  1  0  0  0  0
  1  4  1  0  0  0  0
  1  5  1  0  0  0  0
  5  6  1  0  0  0  0
  5  7  1  0  0  0  0
  5  8  1  0  0  0  0
  8  9  1  0  0  0  0
  8 10  1  0  0  0  0
  8 11  1  0  0  0  0
 11 12  1  0  0  0  0
 11 13  1  0  0  0  0
 11 14  1  0  0  0  0
 14 15  1  0  0  0  0
 14 16  1  0  0  0  0
 14 17  1  0  0  0  0
 17 18  1  0  0  0  0
 17 19  1  0  0  0  0
 17 20  1  0  0  0  0
 20 21  1  0  0  0  0
 20 22  1  0  0  0  0
 22 23  1  0  0  0  0
 22 24  1  0  0  0  0
 22 25  1  0  0  0  0
 20 26  1  0  0  0  0
 26 27  1  0  0  0  0
 26 28  1  0  0  0  0
 26 29  1  0  0  0  0
M  END
> <VConfSearch Rank>
134

> <Conf_Id>
156

> <Delta U+W>
3.393

> <U+W>
-24.433

> <U>
27.713

> <W>
-52.146

> <W(PB)>
-54.603

> <W(SA)>
2.458

> <Valence>
6.758

> <Coulomb>
19.720

> <VdW>
1.235

> <VdW6>
-9.782

> <VdW12>
11.017

> <Bond>
0.287

> <Angle>
1.880

> <Pdih>
4.591

> <Idih>
0.000

> <Tether>
0.000

$$$$
VeraChem MOL file


 29 28  0  0  0  0  0  0  0  0999 V2000     
   21.6084   17.3727   20.6009 C   0  0  0  0  0  0  0  0  0  0  0  0
   21.4372   16.4452   21.1628 H   0  0  0  0  0  0  0  0  0  0  0  0
   21.2207   17.2328   19.5834 H   0  0  0  0  0  0  0  0  0  0  0  0
   22.6927   17.5286   20.5297 H   0  0  0  0  0  0  0  0  0  0  0  0
   20.9297   18.5733   21.2934 C   0  0  0  0  0  0  0  0  0  0  0  0
   21.1426   19.4900   20.7260 H   0  0  0  0  0  0  0  0  0  0  0  0
   21.3710   18.7051   22.2902 H   0  0  0  0  0  0  0  0  0  0  0  0
   19.4002   18.3746   21.4095 C   0  0  0  0  0  0  0  0  0  0  0  0
   18.9911   18.1680   20.4110 H   0  0  0  0  0  0  0  0  0  0  0  0
   19.1862   17.4816   22.0113 H   0  0  0  0  0  0  0  0  0  0  0  0
   18.6559   19.6025   21.9953 C   0  0  0  0  0  0  0  0  0  0  0  0
   17.5795   19.3837   22.0189 H   0  0  0  0  0  0  0  0  0  0  0  0
   18.7741   20.4500   21.3061 H   0  0  0  0  0  0  0  0  0  0  0  0
   19.1096   20.0468   23.4101 C   0  0  0  0  0  0  0  0  0  0  0  0
   20.1529   20.3845   23.3733 H   0  0  0  0  0  0  0  0  0  0  0  0
   18.5163   20.9267   23.6898 H   0  0  0  0  0  0  0  0  0  0  0  0
   18.9401   18.9413   24.4878 C   0  0  0  0  0  0  0  0  0  0  0  0
   19.5560   18.0732   24.2229 H   0  0  0  0  0  0  0  0  0  0  0  0
   17.9005   18.5883   24.4859 H   0  0  0  0  0  0  0  0  0  0  0  0
   19.3186   19.3701   25.9252 C   0  0  2  0  0  0  0  0  0  0  0  0
   19.2049   18.4905   26.5663 H   0  0  0  0  0  0  0  0  0  0  0  0
   18.3843   20.4643   26.4707 C   0  0  0  0  0  0  0  0  0  0  0  0
   18.5851   20.6438   27.5340 H   0  0  0  0  0  0  0  0  0  0  0  0
   18.5177   21.4147   25.9407 H   0  0  0  0  0  0  0  0  0  0  0  0
   17.3337   20.1623   26.3773 H   0  0  0  0  0  0  0  0  0  0  0  0
   20.7594   19.7856   26.0393 N   0  3  0  0  0  0  0  0  0  0  0  0
   21.3901   19.0436   25.7228 H   0  0  0  0  0  0  0  0  0  0  0  0
   21.0087   20.0076   27.0074 H   0  0  0  0  0  0  0  0  0  0  0  0
   20.9511   20.6167   25.4744 H   0  0  0  0  0  0  0  0  0  0  0  0
  1  2  1  0  0  0  0
  1  3  1  0  0  0  0
  1  4  1  0  0  0  0
  1  5  1  0  0  0  0
  5  6  1  0  0  0  0
  5  7  1  0  0  0  0
  5  8  1  0  0  0  0
  8  9  1  0  0  0  0
  8 10  1  0  0  0  0
  8 11  1  0  0  0  0
 11 12  1  0  0  0  0
 11 13  1  0  0  0  0
 11 14  1  0  0  0  0
 14 15  1  0  0  0  0
 14 16  1  0  0  0  0
 14 17  1  0  0  0  0
 17 18  1  0  0  0  0
 17 19  1  0  0  0  0
 17 20  1  0  0  0  0
 20 21  1  0  0  0  0
 20 22  1  0  0  0  0
 22 23  1  0  0  0  0
 22 24  1  0  0  0  0
 22 25  1  0  0  0  0
 20 26  1  0  0  0  0
 26 27  1  0  0  0  0
 26 28  1  0  0  0  0
 26 29  1  0  0  0  0
M  END
> <VConfSearch Rank>
135

> <Conf_Id>
78

> <Delta U+W>
1.477

> <U+W>
-26.349

> <U>
26.385

> <W>
-52.734

> <W(PB)>
-55.179

> <W(SA)>
2.445

> <Valence>
4.726

> <Coulomb>
20.482

> <VdW>
1.177

> <VdW6>
-10.349

> <VdW12>
11.526

> <Bond>
0.319

> <Angle>
1.933

> <Pdih>
2.474

> <Idih>
0.000

> <Tether>
0.000

$$$$
VeraChem MOL file


 29 28  0  0  0  0  0  0  0  0999 V2000     
   23.2614   19.0057   22.1676 C   0  0  0  0  0  0  0  0  0  0  0  0
   23.3028   18.2965   21.3307 H   0  0  0  0  0  0  0  0  0  0  0  0
   22.4881   19.7482   21.9416 H   0  0  0  0  0  0  0  0  0  0  0  0
   24.2250   19.5299   22.2076 H   0  0  0  0  0  0  0  0  0  0  0  0
   22.9901   18.2697   23.5004 C   0  0  0  0  0  0  0  0  0  0  0  0
   23.0278   18.9756   24.3417 H   0  0  0  0  0  0  0  0  0  0  0  0
   23.8106   17.5576   23.6668 H   0  0  0  0  0  0  0  0  0  0  0  0
   21.6498   17.4905   23.5095 C   0  0  0  0  0  0  0  0  0  0  0  0
   21.3857   17.1764   22.4904 H   0  0  0  0  0  0  0  0  0  0  0  0
   21.7991   16.5607   24.0757 H   0  0  0  0  0  0  0  0  0  0  0  0
   20.4608   18.2450   24.1586 C   0  0  0  0  0  0  0  0  0  0  0  0
   20.6952   18.4581   25.2106 H   0  0  0  0  0  0  0  0  0  0  0  0
   19.5993   17.5650   24.1682 H   0  0  0  0  0  0  0  0  0  0  0  0
   20.0746   19.5618   23.4412 C   0  0  0  0  0  0  0  0  0  0  0  0
   20.9125   20.2672   23.5087 H   0  0  0  0  0  0  0  0  0  0  0  0
   19.9164   19.3730   22.3714 H   0  0  0  0  0  0  0  0  0  0  0  0
   18.8271   20.2509   24.0530 C   0  0  0  0  0  0  0  0  0  0  0  0
   18.6439   21.1924   23.5185 H   0  0  0  0  0  0  0  0  0  0  0  0
   19.0587   20.5299   25.0894 H   0  0  0  0  0  0  0  0  0  0  0  0
   17.5327   19.4034   24.0454 C   0  0  2  0  0  0  0  0  0  0  0  0
   17.7214   18.4775   24.5962 H   0  0  0  0  0  0  0  0  0  0  0  0
   17.0871   19.0388   22.6182 C   0  0  0  0  0  0  0  0  0  0  0  0
   16.1411   18.4837   22.6384 H   0  0  0  0  0  0  0  0  0  0  0  0
   16.9416   19.9376   22.0061 H   0  0  0  0  0  0  0  0  0  0  0  0
   17.8272   18.4003   22.1219 H   0  0  0  0  0  0  0  0  0  0  0  0
   16.4218   20.1065   24.7746 N   0  3  0  0  0  0  0  0  0  0  0  0
   16.1756   20.9894   24.3189 H   0  0  0  0  0  0  0  0  0  0  0  0
   16.6820   20.3213   25.7415 H   0  0  0  0  0  0  0  0  0  0  0  0
   15.5740   19.5330   24.8074 H   0  0  0  0  0  0  0  0  0  0  0  0
  1  2  1  0  0  0  0
  1  3  1  0  0  0  0
  1  4  1  0  0  0  0
  1  5  1  0  0  0  0
  5  6  1  0  0  0  0
  5  7  1  0  0  0  0
  5  8  1  0  0  0  0
  8  9  1  0  0  0  0
  8 10  1  0  0  0  0
  8 11  1  0  0  0  0
 11 12  1  0  0  0  0
 11 13  1  0  0  0  0
 11 14  1  0  0  0  0
 14 15  1  0  0  0  0
 14 16  1  0  0  0  0
 14 17  1  0  0  0  0
 17 18  1  0  0  0  0
 17 19  1  0  0  0  0
 17 20  1  0  0  0  0
 20 21  1  0  0  0  0
 20 22  1  0  0  0  0
 22 23  1  0  0  0  0
 22 24  1  0  0  0  0
 22 25  1  0  0  0  0
 20 26  1  0  0  0  0
 26 27  1  0  0  0  0
 26 28  1  0  0  0  0
 26 29  1  0  0  0  0
M  END
> <VConfSearch Rank>
136

> <Conf_Id>
145

> <Delta U+W>
3.784

> <U+W>
-24.042

> <U>
28.220

> <W>
-52.262

> <W(PB)>
-54.724

> <W(SA)>
2.462

> <Valence>
7.040

> <Coulomb>
19.984

> <VdW>
1.197

> <VdW6>
-10.566

> <VdW12>
11.763

> <Bond>
0.320

> <Angle>
2.280

> <Pdih>
4.439

> <Idih>
0.000

> <Tether>
0.000

$$$$
VeraChem MOL file


 29 28  0  0  0  0  0  0  0  0999 V2000     
   21.2090   21.4466   26.4154 C   0  0  0  0  0  0  0  0  0  0  0  0
   22.2710   21.5197   26.6837 H   0  0  0  0  0  0  0  0  0  0  0  0
   20.9924   22.2166   25.6634 H   0  0  0  0  0  0  0  0  0  0  0  0
   20.6183   21.6754   27.3119 H   0  0  0  0  0  0  0  0  0  0  0  0
   20.8670   20.0395   25.8818 C   0  0  0  0  0  0  0  0  0  0  0  0
   19.7932   19.9883   25.6653 H   0  0  0  0  0  0  0  0  0  0  0  0
   21.0620   19.2972   26.6684 H   0  0  0  0  0  0  0  0  0  0  0  0
   21.6973   19.6898   24.6233 C   0  0  0  0  0  0  0  0  0  0  0  0
   21.5668   20.4601   23.8510 H   0  0  0  0  0  0  0  0  0  0  0  0
   22.7607   19.7149   24.8987 H   0  0  0  0  0  0  0  0  0  0  0  0
   21.3738   18.2891   24.0411 C   0  0  0  0  0  0  0  0  0  0  0  0
   21.0186   17.6181   24.8354 H   0  0  0  0  0  0  0  0  0  0  0  0
   22.3111   17.8454   23.6778 H   0  0  0  0  0  0  0  0  0  0  0  0
   20.3710   18.2928   22.8584 C   0  0  0  0  0  0  0  0  0  0  0  0
   20.7944   18.8805   22.0330 H   0  0  0  0  0  0  0  0  0  0  0  0
   20.2855   17.2625   22.4904 H   0  0  0  0  0  0  0  0  0  0  0  0
   18.9633   18.8360   23.2218 C   0  0  0  0  0  0  0  0  0  0  0  0
   19.0459   19.8928   23.5031 H   0  0  0  0  0  0  0  0  0  0  0  0
   18.5853   18.3086   24.1075 H   0  0  0  0  0  0  0  0  0  0  0  0
   17.9122   18.7303   22.0916 C   0  0  2  0  0  0  0  0  0  0  0  0
   16.9988   19.2132   22.4525 H   0  0  0  0  0  0  0  0  0  0  0  0
   17.5616   17.2696   21.7581 C   0  0  0  0  0  0  0  0  0  0  0  0
   16.7157   17.2288   21.0610 H   0  0  0  0  0  0  0  0  0  0  0  0
   18.4035   16.7445   21.2920 H   0  0  0  0  0  0  0  0  0  0  0  0
   17.2725   16.7213   22.6633 H   0  0  0  0  0  0  0  0  0  0  0  0
   18.3209   19.4825   20.8552 N   0  3  0  0  0  0  0  0  0  0  0  0
   19.1689   19.0851   20.4434 H   0  0  0  0  0  0  0  0  0  0  0  0
   18.5095   20.4679   21.0604 H   0  0  0  0  0  0  0  0  0  0  0  0
   17.5886   19.4529   20.1400 H   0  0  0  0  0  0  0  0  0  0  0  0
  1  2  1  0  0  0  0
  1  3  1  0  0  0  0
  1  4  1  0  0  0  0
  1  5  1  0  0  0  0
  5  6  1  0  0  0  0
  5  7  1  0  0  0  0
  5  8  1  0  0  0  0
  8  9  1  0  0  0  0
  8 10  1  0  0  0  0
  8 11  1  0  0  0  0
 11 12  1  0  0  0  0
 11 13  1  0  0  0  0
 11 14  1  0  0  0  0
 14 15  1  0  0  0  0
 14 16  1  0  0  0  0
 14 17  1  0  0  0  0
 17 18  1  0  0  0  0
 17 19  1  0  0  0  0
 17 20  1  0  0  0  0
 20 21  1  0  0  0  0
 20 22  1  0  0  0  0
 22 23  1  0  0  0  0
 22 24  1  0  0  0  0
 22 25  1  0  0  0  0
 20 26  1  0  0  0  0
 26 27  1  0  0  0  0
 26 28  1  0  0  0  0
 26 29  1  0  0  0  0
M  END
> <VConfSearch Rank>
137

> <Conf_Id>
71

> <Delta U+W>
3.542

> <U+W>
-24.284

> <U>
28.217

> <W>
-52.501

> <W(PB)>
-54.947

> <W(SA)>
2.446

> <Valence>
6.821

> <Coulomb>
20.147

> <VdW>
1.249

> <VdW6>
-10.237

> <VdW12>
11.486

> <Bond>
0.317

> <Angle>
1.990

> <Pdih>
4.515

> <Idih>
0.000

> <Tether>
0.000

$$$$
VeraChem MOL file


 29 28  0  0  0  0  0  0  0  0999 V2000     
   17.5286   19.1939   26.7277 C   0  0  0  0  0  0  0  0  0  0  0  0
   18.3816   19.7622   27.1210 H   0  0  0  0  0  0  0  0  0  0  0  0
   16.6281   19.8133   26.8311 H   0  0  0  0  0  0  0  0  0  0  0  0
   17.3988   18.3029   27.3556 H   0  0  0  0  0  0  0  0  0  0  0  0
   17.7610   18.7939   25.2554 C   0  0  0  0  0  0  0  0  0  0  0  0
   16.9068   18.1989   24.9031 H   0  0  0  0  0  0  0  0  0  0  0  0
   18.6405   18.1418   25.1953 H   0  0  0  0  0  0  0  0  0  0  0  0
   17.9359   20.0357   24.3484 C   0  0  0  0  0  0  0  0  0  0  0  0
   17.0203   20.6394   24.4172 H   0  0  0  0  0  0  0  0  0  0  0  0
   18.7477   20.6737   24.7238 H   0  0  0  0  0  0  0  0  0  0  0  0
   18.1797   19.6834   22.8577 C   0  0  0  0  0  0  0  0  0  0  0  0
   17.6690   20.4362   22.2413 H   0  0  0  0  0  0  0  0  0  0  0  0
   17.7029   18.7254   22.6086 H   0  0  0  0  0  0  0  0  0  0  0  0
   19.6702   19.6655   22.4306 C   0  0  0  0  0  0  0  0  0  0  0  0
   19.7094   19.4885   21.3480 H   0  0  0  0  0  0  0  0  0  0  0  0
   20.0987   20.6631   22.5949 H   0  0  0  0  0  0  0  0  0  0  0  0
   20.5270   18.5983   23.1620 C   0  0  0  0  0  0  0  0  0  0  0  0
   20.0187   17.6267   23.1097 H   0  0  0  0  0  0  0  0  0  0  0  0
   20.5966   18.8550   24.2263 H   0  0  0  0  0  0  0  0  0  0  0  0
   21.9634   18.4308   22.6129 C   0  0  2  0  0  0  0  0  0  0  0  0
   22.4521   17.6558   23.2115 H   0  0  0  0  0  0  0  0  0  0  0  0
   22.7902   19.7205   22.7558 C   0  0  0  0  0  0  0  0  0  0  0  0
   22.7748   20.0805   23.7920 H   0  0  0  0  0  0  0  0  0  0  0  0
   23.8366   19.5378   22.4825 H   0  0  0  0  0  0  0  0  0  0  0  0
   22.4093   20.5195   22.1084 H   0  0  0  0  0  0  0  0  0  0  0  0
   21.9823   17.9331   21.1937 N   0  3  0  0  0  0  0  0  0  0  0  0
   21.4699   17.0517   21.0982 H   0  0  0  0  0  0  0  0  0  0  0  0
   22.9390   17.7681   20.8680 H   0  0  0  0  0  0  0  0  0  0  0  0
   21.5538   18.6095   20.5571 H   0  0  0  0  0  0  0  0  0  0  0  0
  1  2  1  0  0  0  0
  1  3  1  0  0  0  0
  1  4  1  0  0  0  0
  1  5  1  0  0  0  0
  5  6  1  0  0  0  0
  5  7  1  0  0  0  0
  5  8  1  0  0  0  0
  8  9  1  0  0  0  0
  8 10  1  0  0  0  0
  8 11  1  0  0  0  0
 11 12  1  0  0  0  0
 11 13  1  0  0  0  0
 11 14  1  0  0  0  0
 14 15  1  0  0  0  0
 14 16  1  0  0  0  0
 14 17  1  0  0  0  0
 17 18  1  0  0  0  0
 17 19  1  0  0  0  0
 17 20  1  0  0  0  0
 20 21  1  0  0  0  0
 20 22  1  0  0  0  0
 22 23  1  0  0  0  0
 22 24  1  0  0  0  0
 22 25  1  0  0  0  0
 20 26  1  0  0  0  0
 26 27  1  0  0  0  0
 26 28  1  0  0  0  0
 26 29  1  0  0  0  0
M  END
> <VConfSearch Rank>
138

> <Conf_Id>
163

> <Delta U+W>
3.309

> <U+W>
-24.517

> <U>
27.916

> <W>
-52.433

> <W(PB)>
-54.866

> <W(SA)>
2.433

> <Valence>
6.693

> <Coulomb>
20.015

> <VdW>
1.208

> <VdW6>
-10.294

> <VdW12>
11.503

> <Bond>
0.312

> <Angle>
1.939

> <Pdih>
4.441

> <Idih>
0.000

> <Tether>
0.000

$$$$
VeraChem MOL file


 29 28  0  0  0  0  0  0  0  0999 V2000     
   17.9480   15.6475   23.2326 C   0  0  0  0  0  0  0  0  0  0  0  0
   16.9145   15.9263   22.9895 H   0  0  0  0  0  0  0  0  0  0  0  0
   18.5348   15.6586   22.3059 H   0  0  0  0  0  0  0  0  0  0  0  0
   17.9385   14.6145   23.6037 H   0  0  0  0  0  0  0  0  0  0  0  0
   18.5446   16.5978   24.2955 C   0  0  0  0  0  0  0  0  0  0  0  0
   19.5891   16.3206   24.4955 H   0  0  0  0  0  0  0  0  0  0  0  0
   18.0023   16.4541   25.2405 H   0  0  0  0  0  0  0  0  0  0  0  0
   18.4655   18.0927   23.9020 C   0  0  0  0  0  0  0  0  0  0  0  0
   17.4195   18.3662   23.7071 H   0  0  0  0  0  0  0  0  0  0  0  0
   18.7859   18.6872   24.7672 H   0  0  0  0  0  0  0  0  0  0  0  0
   19.3383   18.4537   22.6734 C   0  0  0  0  0  0  0  0  0  0  0  0
   19.0169   17.8572   21.8099 H   0  0  0  0  0  0  0  0  0  0  0  0
   20.3816   18.1708   22.8656 H   0  0  0  0  0  0  0  0  0  0  0  0
   19.2561   19.9500   22.2737 C   0  0  0  0  0  0  0  0  0  0  0  0
   19.8535   20.1071   21.3657 H   0  0  0  0  0  0  0  0  0  0  0  0
   18.2214   20.1879   21.9910 H   0  0  0  0  0  0  0  0  0  0  0  0
   19.7156   20.9495   23.3688 C   0  0  0  0  0  0  0  0  0  0  0  0
   18.9962   20.9331   24.1974 H   0  0  0  0  0  0  0  0  0  0  0  0
   19.6770   21.9679   22.9601 H   0  0  0  0  0  0  0  0  0  0  0  0
   21.1318   20.6742   23.9206 C   0  0  2  0  0  0  0  0  0  0  0  0
   21.1513   19.6583   24.3263 H   0  0  0  0  0  0  0  0  0  0  0  0
   21.4630   21.6518   25.0590 C   0  0  0  0  0  0  0  0  0  0  0  0
   22.4530   21.4367   25.4797 H   0  0  0  0  0  0  0  0  0  0  0  0
   21.4605   22.6901   24.7042 H   0  0  0  0  0  0  0  0  0  0  0  0
   20.7304   21.5663   25.8713 H   0  0  0  0  0  0  0  0  0  0  0  0
   22.1837   20.7334   22.8473 N   0  3  0  0  0  0  0  0  0  0  0  0
   21.9873   20.0636   22.0986 H   0  0  0  0  0  0  0  0  0  0  0  0
   23.1126   20.5168   23.2200 H   0  0  0  0  0  0  0  0  0  0  0  0
   22.2317   21.6640   22.4242 H   0  0  0  0  0  0  0  0  0  0  0  0
  1  2  1  0  0  0  0
  1  3  1  0  0  0  0
  1  4  1  0  0  0  0
  1  5  1  0  0  0  0
  5  6  1  0  0  0  0
  5  7  1  0  0  0  0
  5  8  1  0  0  0  0
  8  9  1  0  0  0  0
  8 10  1  0  0  0  0
  8 11  1  0  0  0  0
 11 12  1  0  0  0  0
 11 13  1  0  0  0  0
 11 14  1  0  0  0  0
 14 15  1  0  0  0  0
 14 16  1  0  0  0  0
 14 17  1  0  0  0  0
 17 18  1  0  0  0  0
 17 19  1  0  0  0  0
 17 20  1  0  0  0  0
 20 21  1  0  0  0  0
 20 22  1  0  0  0  0
 22 23  1  0  0  0  0
 22 24  1  0  0  0  0
 22 25  1  0  0  0  0
 20 26  1  0  0  0  0
 26 27  1  0  0  0  0
 26 28  1  0  0  0  0
 26 29  1  0  0  0  0
M  END
> <VConfSearch Rank>
139

> <Conf_Id>
173

> <Delta U+W>
1.363

> <U+W>
-26.462

> <U>
25.816

> <W>
-52.279

> <W(PB)>
-54.727

> <W(SA)>
2.449

> <Valence>
4.504

> <Coulomb>
20.342

> <VdW>
0.971

> <VdW6>
-10.532

> <VdW12>
11.503

> <Bond>
0.307

> <Angle>
1.715

> <Pdih>
2.481

> <Idih>
0.000

> <Tether>
0.000

$$$$
VeraChem MOL file


 29 28  0  0  0  0  0  0  0  0999 V2000     
   16.6291   16.8602   23.2522 C   0  0  0  0  0  0  0  0  0  0  0  0
   15.9672   17.4561   23.8941 H   0  0  0  0  0  0  0  0  0  0  0  0
   16.0979   16.6495   22.3149 H   0  0  0  0  0  0  0  0  0  0  0  0
   16.8153   15.9029   23.7562 H   0  0  0  0  0  0  0  0  0  0  0  0
   17.9558   17.6017   22.9841 C   0  0  0  0  0  0  0  0  0  0  0  0
   18.6067   16.9709   22.3628 H   0  0  0  0  0  0  0  0  0  0  0  0
   18.4721   17.7593   23.9403 H   0  0  0  0  0  0  0  0  0  0  0  0
   17.7188   18.9591   22.2839 C   0  0  0  0  0  0  0  0  0  0  0  0
   17.0984   18.7968   21.3916 H   0  0  0  0  0  0  0  0  0  0  0  0
   17.1353   19.6135   22.9461 H   0  0  0  0  0  0  0  0  0  0  0  0
   19.0145   19.6913   21.8484 C   0  0  0  0  0  0  0  0  0  0  0  0
   18.7146   20.6140   21.3326 H   0  0  0  0  0  0  0  0  0  0  0  0
   19.5511   19.0947   21.0980 H   0  0  0  0  0  0  0  0  0  0  0  0
   19.9638   20.0749   23.0134 C   0  0  0  0  0  0  0  0  0  0  0  0
   20.4118   21.0503   22.7820 H   0  0  0  0  0  0  0  0  0  0  0  0
   19.3789   20.2180   23.9310 H   0  0  0  0  0  0  0  0  0  0  0  0
   21.1068   19.0452   23.2334 C   0  0  0  0  0  0  0  0  0  0  0  0
   21.6997   18.9704   22.3125 H   0  0  0  0  0  0  0  0  0  0  0  0
   20.6913   18.0450   23.3990 H   0  0  0  0  0  0  0  0  0  0  0  0
   22.0645   19.3769   24.4018 C   0  0  2  0  0  0  0  0  0  0  0  0
   22.8495   18.6142   24.4048 H   0  0  0  0  0  0  0  0  0  0  0  0
   21.3539   19.3159   25.7653 C   0  0  0  0  0  0  0  0  0  0  0  0
   20.8404   18.3552   25.8949 H   0  0  0  0  0  0  0  0  0  0  0  0
   22.0806   19.4169   26.5807 H   0  0  0  0  0  0  0  0  0  0  0  0
   20.6149   20.1183   25.8751 H   0  0  0  0  0  0  0  0  0  0  0  0
   22.7648   20.6948   24.2167 N   0  3  0  0  0  0  0  0  0  0  0  0
   23.2776   20.7261   23.3308 H   0  0  0  0  0  0  0  0  0  0  0  0
   23.4391   20.8689   24.9674 H   0  0  0  0  0  0  0  0  0  0  0  0
   22.0989   21.4714   24.2155 H   0  0  0  0  0  0  0  0  0  0  0  0
  1  2  1  0  0  0  0
  1  3  1  0  0  0  0
  1  4  1  0  0  0  0
  1  5  1  0  0  0  0
  5  6  1  0  0  0  0
  5  7  1  0  0  0  0
  5  8  1  0  0  0  0
  8  9  1  0  0  0  0
  8 10  1  0  0  0  0
  8 11  1  0  0  0  0
 11 12  1  0  0  0  0
 11 13  1  0  0  0  0
 11 14  1  0  0  0  0
 14 15  1  0  0  0  0
 14 16  1  0  0  0  0
 14 17  1  0  0  0  0
 17 18  1  0  0  0  0
 17 19  1  0  0  0  0
 17 20  1  0  0  0  0
 20 21  1  0  0  0  0
 20 22  1  0  0  0  0
 22 23  1  0  0  0  0
 22 24  1  0  0  0  0
 22 25  1  0  0  0  0
 20 26  1  0  0  0  0
 26 27  1  0  0  0  0
 26 28  1  0  0  0  0
 26 29  1  0  0  0  0
M  END
> <VConfSearch Rank>
140

> <Conf_Id>
117

> <Delta U+W>
3.377

> <U+W>
-24.449

> <U>
27.947

> <W>
-52.396

> <W(PB)>
-54.842

> <W(SA)>
2.447

> <Valence>
6.731

> <Coulomb>
20.067

> <VdW>
1.149

> <VdW6>
-10.427

> <VdW12>
11.575

> <Bond>
0.324

> <Angle>
1.943

> <Pdih>
4.465

> <Idih>
0.000

> <Tether>
0.000

$$$$
VeraChem MOL file


 29 28  0  0  0  0  0  0  0  0999 V2000     
   23.0602   15.9757   21.9061 C   0  0  0  0  0  0  0  0  0  0  0  0
   22.3682   15.1270   21.9840 H   0  0  0  0  0  0  0  0  0  0  0  0
   23.0443   16.3359   20.8692 H   0  0  0  0  0  0  0  0  0  0  0  0
   24.0718   15.6065   22.1193 H   0  0  0  0  0  0  0  0  0  0  0  0
   22.6720   17.0999   22.8897 C   0  0  0  0  0  0  0  0  0  0  0  0
   23.4006   17.9191   22.8130 H   0  0  0  0  0  0  0  0  0  0  0  0
   22.7296   16.7195   23.9192 H   0  0  0  0  0  0  0  0  0  0  0  0
   21.2511   17.6379   22.6112 C   0  0  0  0  0  0  0  0  0  0  0  0
   21.1977   18.0148   21.5805 H   0  0  0  0  0  0  0  0  0  0  0  0
   20.5268   16.8150   22.6868 H   0  0  0  0  0  0  0  0  0  0  0  0
   20.8588   18.7639   23.5942 C   0  0  0  0  0  0  0  0  0  0  0  0
   21.5847   19.5854   23.5186 H   0  0  0  0  0  0  0  0  0  0  0  0
   20.9121   18.3861   24.6247 H   0  0  0  0  0  0  0  0  0  0  0  0
   19.4375   19.3024   23.3149 C   0  0  0  0  0  0  0  0  0  0  0  0
   19.3860   19.6832   22.2853 H   0  0  0  0  0  0  0  0  0  0  0  0
   18.7191   18.4749   23.3859 H   0  0  0  0  0  0  0  0  0  0  0  0
   19.0466   20.4293   24.3017 C   0  0  0  0  0  0  0  0  0  0  0  0
   19.8060   21.2212   24.2546 H   0  0  0  0  0  0  0  0  0  0  0  0
   19.0591   20.0436   25.3298 H   0  0  0  0  0  0  0  0  0  0  0  0
   17.6648   21.0462   23.9951 C   0  0  2  0  0  0  0  0  0  0  0  0
   17.6696   21.4007   22.9597 H   0  0  0  0  0  0  0  0  0  0  0  0
   17.4001   22.2481   24.9157 C   0  0  0  0  0  0  0  0  0  0  0  0
   16.4355   22.7138   24.6786 H   0  0  0  0  0  0  0  0  0  0  0  0
   17.3833   21.9446   25.9700 H   0  0  0  0  0  0  0  0  0  0  0  0
   18.1776   23.0124   24.7924 H   0  0  0  0  0  0  0  0  0  0  0  0
   16.5493   20.0429   24.1044 N   0  3  0  0  0  0  0  0  0  0  0  0
   16.6895   19.2570   23.4638 H   0  0  0  0  0  0  0  0  0  0  0  0
   15.6437   20.4644   23.8787 H   0  0  0  0  0  0  0  0  0  0  0  0
   16.4826   19.6612   25.0517 H   0  0  0  0  0  0  0  0  0  0  0  0
  1  2  1  0  0  0  0
  1  3  1  0  0  0  0
  1  4  1  0  0  0  0
  1  5  1  0  0  0  0
  5  6  1  0  0  0  0
  5  7  1  0  0  0  0
  5  8  1  0  0  0  0
  8  9  1  0  0  0  0
  8 10  1  0  0  0  0
  8 11  1  0  0  0  0
 11 12  1  0  0  0  0
 11 13  1  0  0  0  0
 11 14  1  0  0  0  0
 14 15  1  0  0  0  0
 14 16  1  0  0  0  0
 14 17  1  0  0  0  0
 17 18  1  0  0  0  0
 17 19  1  0  0  0  0
 17 20  1  0  0  0  0
 20 21  1  0  0  0  0
 20 22  1  0  0  0  0
 22 23  1  0  0  0  0
 22 24  1  0  0  0  0
 22 25  1  0  0  0  0
 20 26  1  0  0  0  0
 26 27  1  0  0  0  0
 26 28  1  0  0  0  0
 26 29  1  0  0  0  0
M  END
> <VConfSearch Rank>
141

> <Conf_Id>
164

> <Delta U+W>
0.000

> <U+W>
-27.826

> <U>
23.963

> <W>
-51.789

> <W(PB)>
-54.342

> <W(SA)>
2.554

> <Valence>
3.166

> <Coulomb>
19.734

> <VdW>
1.062

> <VdW6>
-7.938

> <VdW12>
9.001

> <Bond>
0.188

> <Angle>
0.880

> <Pdih>
2.098

> <Idih>
0.000

> <Tether>
0.000

$$$$
VeraChem MOL file


 29 28  0  0  0  0  0  0  0  0999 V2000     
   15.6149   17.0405   24.7610 C   0  0  0  0  0  0  0  0  0  0  0  0
   15.6043   17.4569   25.7767 H   0  0  0  0  0  0  0  0  0  0  0  0
   15.0263   17.7034   24.1134 H   0  0  0  0  0  0  0  0  0  0  0  0
   15.1119   16.0652   24.7912 H   0  0  0  0  0  0  0  0  0  0  0  0
   17.0591   16.8928   24.2372 C   0  0  0  0  0  0  0  0  0  0  0  0
   17.0391   16.4432   23.2345 H   0  0  0  0  0  0  0  0  0  0  0  0
   17.6126   16.1986   24.8850 H   0  0  0  0  0  0  0  0  0  0  0  0
   17.7902   18.2524   24.1847 C   0  0  0  0  0  0  0  0  0  0  0  0
   17.2320   18.9435   23.5381 H   0  0  0  0  0  0  0  0  0  0  0  0
   17.8058   18.6988   25.1887 H   0  0  0  0  0  0  0  0  0  0  0  0
   19.2369   18.1085   23.6607 C   0  0  0  0  0  0  0  0  0  0  0  0
   19.2205   17.6623   22.6566 H   0  0  0  0  0  0  0  0  0  0  0  0
   19.7933   17.4161   24.3075 H   0  0  0  0  0  0  0  0  0  0  0  0
   19.9681   19.4691   23.6088 C   0  0  0  0  0  0  0  0  0  0  0  0
   19.3998   20.1554   22.9675 H   0  0  0  0  0  0  0  0  0  0  0  0
   19.9888   19.9127   24.6139 H   0  0  0  0  0  0  0  0  0  0  0  0
   21.4158   19.3227   23.0789 C   0  0  0  0  0  0  0  0  0  0  0  0
   21.3966   18.9408   22.0495 H   0  0  0  0  0  0  0  0  0  0  0  0
   21.9336   18.5653   23.6822 H   0  0  0  0  0  0  0  0  0  0  0  0
   22.2342   20.6330   23.1323 C   0  0  2  0  0  0  0  0  0  0  0  0
   22.2035   21.0154   24.1572 H   0  0  0  0  0  0  0  0  0  0  0  0
   21.6658   21.7114   22.1925 C   0  0  0  0  0  0  0  0  0  0  0  0
   21.6167   21.3501   21.1577 H   0  0  0  0  0  0  0  0  0  0  0  0
   20.6586   22.0168   22.4985 H   0  0  0  0  0  0  0  0  0  0  0  0
   22.2955   22.6094   22.2096 H   0  0  0  0  0  0  0  0  0  0  0  0
   23.6824   20.3803   22.8173 N   0  3  0  0  0  0  0  0  0  0  0  0
   24.2362   21.2386   22.8901 H   0  0  0  0  0  0  0  0  0  0  0  0
   23.8010   20.0199   21.8666 H   0  0  0  0  0  0  0  0  0  0  0  0
   24.0944   19.6969   23.4593 H   0  0  0  0  0  0  0  0  0  0  0  0
  1  2  1  0  0  0  0
  1  3  1  0  0  0  0
  1  4  1  0  0  0  0
  1  5  1  0  0  0  0
  5  6  1  0  0  0  0
  5  7  1  0  0  0  0
  5  8  1  0  0  0  0
  8  9  1  0  0  0  0
  8 10  1  0  0  0  0
  8 11  1  0  0  0  0
 11 12  1  0  0  0  0
 11 13  1  0  0  0  0
 11 14  1  0  0  0  0
 14 15  1  0  0  0  0
 14 16  1  0  0  0  0
 14 17  1  0  0  0  0
 17 18  1  0  0  0  0
 17 19  1  0  0  0  0
 17 20  1  0  0  0  0
 20 21  1  0  0  0  0
 20 22  1  0  0  0  0
 22 23  1  0  0  0  0
 22 24  1  0  0  0  0
 22 25  1  0  0  0  0
 20 26  1  0  0  0  0
 26 27  1  0  0  0  0
 26 28  1  0  0  0  0
 26 29  1  0  0  0  0
M  END
> <VConfSearch Rank>
142

> <Conf_Id>
58

> <Delta U+W>
0.412

> <U+W>
-27.414

> <U>
24.279

> <W>
-51.694

> <W(PB)>
-54.271

> <W(SA)>
2.577

> <Valence>
3.709

> <Coulomb>
19.380

> <VdW>
1.191

> <VdW6>
-8.093

> <VdW12>
9.284

> <Bond>
0.200

> <Angle>
1.161

> <Pdih>
2.348

> <Idih>
0.000

> <Tether>
0.000

$$$$
VeraChem MOL file


 29 28  0  0  0  0  0  0  0  0999 V2000     
   20.4990   19.3902   28.1142 C   0  0  0  0  0  0  0  0  0  0  0  0
   19.6737   20.0988   28.2623 H   0  0  0  0  0  0  0  0  0  0  0  0
   20.1147   18.3765   28.2873 H   0  0  0  0  0  0  0  0  0  0  0  0
   21.2613   19.5964   28.8767 H   0  0  0  0  0  0  0  0  0  0  0  0
   21.0960   19.5224   26.6972 C   0  0  0  0  0  0  0  0  0  0  0  0
   21.9397   18.8262   26.5905 H   0  0  0  0  0  0  0  0  0  0  0  0
   21.5020   20.5352   26.5657 H   0  0  0  0  0  0  0  0  0  0  0  0
   20.0428   19.2368   25.6040 C   0  0  0  0  0  0  0  0  0  0  0  0
   19.6384   18.2244   25.7408 H   0  0  0  0  0  0  0  0  0  0  0  0
   19.2005   19.9335   25.7162 H   0  0  0  0  0  0  0  0  0  0  0  0
   20.6370   19.3687   24.1835 C   0  0  0  0  0  0  0  0  0  0  0  0
   21.4796   18.6720   24.0728 H   0  0  0  0  0  0  0  0  0  0  0  0
   21.0415   20.3813   24.0480 H   0  0  0  0  0  0  0  0  0  0  0  0
   19.5831   19.0830   23.0899 C   0  0  0  0  0  0  0  0  0  0  0  0
   19.1821   18.0708   23.2319 H   0  0  0  0  0  0  0  0  0  0  0  0
   18.7438   19.7803   23.2119 H   0  0  0  0  0  0  0  0  0  0  0  0
   20.1845   19.2203   21.6670 C   0  0  0  0  0  0  0  0  0  0  0  0
   21.0524   18.5539   21.5767 H   0  0  0  0  0  0  0  0  0  0  0  0
   20.5712   20.2393   21.5332 H   0  0  0  0  0  0  0  0  0  0  0  0
   19.2047   18.9051   20.5121 C   0  0  2  0  0  0  0  0  0  0  0  0
   19.7616   19.0096   19.5757 H   0  0  0  0  0  0  0  0  0  0  0  0
   18.0272   19.8943   20.4657 C   0  0  0  0  0  0  0  0  0  0  0  0
   17.4265   19.7330   19.5622 H   0  0  0  0  0  0  0  0  0  0  0  0
   17.3655   19.7786   21.3323 H   0  0  0  0  0  0  0  0  0  0  0  0
   18.3885   20.9299   20.4442 H   0  0  0  0  0  0  0  0  0  0  0  0
   18.7132   17.4842   20.5481 N   0  3  0  0  0  0  0  0  0  0  0  0
   19.4906   16.8177   20.5342 H   0  0  0  0  0  0  0  0  0  0  0  0
   18.1157   17.2746   19.7433 H   0  0  0  0  0  0  0  0  0  0  0  0
   18.1657   17.3023   21.3929 H   0  0  0  0  0  0  0  0  0  0  0  0
  1  2  1  0  0  0  0
  1  3  1  0  0  0  0
  1  4  1  0  0  0  0
  1  5  1  0  0  0  0
  5  6  1  0  0  0  0
  5  7  1  0  0  0  0
  5  8  1  0  0  0  0
  8  9  1  0  0  0  0
  8 10  1  0  0  0  0
  8 11  1  0  0  0  0
 11 12  1  0  0  0  0
 11 13  1  0  0  0  0
 11 14  1  0  0  0  0
 14 15  1  0  0  0  0
 14 16  1  0  0  0  0
 14 17  1  0  0  0  0
 17 18  1  0  0  0  0
 17 19  1  0  0  0  0
 17 20  1  0  0  0  0
 20 21  1  0  0  0  0
 20 22  1  0  0  0  0
 22 23  1  0  0  0  0
 22 24  1  0  0  0  0
 22 25  1  0  0  0  0
 20 26  1  0  0  0  0
 26 27  1  0  0  0  0
 26 28  1  0  0  0  0
 26 29  1  0  0  0  0
M  END
> <VConfSearch Rank>
143

> <Conf_Id>
137

> <Delta U+W>
0.280

> <U+W>
-27.546

> <U>
24.513

> <W>
-52.059

> <W(PB)>
-54.556

> <W(SA)>
2.497

> <Valence>
3.677

> <Coulomb>
19.662

> <VdW>
1.174

> <VdW6>
-8.569

> <VdW12>
9.743

> <Bond>
0.224

> <Angle>
1.211

> <Pdih>
2.243

> <Idih>
0.000

> <Tether>
0.000

$$$$
VeraChem MOL file


 29 28  0  0  0  0  0  0  0  0999 V2000     
   20.3185   22.0291   26.8818 C   0  0  0  0  0  0  0  0  0  0  0  0
   19.2521   21.8226   27.0412 H   0  0  0  0  0  0  0  0  0  0  0  0
   20.8983   21.3283   27.4967 H   0  0  0  0  0  0  0  0  0  0  0  0
   20.5231   23.0447   27.2445 H   0  0  0  0  0  0  0  0  0  0  0  0
   20.6921   21.8977   25.3900 C   0  0  0  0  0  0  0  0  0  0  0  0
   21.7550   22.1439   25.2579 H   0  0  0  0  0  0  0  0  0  0  0  0
   20.1213   22.6325   24.8050 H   0  0  0  0  0  0  0  0  0  0  0  0
   20.4146   20.4758   24.8539 C   0  0  0  0  0  0  0  0  0  0  0  0
   20.9892   19.7456   25.4402 H   0  0  0  0  0  0  0  0  0  0  0  0
   19.3528   20.2403   25.0018 H   0  0  0  0  0  0  0  0  0  0  0  0
   20.7850   20.3450   23.3568 C   0  0  0  0  0  0  0  0  0  0  0  0
   21.8263   20.6677   23.2192 H   0  0  0  0  0  0  0  0  0  0  0  0
   20.1687   21.0316   22.7601 H   0  0  0  0  0  0  0  0  0  0  0  0
   20.6439   18.9056   22.8027 C   0  0  0  0  0  0  0  0  0  0  0  0
   21.0696   18.8927   21.7913 H   0  0  0  0  0  0  0  0  0  0  0  0
   21.2543   18.2184   23.4046 H   0  0  0  0  0  0  0  0  0  0  0  0
   19.1782   18.4001   22.7560 C   0  0  0  0  0  0  0  0  0  0  0  0
   18.5704   19.0811   22.1457 H   0  0  0  0  0  0  0  0  0  0  0  0
   18.7576   18.4291   23.7683 H   0  0  0  0  0  0  0  0  0  0  0  0
   19.0345   16.9560   22.2227 C   0  0  2  0  0  0  0  0  0  0  0  0
   19.6948   16.3071   22.8061 H   0  0  0  0  0  0  0  0  0  0  0  0
   19.4240   16.8409   20.7378 C   0  0  0  0  0  0  0  0  0  0  0  0
   18.8330   17.5268   20.1181 H   0  0  0  0  0  0  0  0  0  0  0  0
   20.4855   17.0657   20.5838 H   0  0  0  0  0  0  0  0  0  0  0  0
   19.2538   15.8207   20.3722 H   0  0  0  0  0  0  0  0  0  0  0  0
   17.6386   16.4382   22.4326 N   0  3  0  0  0  0  0  0  0  0  0  0
   17.3719   16.4622   23.4211 H   0  0  0  0  0  0  0  0  0  0  0  0
   17.5482   15.4683   22.1164 H   0  0  0  0  0  0  0  0  0  0  0  0
   16.9520   16.9934   21.9148 H   0  0  0  0  0  0  0  0  0  0  0  0
  1  2  1  0  0  0  0
  1  3  1  0  0  0  0
  1  4  1  0  0  0  0
  1  5  1  0  0  0  0
  5  6  1  0  0  0  0
  5  7  1  0  0  0  0
  5  8  1  0  0  0  0
  8  9  1  0  0  0  0
  8 10  1  0  0  0  0
  8 11  1  0  0  0  0
 11 12  1  0  0  0  0
 11 13  1  0  0  0  0
 11 14  1  0  0  0  0
 14 15  1  0  0  0  0
 14 16  1  0  0  0  0
 14 17  1  0  0  0  0
 17 18  1  0  0  0  0
 17 19  1  0  0  0  0
 17 20  1  0  0  0  0
 20 21  1  0  0  0  0
 20 22  1  0  0  0  0
 22 23  1  0  0  0  0
 22 24  1  0  0  0  0
 22 25  1  0  0  0  0
 20 26  1  0  0  0  0
 26 27  1  0  0  0  0
 26 28  1  0  0  0  0
 26 29  1  0  0  0  0
M  END
> <VConfSearch Rank>
144

> <Conf_Id>
40

> <Delta U+W>
1.128

> <U+W>
-26.698

> <U>
25.442

> <W>
-52.140

> <W(PB)>
-54.658

> <W(SA)>
2.519

> <Valence>
4.343

> <Coulomb>
19.740

> <VdW>
1.360

> <VdW6>
-8.739

> <VdW12>
10.099

> <Bond>
0.251

> <Angle>
1.483

> <Pdih>
2.608

> <Idih>
0.000

> <Tether>
0.000

$$$$
VeraChem MOL file


 29 28  0  0  0  0  0  0  0  0999 V2000     
   20.4462   17.1020   19.7180 C   0  0  0  0  0  0  0  0  0  0  0  0
   20.9027   18.0822   19.5337 H   0  0  0  0  0  0  0  0  0  0  0  0
   21.2144   16.4363   20.1322 H   0  0  0  0  0  0  0  0  0  0  0  0
   20.1378   16.6948   18.7464 H   0  0  0  0  0  0  0  0  0  0  0  0
   19.2321   17.2089   20.6686 C   0  0  0  0  0  0  0  0  0  0  0  0
   18.7357   16.2296   20.7170 H   0  0  0  0  0  0  0  0  0  0  0  0
   18.4940   17.9071   20.2496 H   0  0  0  0  0  0  0  0  0  0  0  0
   19.6083   17.6444   22.1057 C   0  0  0  0  0  0  0  0  0  0  0  0
   18.7109   17.5554   22.7307 H   0  0  0  0  0  0  0  0  0  0  0  0
   20.3460   16.9434   22.5195 H   0  0  0  0  0  0  0  0  0  0  0  0
   20.1577   19.0916   22.1873 C   0  0  0  0  0  0  0  0  0  0  0  0
   19.4179   19.7936   21.7788 H   0  0  0  0  0  0  0  0  0  0  0  0
   21.0486   19.1780   21.5522 H   0  0  0  0  0  0  0  0  0  0  0  0
   20.5512   19.5275   23.6206 C   0  0  0  0  0  0  0  0  0  0  0  0
   21.2764   18.8138   24.0355 H   0  0  0  0  0  0  0  0  0  0  0  0
   21.0726   20.4910   23.5490 H   0  0  0  0  0  0  0  0  0  0  0  0
   19.3428   19.6653   24.5825 C   0  0  0  0  0  0  0  0  0  0  0  0
   18.8391   18.6956   24.6754 H   0  0  0  0  0  0  0  0  0  0  0  0
   18.6080   20.3626   24.1588 H   0  0  0  0  0  0  0  0  0  0  0  0
   19.7496   20.1367   25.9958 C   0  0  2  0  0  0  0  0  0  0  0  0
   20.5082   19.4487   26.3817 H   0  0  0  0  0  0  0  0  0  0  0  0
   18.5381   20.0986   26.9410 C   0  0  0  0  0  0  0  0  0  0  0  0
   18.8276   20.3991   27.9556 H   0  0  0  0  0  0  0  0  0  0  0  0
   17.7451   20.7746   26.5973 H   0  0  0  0  0  0  0  0  0  0  0  0
   18.1214   19.0855   27.0006 H   0  0  0  0  0  0  0  0  0  0  0  0
   20.3693   21.5076   25.9916 N   0  3  0  0  0  0  0  0  0  0  0  0
   19.7160   22.2110   25.6369 H   0  0  0  0  0  0  0  0  0  0  0  0
   21.2058   21.5382   25.4027 H   0  0  0  0  0  0  0  0  0  0  0  0
   20.6477   21.7949   26.9342 H   0  0  0  0  0  0  0  0  0  0  0  0
  1  2  1  0  0  0  0
  1  3  1  0  0  0  0
  1  4  1  0  0  0  0
  1  5  1  0  0  0  0
  5  6  1  0  0  0  0
  5  7  1  0  0  0  0
  5  8  1  0  0  0  0
  8  9  1  0  0  0  0
  8 10  1  0  0  0  0
  8 11  1  0  0  0  0
 11 12  1  0  0  0  0
 11 13  1  0  0  0  0
 11 14  1  0  0  0  0
 14 15  1  0  0  0  0
 14 16  1  0  0  0  0
 14 17  1  0  0  0  0
 17 18  1  0  0  0  0
 17 19  1  0  0  0  0
 17 20  1  0  0  0  0
 20 21  1  0  0  0  0
 20 22  1  0  0  0  0
 22 23  1  0  0  0  0
 22 24  1  0  0  0  0
 22 25  1  0  0  0  0
 20 26  1  0  0  0  0
 26 27  1  0  0  0  0
 26 28  1  0  0  0  0
 26 29  1  0  0  0  0
M  END
> <VConfSearch Rank>
145

> <Conf_Id>
134

> <Delta U+W>
1.228

> <U+W>
-26.598

> <U>
25.451

> <W>
-52.048

> <W(PB)>
-54.539

> <W(SA)>
2.490

> <Valence>
4.319

> <Coulomb>
19.732

> <VdW>
1.400

> <VdW6>
-9.173

> <VdW12>
10.573

> <Bond>
0.281

> <Angle>
1.459

> <Pdih>
2.580

> <Idih>
0.000

> <Tether>
0.000

$$$$
VeraChem MOL file


 29 28  0  0  0  0  0  0  0  0999 V2000     
   17.9471   15.2933   24.4802 C   0  0  0  0  0  0  0  0  0  0  0  0
   18.3869   15.5290   25.4570 H   0  0  0  0  0  0  0  0  0  0  0  0
   16.9465   15.7427   24.4352 H   0  0  0  0  0  0  0  0  0  0  0  0
   17.8280   14.2033   24.4274 H   0  0  0  0  0  0  0  0  0  0  0  0
   18.8351   15.7965   23.3196 C   0  0  0  0  0  0  0  0  0  0  0  0
   18.4200   15.4253   22.3721 H   0  0  0  0  0  0  0  0  0  0  0  0
   19.8401   15.3605   23.4063 H   0  0  0  0  0  0  0  0  0  0  0  0
   18.9381   17.3391   23.2442 C   0  0  0  0  0  0  0  0  0  0  0  0
   19.4690   17.5982   22.3193 H   0  0  0  0  0  0  0  0  0  0  0  0
   17.9313   17.7698   23.1554 H   0  0  0  0  0  0  0  0  0  0  0  0
   19.6716   17.9681   24.4560 C   0  0  0  0  0  0  0  0  0  0  0  0
   20.6789   17.5384   24.5437 H   0  0  0  0  0  0  0  0  0  0  0  0
   19.1420   17.7049   25.3806 H   0  0  0  0  0  0  0  0  0  0  0  0
   19.7697   19.5120   24.3843 C   0  0  0  0  0  0  0  0  0  0  0  0
   18.7577   19.9321   24.3128 H   0  0  0  0  0  0  0  0  0  0  0  0
   20.1920   19.8775   25.3306 H   0  0  0  0  0  0  0  0  0  0  0  0
   20.6464   20.0227   23.2118 C   0  0  0  0  0  0  0  0  0  0  0  0
   20.1652   19.7938   22.2526 H   0  0  0  0  0  0  0  0  0  0  0  0
   21.5992   19.4773   23.2233 H   0  0  0  0  0  0  0  0  0  0  0  0
   20.9479   21.5370   23.2804 C   0  0  2  0  0  0  0  0  0  0  0  0
   21.3953   21.7541   24.2552 H   0  0  0  0  0  0  0  0  0  0  0  0
   19.6744   22.3880   23.1283 C   0  0  0  0  0  0  0  0  0  0  0  0
   19.1563   22.1622   22.1880 H   0  0  0  0  0  0  0  0  0  0  0  0
   18.9771   22.2130   23.9557 H   0  0  0  0  0  0  0  0  0  0  0  0
   19.9212   23.4568   23.1326 H   0  0  0  0  0  0  0  0  0  0  0  0
   21.9663   21.9349   22.2484 N   0  3  0  0  0  0  0  0  0  0  0  0
   22.8391   21.4105   22.3582 H   0  0  0  0  0  0  0  0  0  0  0  0
   22.1985   22.9300   22.3166 H   0  0  0  0  0  0  0  0  0  0  0  0
   21.6229   21.7657   21.2992 H   0  0  0  0  0  0  0  0  0  0  0  0
  1  2  1  0  0  0  0
  1  3  1  0  0  0  0
  1  4  1  0  0  0  0
  1  5  1  0  0  0  0
  5  6  1  0  0  0  0
  5  7  1  0  0  0  0
  5  8  1  0  0  0  0
  8  9  1  0  0  0  0
  8 10  1  0  0  0  0
  8 11  1  0  0  0  0
 11 12  1  0  0  0  0
 11 13  1  0  0  0  0
 11 14  1  0  0  0  0
 14 15  1  0  0  0  0
 14 16  1  0  0  0  0
 14 17  1  0  0  0  0
 17 18  1  0  0  0  0
 17 19  1  0  0  0  0
 17 20  1  0  0  0  0
 20 21  1  0  0  0  0
 20 22  1  0  0  0  0
 22 23  1  0  0  0  0
 22 24  1  0  0  0  0
 22 25  1  0  0  0  0
 20 26  1  0  0  0  0
 26 27  1  0  0  0  0
 26 28  1  0  0  0  0
 26 29  1  0  0  0  0
M  END
> <VConfSearch Rank>
146

> <Conf_Id>
73

> <Delta U+W>
1.580

> <U+W>
-26.246

> <U>
25.821

> <W>
-52.067

> <W(PB)>
-54.581

> <W(SA)>
2.514

> <Valence>
4.779

> <Coulomb>
19.614

> <VdW>
1.428

> <VdW6>
-9.390

> <VdW12>
10.818

> <Bond>
0.283

> <Angle>
1.640

> <Pdih>
2.856

> <Idih>
0.000

> <Tether>
0.000

$$$$
VeraChem MOL file


 29 28  0  0  0  0  0  0  0  0999 V2000     
   21.5260   21.6268   20.2666 C   0  0  0  0  0  0  0  0  0  0  0  0
   20.5682   21.3915   19.7845 H   0  0  0  0  0  0  0  0  0  0  0  0
   21.8575   22.6061   19.8974 H   0  0  0  0  0  0  0  0  0  0  0  0
   22.2630   20.8788   19.9465 H   0  0  0  0  0  0  0  0  0  0  0  0
   21.3843   21.6434   21.8034 C   0  0  0  0  0  0  0  0  0  0  0  0
   20.6661   22.4226   22.0950 H   0  0  0  0  0  0  0  0  0  0  0  0
   22.3485   21.9156   22.2550 H   0  0  0  0  0  0  0  0  0  0  0  0
   20.9192   20.2754   22.3497 C   0  0  0  0  0  0  0  0  0  0  0  0
   19.9613   20.0120   21.8829 H   0  0  0  0  0  0  0  0  0  0  0  0
   21.6415   19.5006   22.0578 H   0  0  0  0  0  0  0  0  0  0  0  0
   20.7723   20.2928   23.8903 C   0  0  0  0  0  0  0  0  0  0  0  0
   20.0071   21.0255   24.1818 H   0  0  0  0  0  0  0  0  0  0  0  0
   21.7157   20.6399   24.3339 H   0  0  0  0  0  0  0  0  0  0  0  0
   20.4262   18.9112   24.4984 C   0  0  0  0  0  0  0  0  0  0  0  0
   21.1936   18.1800   24.2087 H   0  0  0  0  0  0  0  0  0  0  0  0
   20.4801   18.9992   25.5914 H   0  0  0  0  0  0  0  0  0  0  0  0
   19.0251   18.3880   24.0893 C   0  0  0  0  0  0  0  0  0  0  0  0
   18.9835   18.2768   22.9988 H   0  0  0  0  0  0  0  0  0  0  0  0
   18.2589   19.1265   24.3601 H   0  0  0  0  0  0  0  0  0  0  0  0
   18.6812   17.0253   24.7292 C   0  0  2  0  0  0  0  0  0  0  0  0
   19.4762   16.3171   24.4761 H   0  0  0  0  0  0  0  0  0  0  0  0
   17.3576   16.4877   24.1621 C   0  0  0  0  0  0  0  0  0  0  0  0
   17.4175   16.3740   23.0725 H   0  0  0  0  0  0  0  0  0  0  0  0
   17.1246   15.5033   24.5866 H   0  0  0  0  0  0  0  0  0  0  0  0
   16.5243   17.1642   24.3899 H   0  0  0  0  0  0  0  0  0  0  0  0
   18.6209   17.0911   26.2309 N   0  3  0  0  0  0  0  0  0  0  0  0
   18.4090   16.1752   26.6372 H   0  0  0  0  0  0  0  0  0  0  0  0
   17.8967   17.7417   26.5468 H   0  0  0  0  0  0  0  0  0  0  0  0
   19.5111   17.4034   26.6278 H   0  0  0  0  0  0  0  0  0  0  0  0
  1  2  1  0  0  0  0
  1  3  1  0  0  0  0
  1  4  1  0  0  0  0
  1  5  1  0  0  0  0
  5  6  1  0  0  0  0
  5  7  1  0  0  0  0
  5  8  1  0  0  0  0
  8  9  1  0  0  0  0
  8 10  1  0  0  0  0
  8 11  1  0  0  0  0
 11 12  1  0  0  0  0
 11 13  1  0  0  0  0
 11 14  1  0  0  0  0
 14 15  1  0  0  0  0
 14 16  1  0  0  0  0
 14 17  1  0  0  0  0
 17 18  1  0  0  0  0
 17 19  1  0  0  0  0
 17 20  1  0  0  0  0
 20 21  1  0  0  0  0
 20 22  1  0  0  0  0
 22 23  1  0  0  0  0
 22 24  1  0  0  0  0
 22 25  1  0  0  0  0
 20 26  1  0  0  0  0
 26 27  1  0  0  0  0
 26 28  1  0  0  0  0
 26 29  1  0  0  0  0
M  END
> <VConfSearch Rank>
147

> <Conf_Id>
111

> <Delta U+W>
0.580

> <U+W>
-27.246

> <U>
24.710

> <W>
-51.957

> <W(PB)>
-54.511

> <W(SA)>
2.555

> <Valence>
3.735

> <Coulomb>
19.760

> <VdW>
1.216

> <VdW6>
-8.624

> <VdW12>
9.840

> <Bond>
0.236

> <Angle>
1.168

> <Pdih>
2.330

> <Idih>
0.000

> <Tether>
0.000

$$$$
VeraChem MOL file


 29 28  0  0  0  0  0  0  0  0999 V2000     
   23.8135   18.5170   22.1128 C   0  0  0  0  0  0  0  0  0  0  0  0
   23.7981   17.4504   22.3724 H   0  0  0  0  0  0  0  0  0  0  0  0
   23.3263   18.6385   21.1366 H   0  0  0  0  0  0  0  0  0  0  0  0
   24.8624   18.8229   22.0064 H   0  0  0  0  0  0  0  0  0  0  0  0
   23.1069   19.3612   23.1945 C   0  0  0  0  0  0  0  0  0  0  0  0
   23.1672   20.4248   22.9242 H   0  0  0  0  0  0  0  0  0  0  0  0
   23.6371   19.2462   24.1502 H   0  0  0  0  0  0  0  0  0  0  0  0
   21.6278   18.9500   23.3651 C   0  0  0  0  0  0  0  0  0  0  0  0
   21.1121   19.0608   22.4022 H   0  0  0  0  0  0  0  0  0  0  0  0
   21.5727   17.8868   23.6369 H   0  0  0  0  0  0  0  0  0  0  0  0
   20.9171   19.7985   24.4466 C   0  0  0  0  0  0  0  0  0  0  0  0
   20.9251   20.8570   24.1518 H   0  0  0  0  0  0  0  0  0  0  0  0
   21.4877   19.7353   25.3835 H   0  0  0  0  0  0  0  0  0  0  0  0
   19.4623   19.3484   24.7269 C   0  0  0  0  0  0  0  0  0  0  0  0
   19.4684   18.2994   25.0512 H   0  0  0  0  0  0  0  0  0  0  0  0
   19.0731   19.9333   25.5718 H   0  0  0  0  0  0  0  0  0  0  0  0
   18.5172   19.5275   23.5109 C   0  0  0  0  0  0  0  0  0  0  0  0
   18.8093   18.8453   22.7025 H   0  0  0  0  0  0  0  0  0  0  0  0
   18.6381   20.5466   23.1205 H   0  0  0  0  0  0  0  0  0  0  0  0
   17.0255   19.3064   23.8497 C   0  0  2  0  0  0  0  0  0  0  0  0
   16.7604   19.9683   24.6799 H   0  0  0  0  0  0  0  0  0  0  0  0
   16.7372   17.8548   24.2726 C   0  0  0  0  0  0  0  0  0  0  0  0
   17.0427   17.1462   23.4927 H   0  0  0  0  0  0  0  0  0  0  0  0
   17.2654   17.5969   25.1977 H   0  0  0  0  0  0  0  0  0  0  0  0
   15.6658   17.7128   24.4604 H   0  0  0  0  0  0  0  0  0  0  0  0
   16.1434   19.6979   22.6969 N   0  3  0  0  0  0  0  0  0  0  0  0
   16.2879   20.6750   22.4263 H   0  0  0  0  0  0  0  0  0  0  0  0
   15.1523   19.5904   22.9313 H   0  0  0  0  0  0  0  0  0  0  0  0
   16.3267   19.1197   21.8724 H   0  0  0  0  0  0  0  0  0  0  0  0
  1  2  1  0  0  0  0
  1  3  1  0  0  0  0
  1  4  1  0  0  0  0
  1  5  1  0  0  0  0
  5  6  1  0  0  0  0
  5  7  1  0  0  0  0
  5  8  1  0  0  0  0
  8  9  1  0  0  0  0
  8 10  1  0  0  0  0
  8 11  1  0  0  0  0
 11 12  1  0  0  0  0
 11 13  1  0  0  0  0
 11 14  1  0  0  0  0
 14 15  1  0  0  0  0
 14 16  1  0  0  0  0
 14 17  1  0  0  0  0
 17 18  1  0  0  0  0
 17 19  1  0  0  0  0
 17 20  1  0  0  0  0
 20 21  1  0  0  0  0
 20 22  1  0  0  0  0
 22 23  1  0  0  0  0
 22 24  1  0  0  0  0
 22 25  1  0  0  0  0
 20 26  1  0  0  0  0
 26 27  1  0  0  0  0
 26 28  1  0  0  0  0
 26 29  1  0  0  0  0
M  END
> <VConfSearch Rank>
148

> <Conf_Id>
39

> <Delta U+W>
0.965

> <U+W>
-26.861

> <U>
25.129

> <W>
-51.990

> <W(PB)>
-54.526

> <W(SA)>
2.536

> <Valence>
4.206

> <Coulomb>
19.678

> <VdW>
1.245

> <VdW6>
-8.834

> <VdW12>
10.079

> <Bond>
0.240

> <Angle>
1.353

> <Pdih>
2.613

> <Idih>
0.000

> <Tether>
0.000

$$$$
VeraChem MOL file


 29 28  0  0  0  0  0  0  0  0999 V2000     
   15.6153   18.1810   23.9278 C   0  0  0  0  0  0  0  0  0  0  0  0
   15.4068   18.6166   22.9421 H   0  0  0  0  0  0  0  0  0  0  0  0
   16.0630   17.1907   23.7791 H   0  0  0  0  0  0  0  0  0  0  0  0
   14.6554   18.0345   24.4398 H   0  0  0  0  0  0  0  0  0  0  0  0
   16.5358   19.1029   24.7595 C   0  0  0  0  0  0  0  0  0  0  0  0
   16.7582   18.6298   25.7262 H   0  0  0  0  0  0  0  0  0  0  0  0
   15.9914   20.0296   24.9890 H   0  0  0  0  0  0  0  0  0  0  0  0
   17.8562   19.4701   24.0399 C   0  0  0  0  0  0  0  0  0  0  0  0
   17.6284   19.9433   23.0750 H   0  0  0  0  0  0  0  0  0  0  0  0
   18.3705   20.2285   24.6437 H   0  0  0  0  0  0  0  0  0  0  0  0
   18.7962   18.2575   23.8196 C   0  0  0  0  0  0  0  0  0  0  0  0
   18.2763   17.4973   23.2225 H   0  0  0  0  0  0  0  0  0  0  0  0
   19.0276   17.7870   24.7850 H   0  0  0  0  0  0  0  0  0  0  0  0
   20.1129   18.6194   23.0890 C   0  0  0  0  0  0  0  0  0  0  0  0
   20.6408   17.6852   22.8573 H   0  0  0  0  0  0  0  0  0  0  0  0
   19.8713   19.0864   22.1251 H   0  0  0  0  0  0  0  0  0  0  0  0
   21.0437   19.5482   23.9158 C   0  0  0  0  0  0  0  0  0  0  0  0
   21.1830   19.1218   24.9177 H   0  0  0  0  0  0  0  0  0  0  0  0
   20.5593   20.5212   24.0641 H   0  0  0  0  0  0  0  0  0  0  0  0
   22.4370   19.7936   23.2899 C   0  0  2  0  0  0  0  0  0  0  0  0
   22.9879   20.4504   23.9703 H   0  0  0  0  0  0  0  0  0  0  0  0
   22.3415   20.5065   21.9298 C   0  0  0  0  0  0  0  0  0  0  0  0
   21.8800   19.8663   21.1684 H   0  0  0  0  0  0  0  0  0  0  0  0
   21.7482   21.4256   22.0122 H   0  0  0  0  0  0  0  0  0  0  0  0
   23.3401   20.7860   21.5722 H   0  0  0  0  0  0  0  0  0  0  0  0
   23.2492   18.5325   23.1814 N   0  3  0  0  0  0  0  0  0  0  0  0
   23.3538   18.0739   24.0911 H   0  0  0  0  0  0  0  0  0  0  0  0
   24.1899   18.7230   22.8245 H   0  0  0  0  0  0  0  0  0  0  0  0
   22.8101   17.8614   22.5463 H   0  0  0  0  0  0  0  0  0  0  0  0
  1  2  1  0  0  0  0
  1  3  1  0  0  0  0
  1  4  1  0  0  0  0
  1  5  1  0  0  0  0
  5  6  1  0  0  0  0
  5  7  1  0  0  0  0
  5  8  1  0  0  0  0
  8  9  1  0  0  0  0
  8 10  1  0  0  0  0
  8 11  1  0  0  0  0
 11 12  1  0  0  0  0
 11 13  1  0  0  0  0
 11 14  1  0  0  0  0
 14 15  1  0  0  0  0
 14 16  1  0  0  0  0
 14 17  1  0  0  0  0
 17 18  1  0  0  0  0
 17 19  1  0  0  0  0
 17 20  1  0  0  0  0
 20 21  1  0  0  0  0
 20 22  1  0  0  0  0
 22 23  1  0  0  0  0
 22 24  1  0  0  0  0
 22 25  1  0  0  0  0
 20 26  1  0  0  0  0
 26 27  1  0  0  0  0
 26 28  1  0  0  0  0
 26 29  1  0  0  0  0
M  END
> <VConfSearch Rank>
149

> <Conf_Id>
155

> <Delta U+W>
1.624

> <U+W>
-26.202

> <U>
25.894

> <W>
-52.096

> <W(PB)>
-54.602

> <W(SA)>
2.506

> <Valence>
4.779

> <Coulomb>
19.659

> <VdW>
1.456

> <VdW6>
-9.843

> <VdW12>
11.299

> <Bond>
0.315

> <Angle>
1.725

> <Pdih>
2.740

> <Idih>
0.000

> <Tether>
0.000

$$$$
VeraChem MOL file


 29 28  0  0  0  0  0  0  0  0999 V2000     
   23.5799   18.4165   22.3905 C   0  0  0  0  0  0  0  0  0  0  0  0
   23.0046   18.3075   21.4627 H   0  0  0  0  0  0  0  0  0  0  0  0
   23.6272   19.4837   22.6429 H   0  0  0  0  0  0  0  0  0  0  0  0
   24.6026   18.0736   22.1871 H   0  0  0  0  0  0  0  0  0  0  0  0
   22.9549   17.6000   23.5442 C   0  0  0  0  0  0  0  0  0  0  0  0
   23.6244   17.6455   24.4144 H   0  0  0  0  0  0  0  0  0  0  0  0
   22.8953   16.5408   23.2572 H   0  0  0  0  0  0  0  0  0  0  0  0
   21.5552   18.1079   23.9663 C   0  0  0  0  0  0  0  0  0  0  0  0
   21.2301   17.5414   24.8498 H   0  0  0  0  0  0  0  0  0  0  0  0
   21.6360   19.1565   24.2806 H   0  0  0  0  0  0  0  0  0  0  0  0
   20.4893   17.9642   22.8506 C   0  0  0  0  0  0  0  0  0  0  0  0
   20.5215   16.9387   22.4577 H   0  0  0  0  0  0  0  0  0  0  0  0
   20.7329   18.6260   22.0089 H   0  0  0  0  0  0  0  0  0  0  0  0
   19.0462   18.2594   23.3293 C   0  0  0  0  0  0  0  0  0  0  0  0
   18.3617   17.9981   22.5123 H   0  0  0  0  0  0  0  0  0  0  0  0
   18.7943   17.5967   24.1687 H   0  0  0  0  0  0  0  0  0  0  0  0
   18.8226   19.7372   23.7435 C   0  0  0  0  0  0  0  0  0  0  0  0
   19.0631   20.3989   22.9008 H   0  0  0  0  0  0  0  0  0  0  0  0
   19.5217   19.9918   24.5492 H   0  0  0  0  0  0  0  0  0  0  0  0
   17.3903   20.0334   24.2448 C   0  0  2  0  0  0  0  0  0  0  0  0
   17.1517   19.3228   25.0421 H   0  0  0  0  0  0  0  0  0  0  0  0
   16.3398   19.8864   23.1292 C   0  0  0  0  0  0  0  0  0  0  0  0
   16.5756   20.5324   22.2743 H   0  0  0  0  0  0  0  0  0  0  0  0
   16.2772   18.8522   22.7721 H   0  0  0  0  0  0  0  0  0  0  0  0
   15.3440   20.1613   23.4981 H   0  0  0  0  0  0  0  0  0  0  0  0
   17.3044   21.4032   24.8587 N   0  3  0  0  0  0  0  0  0  0  0  0
   17.9638   21.5109   25.6349 H   0  0  0  0  0  0  0  0  0  0  0  0
   16.3674   21.5895   25.2274 H   0  0  0  0  0  0  0  0  0  0  0  0
   17.5138   22.1340   24.1732 H   0  0  0  0  0  0  0  0  0  0  0  0
  1  2  1  0  0  0  0
  1  3  1  0  0  0  0
  1  4  1  0  0  0  0
  1  5  1  0  0  0  0
  5  6  1  0  0  0  0
  5  7  1  0  0  0  0
  5  8  1  0  0  0  0
  8  9  1  0  0  0  0
  8 10  1  0  0  0  0
  8 11  1  0  0  0  0
 11 12  1  0  0  0  0
 11 13  1  0  0  0  0
 11 14  1  0  0  0  0
 14 15  1  0  0  0  0
 14 16  1  0  0  0  0
 14 17  1  0  0  0  0
 17 18  1  0  0  0  0
 17 19  1  0  0  0  0
 17 20  1  0  0  0  0
 20 21  1  0  0  0  0
 20 22  1  0  0  0  0
 22 23  1  0  0  0  0
 22 24  1  0  0  0  0
 22 25  1  0  0  0  0
 20 26  1  0  0  0  0
 26 27  1  0  0  0  0
 26 28  1  0  0  0  0
 26 29  1  0  0  0  0
M  END
> <VConfSearch Rank>
150

> <Conf_Id>
135

> <Delta U+W>
1.581

> <U+W>
-26.245

> <U>
25.974

> <W>
-52.219

> <W(PB)>
-54.709

> <W(SA)>
2.490

> <Valence>
4.811

> <Coulomb>
19.700

> <VdW>
1.463

> <VdW6>
-9.391

> <VdW12>
10.854

> <Bond>
0.285

> <Angle>
1.671

> <Pdih>
2.855

> <Idih>
0.000

> <Tether>
0.000

$$$$
VeraChem MOL file


 29 28  0  0  0  0  0  0  0  0999 V2000     
   15.9287   18.9986   24.9228 C   0  0  0  0  0  0  0  0  0  0  0  0
   16.4758   18.5598   25.7673 H   0  0  0  0  0  0  0  0  0  0  0  0
   16.1159   20.0796   24.9159 H   0  0  0  0  0  0  0  0  0  0  0  0
   14.8563   18.8503   25.1039 H   0  0  0  0  0  0  0  0  0  0  0  0
   16.3478   18.3421   23.5880 C   0  0  0  0  0  0  0  0  0  0  0  0
   15.8066   18.8159   22.7572 H   0  0  0  0  0  0  0  0  0  0  0  0
   16.0354   17.2885   23.5975 H   0  0  0  0  0  0  0  0  0  0  0  0
   17.8715   18.4065   23.3250 C   0  0  0  0  0  0  0  0  0  0  0  0
   18.3989   17.9043   24.1466 H   0  0  0  0  0  0  0  0  0  0  0  0
   18.0935   17.8320   22.4151 H   0  0  0  0  0  0  0  0  0  0  0  0
   18.4041   19.8516   23.1546 C   0  0  0  0  0  0  0  0  0  0  0  0
   18.2975   20.4057   24.0965 H   0  0  0  0  0  0  0  0  0  0  0  0
   17.7854   20.3769   22.4141 H   0  0  0  0  0  0  0  0  0  0  0  0
   19.8808   19.9110   22.6931 C   0  0  0  0  0  0  0  0  0  0  0  0
   19.9765   19.3910   21.7308 H   0  0  0  0  0  0  0  0  0  0  0  0
   20.1467   20.9608   22.5075 H   0  0  0  0  0  0  0  0  0  0  0  0
   20.8710   19.3134   23.7257 C   0  0  0  0  0  0  0  0  0  0  0  0
   20.7067   18.2327   23.8236 H   0  0  0  0  0  0  0  0  0  0  0  0
   20.6588   19.7531   24.7091 H   0  0  0  0  0  0  0  0  0  0  0  0
   22.3551   19.5744   23.3820 C   0  0  2  0  0  0  0  0  0  0  0  0
   22.4930   20.6523   23.2528 H   0  0  0  0  0  0  0  0  0  0  0  0
   22.7807   18.8694   22.0817 C   0  0  0  0  0  0  0  0  0  0  0  0
   22.6048   17.7880   22.1408 H   0  0  0  0  0  0  0  0  0  0  0  0
   22.2307   19.2605   21.2179 H   0  0  0  0  0  0  0  0  0  0  0  0
   23.8481   19.0303   21.8866 H   0  0  0  0  0  0  0  0  0  0  0  0
   23.2546   19.1646   24.5148 N   0  3  0  0  0  0  0  0  0  0  0  0
   24.2356   19.3725   24.3071 H   0  0  0  0  0  0  0  0  0  0  0  0
   23.1880   18.1602   24.7008 H   0  0  0  0  0  0  0  0  0  0  0  0
   23.0165   19.6549   25.3818 H   0  0  0  0  0  0  0  0  0  0  0  0
  1  2  1  0  0  0  0
  1  3  1  0  0  0  0
  1  4  1  0  0  0  0
  1  5  1  0  0  0  0
  5  6  1  0  0  0  0
  5  7  1  0  0  0  0
  5  8  1  0  0  0  0
  8  9  1  0  0  0  0
  8 10  1  0  0  0  0
  8 11  1  0  0  0  0
 11 12  1  0  0  0  0
 11 13  1  0  0  0  0
 11 14  1  0  0  0  0
 14 15  1  0  0  0  0
 14 16  1  0  0  0  0
 14 17  1  0  0  0  0
 17 18  1  0  0  0  0
 17 19  1  0  0  0  0
 17 20  1  0  0  0  0
 20 21  1  0  0  0  0
 20 22  1  0  0  0  0
 22 23  1  0  0  0  0
 22 24  1  0  0  0  0
 22 25  1  0  0  0  0
 20 26  1  0  0  0  0
 26 27  1  0  0  0  0
 26 28  1  0  0  0  0
 26 29  1  0  0  0  0
M  END
> <VConfSearch Rank>
151

> <Conf_Id>
130

> <Delta U+W>
1.359

> <U+W>
-26.467

> <U>
25.687

> <W>
-52.154

> <W(PB)>
-54.643

> <W(SA)>
2.489

> <Valence>
4.682

> <Coulomb>
19.653

> <VdW>
1.352

> <VdW6>
-9.477

> <VdW12>
10.829

> <Bond>
0.274

> <Angle>
1.550

> <Pdih>
2.858

> <Idih>
0.000

> <Tether>
0.000

$$$$
VeraChem MOL file


 29 28  0  0  0  0  0  0  0  0999 V2000     
   21.7353   16.9920   20.5698 C   0  0  0  0  0  0  0  0  0  0  0  0
   21.8406   16.8540   19.4859 H   0  0  0  0  0  0  0  0  0  0  0  0
   22.6578   16.6338   21.0450 H   0  0  0  0  0  0  0  0  0  0  0  0
   20.9063   16.3559   20.9036 H   0  0  0  0  0  0  0  0  0  0  0  0
   21.4800   18.4794   20.9028 C   0  0  0  0  0  0  0  0  0  0  0  0
   20.5357   18.8042   20.4441 H   0  0  0  0  0  0  0  0  0  0  0  0
   22.2710   19.0859   20.4399 H   0  0  0  0  0  0  0  0  0  0  0  0
   21.4529   18.7760   22.4218 C   0  0  0  0  0  0  0  0  0  0  0  0
   22.4063   18.4661   22.8714 H   0  0  0  0  0  0  0  0  0  0  0  0
   21.3901   19.8631   22.5564 H   0  0  0  0  0  0  0  0  0  0  0  0
   20.2791   18.0859   23.1628 C   0  0  0  0  0  0  0  0  0  0  0  0
   20.3923   16.9974   23.0771 H   0  0  0  0  0  0  0  0  0  0  0  0
   19.3327   18.3368   22.6688 H   0  0  0  0  0  0  0  0  0  0  0  0
   20.2167   18.4437   24.6706 C   0  0  0  0  0  0  0  0  0  0  0  0
   19.5773   17.7195   25.1941 H   0  0  0  0  0  0  0  0  0  0  0  0
   21.2196   18.3105   25.0993 H   0  0  0  0  0  0  0  0  0  0  0  0
   19.7227   19.8846   24.9781 C   0  0  0  0  0  0  0  0  0  0  0  0
   19.9491   20.5631   24.1471 H   0  0  0  0  0  0  0  0  0  0  0  0
   20.2987   20.2591   25.8346 H   0  0  0  0  0  0  0  0  0  0  0  0
   18.2228   19.9874   25.3445 C   0  0  2  0  0  0  0  0  0  0  0  0
   18.0353   19.3319   26.2005 H   0  0  0  0  0  0  0  0  0  0  0  0
   17.2991   19.5520   24.1944 C   0  0  0  0  0  0  0  0  0  0  0  0
   17.4190   18.4846   23.9761 H   0  0  0  0  0  0  0  0  0  0  0  0
   16.2471   19.7105   24.4617 H   0  0  0  0  0  0  0  0  0  0  0  0
   17.5079   20.1208   23.2798 H   0  0  0  0  0  0  0  0  0  0  0  0
   17.8716   21.3785   25.7939 N   0  3  0  0  0  0  0  0  0  0  0  0
   18.4429   21.6728   26.5913 H   0  0  0  0  0  0  0  0  0  0  0  0
   16.8910   21.4418   26.0821 H   0  0  0  0  0  0  0  0  0  0  0  0
   18.0144   22.0607   25.0443 H   0  0  0  0  0  0  0  0  0  0  0  0
  1  2  1  0  0  0  0
  1  3  1  0  0  0  0
  1  4  1  0  0  0  0
  1  5  1  0  0  0  0
  5  6  1  0  0  0  0
  5  7  1  0  0  0  0
  5  8  1  0  0  0  0
  8  9  1  0  0  0  0
  8 10  1  0  0  0  0
  8 11  1  0  0  0  0
 11 12  1  0  0  0  0
 11 13  1  0  0  0  0
 11 14  1  0  0  0  0
 14 15  1  0  0  0  0
 14 16  1  0  0  0  0
 14 17  1  0  0  0  0
 17 18  1  0  0  0  0
 17 19  1  0  0  0  0
 17 20  1  0  0  0  0
 20 21  1  0  0  0  0
 20 22  1  0  0  0  0
 22 23  1  0  0  0  0
 22 24  1  0  0  0  0
 22 25  1  0  0  0  0
 20 26  1  0  0  0  0
 26 27  1  0  0  0  0
 26 28  1  0  0  0  0
 26 29  1  0  0  0  0
M  END
> <VConfSearch Rank>
152

> <Conf_Id>
157

> <Delta U+W>
4.354

> <U+W>
-23.472

> <U>
28.780

> <W>
-52.252

> <W(PB)>
-54.715

> <W(SA)>
2.462

> <Valence>
7.566

> <Coulomb>
19.822

> <VdW>
1.392

> <VdW6>
-10.248

> <VdW12>
11.641

> <Bond>
0.340

> <Angle>
2.096

> <Pdih>
5.129

> <Idih>
0.000

> <Tether>
0.000

$$$$
VeraChem MOL file


 29 28  0  0  0  0  0  0  0  0999 V2000     
   21.5730   17.6008   26.3686 C   0  0  0  0  0  0  0  0  0  0  0  0
   21.4912   16.8455   27.1609 H   0  0  0  0  0  0  0  0  0  0  0  0
   21.3182   17.1160   25.4198 H   0  0  0  0  0  0  0  0  0  0  0  0
   22.6235   17.9149   26.3155 H   0  0  0  0  0  0  0  0  0  0  0  0
   20.6524   18.8057   26.6727 C   0  0  0  0  0  0  0  0  0  0  0  0
   20.9549   19.2265   27.6419 H   0  0  0  0  0  0  0  0  0  0  0  0
   19.6136   18.4707   26.8002 H   0  0  0  0  0  0  0  0  0  0  0  0
   20.7311   19.9242   25.6020 C   0  0  0  0  0  0  0  0  0  0  0  0
   20.6464   20.8929   26.1136 H   0  0  0  0  0  0  0  0  0  0  0  0
   21.7219   19.9268   25.1273 H   0  0  0  0  0  0  0  0  0  0  0  0
   19.6218   19.8709   24.5199 C   0  0  0  0  0  0  0  0  0  0  0  0
   19.7431   20.7496   23.8735 H   0  0  0  0  0  0  0  0  0  0  0  0
   18.6395   19.9779   25.0003 H   0  0  0  0  0  0  0  0  0  0  0  0
   19.6342   18.5842   23.6583 C   0  0  0  0  0  0  0  0  0  0  0  0
   20.6371   18.4224   23.2418 H   0  0  0  0  0  0  0  0  0  0  0  0
   19.4226   17.7199   24.3007 H   0  0  0  0  0  0  0  0  0  0  0  0
   18.5802   18.5975   22.5212 C   0  0  0  0  0  0  0  0  0  0  0  0
   17.5800   18.6774   22.9674 H   0  0  0  0  0  0  0  0  0  0  0  0
   18.6066   17.6311   22.0003 H   0  0  0  0  0  0  0  0  0  0  0  0
   18.7646   19.7349   21.4914 C   0  0  2  0  0  0  0  0  0  0  0  0
   18.7045   20.6916   22.0182 H   0  0  0  0  0  0  0  0  0  0  0  0
   17.6405   19.6951   20.4442 C   0  0  0  0  0  0  0  0  0  0  0  0
   17.6579   18.7554   19.8782 H   0  0  0  0  0  0  0  0  0  0  0  0
   16.6580   19.7870   20.9239 H   0  0  0  0  0  0  0  0  0  0  0  0
   17.7427   20.5243   19.7333 H   0  0  0  0  0  0  0  0  0  0  0  0
   20.1118   19.6920   20.8244 N   0  3  0  0  0  0  0  0  0  0  0  0
   20.8677   19.7570   21.5117 H   0  0  0  0  0  0  0  0  0  0  0  0
   20.2280   20.4661   20.1641 H   0  0  0  0  0  0  0  0  0  0  0  0
   20.2418   18.8210   20.3030 H   0  0  0  0  0  0  0  0  0  0  0  0
  1  2  1  0  0  0  0
  1  3  1  0  0  0  0
  1  4  1  0  0  0  0
  1  5  1  0  0  0  0
  5  6  1  0  0  0  0
  5  7  1  0  0  0  0
  5  8  1  0  0  0  0
  8  9  1  0  0  0  0
  8 10  1  0  0  0  0
  8 11  1  0  0  0  0
 11 12  1  0  0  0  0
 11 13  1  0  0  0  0
 11 14  1  0  0  0  0
 14 15  1  0  0  0  0
 14 16  1  0  0  0  0
 14 17  1  0  0  0  0
 17 18  1  0  0  0  0
 17 19  1  0  0  0  0
 17 20  1  0  0  0  0
 20 21  1  0  0  0  0
 20 22  1  0  0  0  0
 22 23  1  0  0  0  0
 22 24  1  0  0  0  0
 22 25  1  0  0  0  0
 20 26  1  0  0  0  0
 26 27  1  0  0  0  0
 26 28  1  0  0  0  0
 26 29  1  0  0  0  0
M  END
> <VConfSearch Rank>
153

> <Conf_Id>
158

> <Delta U+W>
3.648

> <U+W>
-24.178

> <U>
28.057

> <W>
-52.235

> <W(PB)>
-54.696

> <W(SA)>
2.460

> <Valence>
6.543

> <Coulomb>
20.387

> <VdW>
1.127

> <VdW6>
-10.342

> <VdW12>
11.469

> <Bond>
0.308

> <Angle>
1.938

> <Pdih>
4.297

> <Idih>
0.000

> <Tether>
0.000

$$$$
VeraChem MOL file


 29 28  0  0  0  0  0  0  0  0999 V2000     
   18.6955   15.9994   21.6851 C   0  0  0  0  0  0  0  0  0  0  0  0
   18.0610   15.7510   22.5457 H   0  0  0  0  0  0  0  0  0  0  0  0
   18.4393   17.0117   21.3491 H   0  0  0  0  0  0  0  0  0  0  0  0
   18.4425   15.3080   20.8709 H   0  0  0  0  0  0  0  0  0  0  0  0
   20.1936   15.8828   22.0471 C   0  0  0  0  0  0  0  0  0  0  0  0
   20.8066   16.1674   21.1805 H   0  0  0  0  0  0  0  0  0  0  0  0
   20.4262   14.8292   22.2555 H   0  0  0  0  0  0  0  0  0  0  0  0
   20.5976   16.7325   23.2760 C   0  0  0  0  0  0  0  0  0  0  0  0
   19.9944   16.4317   24.1436 H   0  0  0  0  0  0  0  0  0  0  0  0
   21.6415   16.5032   23.5307 H   0  0  0  0  0  0  0  0  0  0  0  0
   20.4565   18.2561   23.0455 C   0  0  0  0  0  0  0  0  0  0  0  0
   19.4085   18.5029   22.8436 H   0  0  0  0  0  0  0  0  0  0  0  0
   21.0247   18.5430   22.1500 H   0  0  0  0  0  0  0  0  0  0  0  0
   20.9697   19.0680   24.2600 C   0  0  0  0  0  0  0  0  0  0  0  0
   20.4665   18.7421   25.1809 H   0  0  0  0  0  0  0  0  0  0  0  0
   22.0351   18.8377   24.3997 H   0  0  0  0  0  0  0  0  0  0  0  0
   20.8173   20.6022   24.0842 C   0  0  0  0  0  0  0  0  0  0  0  0
   20.8407   20.8681   23.0190 H   0  0  0  0  0  0  0  0  0  0  0  0
   21.6998   21.0795   24.5304 H   0  0  0  0  0  0  0  0  0  0  0  0
   19.5665   21.2135   24.7606 C   0  0  2  0  0  0  0  0  0  0  0  0
   19.6037   20.9705   25.8270 H   0  0  0  0  0  0  0  0  0  0  0  0
   18.2485   20.6638   24.1897 C   0  0  0  0  0  0  0  0  0  0  0  0
   18.1999   20.7970   23.1018 H   0  0  0  0  0  0  0  0  0  0  0  0
   18.1362   19.5974   24.4168 H   0  0  0  0  0  0  0  0  0  0  0  0
   17.3890   21.1799   24.6348 H   0  0  0  0  0  0  0  0  0  0  0  0
   19.5852   22.7142   24.6698 N   0  3  0  0  0  0  0  0  0  0  0  0
   20.4333   23.1069   25.0885 H   0  0  0  0  0  0  0  0  0  0  0  0
   18.7853   23.1282   25.1569 H   0  0  0  0  0  0  0  0  0  0  0  0
   19.5474   23.0302   23.6969 H   0  0  0  0  0  0  0  0  0  0  0  0
  1  2  1  0  0  0  0
  1  3  1  0  0  0  0
  1  4  1  0  0  0  0
  1  5  1  0  0  0  0
  5  6  1  0  0  0  0
  5  7  1  0  0  0  0
  5  8  1  0  0  0  0
  8  9  1  0  0  0  0
  8 10  1  0  0  0  0
  8 11  1  0  0  0  0
 11 12  1  0  0  0  0
 11 13  1  0  0  0  0
 11 14  1  0  0  0  0
 14 15  1  0  0  0  0
 14 16  1  0  0  0  0
 14 17  1  0  0  0  0
 17 18  1  0  0  0  0
 17 19  1  0  0  0  0
 17 20  1  0  0  0  0
 20 21  1  0  0  0  0
 20 22  1  0  0  0  0
 22 23  1  0  0  0  0
 22 24  1  0  0  0  0
 22 25  1  0  0  0  0
 20 26  1  0  0  0  0
 26 27  1  0  0  0  0
 26 28  1  0  0  0  0
 26 29  1  0  0  0  0
M  END
> <VConfSearch Rank>
154

> <Conf_Id>
156

> <Delta U+W>
3.393

> <U+W>
-24.433

> <U>
27.713

> <W>
-52.146

> <W(PB)>
-54.603

> <W(SA)>
2.458

> <Valence>
6.758

> <Coulomb>
19.720

> <VdW>
1.235

> <VdW6>
-9.782

> <VdW12>
11.017

> <Bond>
0.287

> <Angle>
1.880

> <Pdih>
4.591

> <Idih>
0.000

> <Tether>
0.000

$$$$
VeraChem MOL file


 29 28  0  0  0  0  0  0  0  0999 V2000     
   18.0957   15.6629   23.9853 C   0  0  0  0  0  0  0  0  0  0  0  0
   18.0497   15.9116   25.0536 H   0  0  0  0  0  0  0  0  0  0  0  0
   17.0872   15.3808   23.6559 H   0  0  0  0  0  0  0  0  0  0  0  0
   18.7451   14.7853   23.8710 H   0  0  0  0  0  0  0  0  0  0  0  0
   18.6363   16.8514   23.1626 C   0  0  0  0  0  0  0  0  0  0  0  0
   18.6991   16.5639   22.1038 H   0  0  0  0  0  0  0  0  0  0  0  0
   19.6587   17.0773   23.4933 H   0  0  0  0  0  0  0  0  0  0  0  0
   17.7393   18.1027   23.3114 C   0  0  0  0  0  0  0  0  0  0  0  0
   16.7068   17.8339   23.0492 H   0  0  0  0  0  0  0  0  0  0  0  0
   17.7093   18.4154   24.3634 H   0  0  0  0  0  0  0  0  0  0  0  0
   18.1750   19.2908   22.4150 C   0  0  0  0  0  0  0  0  0  0  0  0
   17.4728   20.1222   22.5660 H   0  0  0  0  0  0  0  0  0  0  0  0
   18.0689   18.9969   21.3616 H   0  0  0  0  0  0  0  0  0  0  0  0
   19.6199   19.8056   22.6431 C   0  0  0  0  0  0  0  0  0  0  0  0
   20.3375   19.0192   22.3774 H   0  0  0  0  0  0  0  0  0  0  0  0
   19.7966   20.6276   21.9378 H   0  0  0  0  0  0  0  0  0  0  0  0
   19.8769   20.3001   24.0928 C   0  0  0  0  0  0  0  0  0  0  0  0
   19.7285   19.4708   24.7951 H   0  0  0  0  0  0  0  0  0  0  0  0
   19.1281   21.0588   24.3561 H   0  0  0  0  0  0  0  0  0  0  0  0
   21.2876   20.8846   24.3407 C   0  0  2  0  0  0  0  0  0  0  0  0
   21.3501   21.1413   25.4028 H   0  0  0  0  0  0  0  0  0  0  0  0
   21.5321   22.1743   23.5378 C   0  0  0  0  0  0  0  0  0  0  0  0
   22.4774   22.6406   23.8412 H   0  0  0  0  0  0  0  0  0  0  0  0
   21.5871   21.9786   22.4605 H   0  0  0  0  0  0  0  0  0  0  0  0
   20.7306   22.9021   23.7153 H   0  0  0  0  0  0  0  0  0  0  0  0
   22.3773   19.8790   24.0902 N   0  3  0  0  0  0  0  0  0  0  0  0
   22.2480   19.0363   24.6574 H   0  0  0  0  0  0  0  0  0  0  0  0
   23.2992   20.2627   24.3172 H   0  0  0  0  0  0  0  0  0  0  0  0
   22.3974   19.5914   23.1086 H   0  0  0  0  0  0  0  0  0  0  0  0
  1  2  1  0  0  0  0
  1  3  1  0  0  0  0
  1  4  1  0  0  0  0
  1  5  1  0  0  0  0
  5  6  1  0  0  0  0
  5  7  1  0  0  0  0
  5  8  1  0  0  0  0
  8  9  1  0  0  0  0
  8 10  1  0  0  0  0
  8 11  1  0  0  0  0
 11 12  1  0  0  0  0
 11 13  1  0  0  0  0
 11 14  1  0  0  0  0
 14 15  1  0  0  0  0
 14 16  1  0  0  0  0
 14 17  1  0  0  0  0
 17 18  1  0  0  0  0
 17 19  1  0  0  0  0
 17 20  1  0  0  0  0
 20 21  1  0  0  0  0
 20 22  1  0  0  0  0
 22 23  1  0  0  0  0
 22 24  1  0  0  0  0
 22 25  1  0  0  0  0
 20 26  1  0  0  0  0
 26 27  1  0  0  0  0
 26 28  1  0  0  0  0
 26 29  1  0  0  0  0
M  END
> <VConfSearch Rank>
155

> <Conf_Id>
78

> <Delta U+W>
1.477

> <U+W>
-26.349

> <U>
26.385

> <W>
-52.734

> <W(PB)>
-55.179

> <W(SA)>
2.445

> <Valence>
4.726

> <Coulomb>
20.482

> <VdW>
1.177

> <VdW6>
-10.349

> <VdW12>
11.526

> <Bond>
0.319

> <Angle>
1.933

> <Pdih>
2.474

> <Idih>
0.000

> <Tether>
0.000

$$$$
VeraChem MOL file


 29 28  0  0  0  0  0  0  0  0999 V2000     
   16.9567   21.0772   22.2364 C   0  0  0  0  0  0  0  0  0  0  0  0
   16.0175   20.5596   22.4710 H   0  0  0  0  0  0  0  0  0  0  0  0
   17.4931   21.2440   23.1771 H   0  0  0  0  0  0  0  0  0  0  0  0
   16.7002   22.0601   21.8206 H   0  0  0  0  0  0  0  0  0  0  0  0
   17.7960   20.2637   21.2238 C   0  0  0  0  0  0  0  0  0  0  0  0
   18.6961   20.8243   20.9353 H   0  0  0  0  0  0  0  0  0  0  0  0
   17.2029   20.1517   20.3054 H   0  0  0  0  0  0  0  0  0  0  0  0
   18.1811   18.8530   21.7389 C   0  0  0  0  0  0  0  0  0  0  0  0
   17.4256   18.4881   22.4483 H   0  0  0  0  0  0  0  0  0  0  0  0
   18.1475   18.1580   20.8885 H   0  0  0  0  0  0  0  0  0  0  0  0
   19.5947   18.7513   22.3678 C   0  0  0  0  0  0  0  0  0  0  0  0
   20.3488   19.0154   21.6137 H   0  0  0  0  0  0  0  0  0  0  0  0
   19.7716   17.6984   22.6227 H   0  0  0  0  0  0  0  0  0  0  0  0
   19.7963   19.6308   23.6263 C   0  0  0  0  0  0  0  0  0  0  0  0
   19.6998   20.6874   23.3458 H   0  0  0  0  0  0  0  0  0  0  0  0
   18.9991   19.4314   24.3542 H   0  0  0  0  0  0  0  0  0  0  0  0
   21.1856   19.4436   24.2897 C   0  0  0  0  0  0  0  0  0  0  0  0
   21.2653   20.1272   25.1453 H   0  0  0  0  0  0  0  0  0  0  0  0
   21.9565   19.7604   23.5748 H   0  0  0  0  0  0  0  0  0  0  0  0
   21.5063   18.0046   24.7588 C   0  0  2  0  0  0  0  0  0  0  0  0
   21.4423   17.3362   23.8954 H   0  0  0  0  0  0  0  0  0  0  0  0
   20.5187   17.5109   25.8309 C   0  0  0  0  0  0  0  0  0  0  0  0
   20.7986   16.5105   26.1832 H   0  0  0  0  0  0  0  0  0  0  0  0
   20.5031   18.1849   26.6964 H   0  0  0  0  0  0  0  0  0  0  0  0
   19.5005   17.4407   25.4308 H   0  0  0  0  0  0  0  0  0  0  0  0
   22.9184   17.9028   25.2647 N   0  3  0  0  0  0  0  0  0  0  0  0
   23.0659   18.4988   26.0837 H   0  0  0  0  0  0  0  0  0  0  0  0
   23.5959   18.1869   24.5512 H   0  0  0  0  0  0  0  0  0  0  0  0
   23.1491   16.9436   25.5393 H   0  0  0  0  0  0  0  0  0  0  0  0
  1  2  1  0  0  0  0
  1  3  1  0  0  0  0
  1  4  1  0  0  0  0
  1  5  1  0  0  0  0
  5  6  1  0  0  0  0
  5  7  1  0  0  0  0
  5  8  1  0  0  0  0
  8  9  1  0  0  0  0
  8 10  1  0  0  0  0
  8 11  1  0  0  0  0
 11 12  1  0  0  0  0
 11 13  1  0  0  0  0
 11 14  1  0  0  0  0
 14 15  1  0  0  0  0
 14 16  1  0  0  0  0
 14 17  1  0  0  0  0
 17 18  1  0  0  0  0
 17 19  1  0  0  0  0
 17 20  1  0  0  0  0
 20 21  1  0  0  0  0
 20 22  1  0  0  0  0
 22 23  1  0  0  0  0
 22 24  1  0  0  0  0
 22 25  1  0  0  0  0
 20 26  1  0  0  0  0
 26 27  1  0  0  0  0
 26 28  1  0  0  0  0
 26 29  1  0  0  0  0
M  END
> <VConfSearch Rank>
156

> <Conf_Id>
145

> <Delta U+W>
3.784

> <U+W>
-24.042

> <U>
28.220

> <W>
-52.262

> <W(PB)>
-54.724

> <W(SA)>
2.462

> <Valence>
7.040

> <Coulomb>
19.984

> <VdW>
1.197

> <VdW6>
-10.566

> <VdW12>
11.763

> <Bond>
0.320

> <Angle>
2.280

> <Pdih>
4.439

> <Idih>
0.000

> <Tether>
0.000

$$$$
VeraChem MOL file


 29 28  0  0  0  0  0  0  0  0999 V2000     
   15.9890   20.1908   23.7058 C   0  0  0  0  0  0  0  0  0  0  0  0
   15.3365   20.3066   22.8305 H   0  0  0  0  0  0  0  0  0  0  0  0
   15.9134   19.1523   24.0537 H   0  0  0  0  0  0  0  0  0  0  0  0
   15.6041   20.8417   24.5015 H   0  0  0  0  0  0  0  0  0  0  0  0
   17.4486   20.5550   23.3619 C   0  0  0  0  0  0  0  0  0  0  0  0
   18.0629   20.4706   24.2664 H   0  0  0  0  0  0  0  0  0  0  0  0
   17.4950   21.6081   23.0509 H   0  0  0  0  0  0  0  0  0  0  0  0
   18.0093   19.6572   22.2327 C   0  0  0  0  0  0  0  0  0  0  0  0
   17.9072   18.5963   22.4993 H   0  0  0  0  0  0  0  0  0  0  0  0
   17.3877   19.8055   21.3389 H   0  0  0  0  0  0  0  0  0  0  0  0
   19.4819   19.9764   21.8652 C   0  0  0  0  0  0  0  0  0  0  0  0
   19.7090   21.0299   22.0788 H   0  0  0  0  0  0  0  0  0  0  0  0
   19.5943   19.8652   20.7778 H   0  0  0  0  0  0  0  0  0  0  0  0
   20.5336   19.0572   22.5386 C   0  0  0  0  0  0  0  0  0  0  0  0
   20.3545   18.0202   22.2251 H   0  0  0  0  0  0  0  0  0  0  0  0
   21.5194   19.3325   22.1428 H   0  0  0  0  0  0  0  0  0  0  0  0
   20.5509   19.1420   24.0882 C   0  0  0  0  0  0  0  0  0  0  0  0
   19.5925   18.7803   24.4801 H   0  0  0  0  0  0  0  0  0  0  0  0
   20.6345   20.1925   24.3961 H   0  0  0  0  0  0  0  0  0  0  0  0
   21.6760   18.3303   24.7728 C   0  0  2  0  0  0  0  0  0  0  0  0
   21.5258   18.4161   25.8534 H   0  0  0  0  0  0  0  0  0  0  0  0
   23.0734   18.8906   24.4549 C   0  0  0  0  0  0  0  0  0  0  0  0
   23.8347   18.3885   25.0645 H   0  0  0  0  0  0  0  0  0  0  0  0
   23.3408   18.7456   23.4016 H   0  0  0  0  0  0  0  0  0  0  0  0
   23.1237   19.9635   24.6784 H   0  0  0  0  0  0  0  0  0  0  0  0
   21.5989   16.8621   24.4564 N   0  3  0  0  0  0  0  0  0  0  0  0
   21.7414   16.6906   23.4579 H   0  0  0  0  0  0  0  0  0  0  0  0
   20.6873   16.4708   24.7102 H   0  0  0  0  0  0  0  0  0  0  0  0
   22.3124   16.3319   24.9646 H   0  0  0  0  0  0  0  0  0  0  0  0
  1  2  1  0  0  0  0
  1  3  1  0  0  0  0
  1  4  1  0  0  0  0
  1  5  1  0  0  0  0
  5  6  1  0  0  0  0
  5  7  1  0  0  0  0
  5  8  1  0  0  0  0
  8  9  1  0  0  0  0
  8 10  1  0  0  0  0
  8 11  1  0  0  0  0
 11 12  1  0  0  0  0
 11 13  1  0  0  0  0
 11 14  1  0  0  0  0
 14 15  1  0  0  0  0
 14 16  1  0  0  0  0
 14 17  1  0  0  0  0
 17 18  1  0  0  0  0
 17 19  1  0  0  0  0
 17 20  1  0  0  0  0
 20 21  1  0  0  0  0
 20 22  1  0  0  0  0
 22 23  1  0  0  0  0
 22 24  1  0  0  0  0
 22 25  1  0  0  0  0
 20 26  1  0  0  0  0
 26 27  1  0  0  0  0
 26 28  1  0  0  0  0
 26 29  1  0  0  0  0
M  END
> <VConfSearch Rank>
157

> <Conf_Id>
71

> <Delta U+W>
3.542

> <U+W>
-24.284

> <U>
28.217

> <W>
-52.501

> <W(PB)>
-54.947

> <W(SA)>
2.446

> <Valence>
6.821

> <Coulomb>
20.147

> <VdW>
1.249

> <VdW6>
-10.237

> <VdW12>
11.486

> <Bond>
0.317

> <Angle>
1.990

> <Pdih>
4.515

> <Idih>
0.000

> <Tether>
0.000

$$$$
VeraChem MOL file


 29 28  0  0  0  0  0  0  0  0999 V2000     
   23.0914   19.2410   21.2831 C   0  0  0  0  0  0  0  0  0  0  0  0
   23.3634   20.0104   22.0174 H   0  0  0  0  0  0  0  0  0  0  0  0
   23.8754   18.4726   21.2864 H   0  0  0  0  0  0  0  0  0  0  0  0
   23.0834   19.7100   20.2906 H   0  0  0  0  0  0  0  0  0  0  0  0
   21.7126   18.6284   21.6074 C   0  0  0  0  0  0  0  0  0  0  0  0
   21.4551   17.8884   20.8368 H   0  0  0  0  0  0  0  0  0  0  0  0
   20.9492   19.4136   21.5524 H   0  0  0  0  0  0  0  0  0  0  0  0
   21.7032   17.9510   22.9990 C   0  0  0  0  0  0  0  0  0  0  0  0
   22.4594   17.1537   22.9947 H   0  0  0  0  0  0  0  0  0  0  0  0
   22.0186   18.6628   23.7742 H   0  0  0  0  0  0  0  0  0  0  0  0
   20.3340   17.3259   23.3734 C   0  0  0  0  0  0  0  0  0  0  0  0
   20.5236   16.3995   23.9330 H   0  0  0  0  0  0  0  0  0  0  0  0
   19.7941   17.0179   22.4674 H   0  0  0  0  0  0  0  0  0  0  0  0
   19.4294   18.2253   24.2548 C   0  0  0  0  0  0  0  0  0  0  0  0
   18.5345   17.6477   24.5203 H   0  0  0  0  0  0  0  0  0  0  0  0
   19.9501   18.4367   25.1982 H   0  0  0  0  0  0  0  0  0  0  0  0
   19.0060   19.5561   23.5785 C   0  0  0  0  0  0  0  0  0  0  0  0
   18.6121   19.3444   22.5759 H   0  0  0  0  0  0  0  0  0  0  0  0
   19.8905   20.1895   23.4368 H   0  0  0  0  0  0  0  0  0  0  0  0
   17.9493   20.3735   24.3583 C   0  0  2  0  0  0  0  0  0  0  0  0
   17.7429   21.2772   23.7765 H   0  0  0  0  0  0  0  0  0  0  0  0
   18.4650   20.8158   25.7388 C   0  0  0  0  0  0  0  0  0  0  0  0
   19.4220   21.3443   25.6464 H   0  0  0  0  0  0  0  0  0  0  0  0
   17.7515   21.5003   26.2137 H   0  0  0  0  0  0  0  0  0  0  0  0
   18.6076   19.9611   26.4107 H   0  0  0  0  0  0  0  0  0  0  0  0
   16.6368   19.6492   24.4801 N   0  3  0  0  0  0  0  0  0  0  0  0
   16.2652   19.3888   23.5621 H   0  0  0  0  0  0  0  0  0  0  0  0
   15.9311   20.2292   24.9430 H   0  0  0  0  0  0  0  0  0  0  0  0
   16.7357   18.7908   25.0276 H   0  0  0  0  0  0  0  0  0  0  0  0
  1  2  1  0  0  0  0
  1  3  1  0  0  0  0
  1  4  1  0  0  0  0
  1  5  1  0  0  0  0
  5  6  1  0  0  0  0
  5  7  1  0  0  0  0
  5  8  1  0  0  0  0
  8  9  1  0  0  0  0
  8 10  1  0  0  0  0
  8 11  1  0  0  0  0
 11 12  1  0  0  0  0
 11 13  1  0  0  0  0
 11 14  1  0  0  0  0
 14 15  1  0  0  0  0
 14 16  1  0  0  0  0
 14 17  1  0  0  0  0
 17 18  1  0  0  0  0
 17 19  1  0  0  0  0
 17 20  1  0  0  0  0
 20 21  1  0  0  0  0
 20 22  1  0  0  0  0
 22 23  1  0  0  0  0
 22 24  1  0  0  0  0
 22 25  1  0  0  0  0
 20 26  1  0  0  0  0
 26 27  1  0  0  0  0
 26 28  1  0  0  0  0
 26 29  1  0  0  0  0
M  END
> <VConfSearch Rank>
158

> <Conf_Id>
163

> <Delta U+W>
3.309

> <U+W>
-24.517

> <U>
27.916

> <W>
-52.433

> <W(PB)>
-54.866

> <W(SA)>
2.433

> <Valence>
6.693

> <Coulomb>
20.015

> <VdW>
1.208

> <VdW6>
-10.294

> <VdW12>
11.503

> <Bond>
0.312

> <Angle>
1.939

> <Pdih>
4.441

> <Idih>
0.000

> <Tether>
0.000

$$$$
VeraChem MOL file


 29 28  0  0  0  0  0  0  0  0999 V2000     
   16.5546   20.4913   25.3880 C   0  0  0  0  0  0  0  0  0  0  0  0
   15.9843   19.5754   25.5906 H   0  0  0  0  0  0  0  0  0  0  0  0
   17.3161   20.6029   26.1697 H   0  0  0  0  0  0  0  0  0  0  0  0
   15.8661   21.3416   25.4756 H   0  0  0  0  0  0  0  0  0  0  0  0
   17.1873   20.4515   23.9785 C   0  0  0  0  0  0  0  0  0  0  0  0
   17.7809   21.3615   23.8133 H   0  0  0  0  0  0  0  0  0  0  0  0
   16.3824   20.4698   23.2305 H   0  0  0  0  0  0  0  0  0  0  0  0
   18.0652   19.2012   23.7301 C   0  0  0  0  0  0  0  0  0  0  0  0
   17.4668   18.2943   23.8924 H   0  0  0  0  0  0  0  0  0  0  0  0
   18.3551   19.1967   22.6715 H   0  0  0  0  0  0  0  0  0  0  0  0
   19.3362   19.1547   24.6156 C   0  0  0  0  0  0  0  0  0  0  0  0
   19.0439   19.1604   25.6735 H   0  0  0  0  0  0  0  0  0  0  0  0
   19.9283   20.0661   24.4599 H   0  0  0  0  0  0  0  0  0  0  0  0
   20.2145   17.8996   24.3725 C   0  0  0  0  0  0  0  0  0  0  0  0
   21.0574   17.9159   25.0764 H   0  0  0  0  0  0  0  0  0  0  0  0
   19.6339   17.0025   24.6280 H   0  0  0  0  0  0  0  0  0  0  0  0
   20.7573   17.7467   22.9264 C   0  0  0  0  0  0  0  0  0  0  0  0
   19.9220   17.5298   22.2484 H   0  0  0  0  0  0  0  0  0  0  0  0
   21.4128   16.8669   22.8835 H   0  0  0  0  0  0  0  0  0  0  0  0
   21.5256   18.9818   22.4066 C   0  0  2  0  0  0  0  0  0  0  0  0
   20.8575   19.8470   22.4531 H   0  0  0  0  0  0  0  0  0  0  0  0
   21.9430   18.7762   20.9421 C   0  0  0  0  0  0  0  0  0  0  0  0
   22.4564   19.6655   20.5563 H   0  0  0  0  0  0  0  0  0  0  0  0
   22.6198   17.9188   20.8386 H   0  0  0  0  0  0  0  0  0  0  0  0
   21.0654   18.5973   20.3084 H   0  0  0  0  0  0  0  0  0  0  0  0
   22.7210   19.3100   23.2581 N   0  3  0  0  0  0  0  0  0  0  0  0
   22.4484   19.4783   24.2303 H   0  0  0  0  0  0  0  0  0  0  0  0
   23.2019   20.1494   22.9222 H   0  0  0  0  0  0  0  0  0  0  0  0
   23.4007   18.5449   23.2562 H   0  0  0  0  0  0  0  0  0  0  0  0
  1  2  1  0  0  0  0
  1  3  1  0  0  0  0
  1  4  1  0  0  0  0
  1  5  1  0  0  0  0
  5  6  1  0  0  0  0
  5  7  1  0  0  0  0
  5  8  1  0  0  0  0
  8  9  1  0  0  0  0
  8 10  1  0  0  0  0
  8 11  1  0  0  0  0
 11 12  1  0  0  0  0
 11 13  1  0  0  0  0
 11 14  1  0  0  0  0
 14 15  1  0  0  0  0
 14 16  1  0  0  0  0
 14 17  1  0  0  0  0
 17 18  1  0  0  0  0
 17 19  1  0  0  0  0
 17 20  1  0  0  0  0
 20 21  1  0  0  0  0
 20 22  1  0  0  0  0
 22 23  1  0  0  0  0
 22 24  1  0  0  0  0
 22 25  1  0  0  0  0
 20 26  1  0  0  0  0
 26 27  1  0  0  0  0
 26 28  1  0  0  0  0
 26 29  1  0  0  0  0
M  END
> <VConfSearch Rank>
159

> <Conf_Id>
173

> <Delta U+W>
1.363

> <U+W>
-26.462

> <U>
25.816

> <W>
-52.279

> <W(PB)>
-54.727

> <W(SA)>
2.449

> <Valence>
4.504

> <Coulomb>
20.342

> <VdW>
0.971

> <VdW6>
-10.532

> <VdW12>
11.503

> <Bond>
0.307

> <Angle>
1.715

> <Pdih>
2.481

> <Idih>
0.000

> <Tether>
0.000

$$$$
VeraChem MOL file


 29 28  0  0  0  0  0  0  0  0999 V2000     
   19.7011   15.4468   24.9146 C   0  0  0  0  0  0  0  0  0  0  0  0
   19.5011   15.6870   25.9671 H   0  0  0  0  0  0  0  0  0  0  0  0
   18.9828   14.6800   24.5964 H   0  0  0  0  0  0  0  0  0  0  0  0
   20.7071   15.0119   24.8533 H   0  0  0  0  0  0  0  0  0  0  0  0
   19.5972   16.7066   24.0293 C   0  0  0  0  0  0  0  0  0  0  0  0
   19.8281   16.4405   22.9884 H   0  0  0  0  0  0  0  0  0  0  0  0
   20.3549   17.4312   24.3555 H   0  0  0  0  0  0  0  0  0  0  0  0
   18.1912   17.3439   24.1073 C   0  0  0  0  0  0  0  0  0  0  0  0
   17.4378   16.5731   23.8942 H   0  0  0  0  0  0  0  0  0  0  0  0
   18.0007   17.6807   25.1357 H   0  0  0  0  0  0  0  0  0  0  0  0
   17.9675   18.5260   23.1290 C   0  0  0  0  0  0  0  0  0  0  0  0
   16.9289   18.8634   23.2512 H   0  0  0  0  0  0  0  0  0  0  0  0
   18.0438   18.1761   22.0904 H   0  0  0  0  0  0  0  0  0  0  0  0
   18.9016   19.7426   23.3595 C   0  0  0  0  0  0  0  0  0  0  0  0
   18.3243   20.6573   23.1704 H   0  0  0  0  0  0  0  0  0  0  0  0
   19.1983   19.7821   24.4154 H   0  0  0  0  0  0  0  0  0  0  0  0
   20.1458   19.7415   22.4283 C   0  0  0  0  0  0  0  0  0  0  0  0
   19.8078   19.7560   21.3839 H   0  0  0  0  0  0  0  0  0  0  0  0
   20.7070   18.8076   22.5441 H   0  0  0  0  0  0  0  0  0  0  0  0
   21.1176   20.9259   22.6406 C   0  0  2  0  0  0  0  0  0  0  0  0
   21.9061   20.8382   21.8867 H   0  0  0  0  0  0  0  0  0  0  0  0
   21.7911   20.8788   24.0233 C   0  0  0  0  0  0  0  0  0  0  0  0
   22.2642   19.9038   24.1938 H   0  0  0  0  0  0  0  0  0  0  0  0
   22.5733   21.6445   24.0946 H   0  0  0  0  0  0  0  0  0  0  0  0
   21.0730   21.0586   24.8319 H   0  0  0  0  0  0  0  0  0  0  0  0
   20.4621   22.2587   22.4048 N   0  3  0  0  0  0  0  0  0  0  0  0
   20.0502   22.3139   21.4688 H   0  0  0  0  0  0  0  0  0  0  0  0
   21.1343   23.0265   22.4895 H   0  0  0  0  0  0  0  0  0  0  0  0
   19.7142   22.4289   23.0817 H   0  0  0  0  0  0  0  0  0  0  0  0
  1  2  1  0  0  0  0
  1  3  1  0  0  0  0
  1  4  1  0  0  0  0
  1  5  1  0  0  0  0
  5  6  1  0  0  0  0
  5  7  1  0  0  0  0
  5  8  1  0  0  0  0
  8  9  1  0  0  0  0
  8 10  1  0  0  0  0
  8 11  1  0  0  0  0
 11 12  1  0  0  0  0
 11 13  1  0  0  0  0
 11 14  1  0  0  0  0
 14 15  1  0  0  0  0
 14 16  1  0  0  0  0
 14 17  1  0  0  0  0
 17 18  1  0  0  0  0
 17 19  1  0  0  0  0
 17 20  1  0  0  0  0
 20 21  1  0  0  0  0
 20 22  1  0  0  0  0
 22 23  1  0  0  0  0
 22 24  1  0  0  0  0
 22 25  1  0  0  0  0
 20 26  1  0  0  0  0
 26 27  1  0  0  0  0
 26 28  1  0  0  0  0
 26 29  1  0  0  0  0
M  END
> <VConfSearch Rank>
160

> <Conf_Id>
117

> <Delta U+W>
3.377

> <U+W>
-24.449

> <U>
27.947

> <W>
-52.396

> <W(PB)>
-54.842

> <W(SA)>
2.447

> <Valence>
6.731

> <Coulomb>
20.067

> <VdW>
1.149

> <VdW6>
-10.427

> <VdW12>
11.575

> <Bond>
0.324

> <Angle>
1.943

> <Pdih>
4.465

> <Idih>
0.000

> <Tether>
0.000

$$$$
VeraChem MOL file


 29 28  0  0  0  0  0  0  0  0999 V2000     
   21.1820   23.6527   24.5097 C   0  0  0  0  0  0  0  0  0  0  0  0
   20.5386   23.7195   25.3968 H   0  0  0  0  0  0  0  0  0  0  0  0
   22.1901   23.3687   24.8390 H   0  0  0  0  0  0  0  0  0  0  0  0
   21.2432   24.6529   24.0615 H   0  0  0  0  0  0  0  0  0  0  0  0
   20.6227   22.6339   23.4944 C   0  0  0  0  0  0  0  0  0  0  0  0
   21.2678   22.6140   22.6048 H   0  0  0  0  0  0  0  0  0  0  0  0
   19.6291   22.9621   23.1583 H   0  0  0  0  0  0  0  0  0  0  0  0
   20.5263   21.2164   24.1006 C   0  0  0  0  0  0  0  0  0  0  0  0
   21.5213   20.8936   24.4371 H   0  0  0  0  0  0  0  0  0  0  0  0
   19.8824   21.2419   24.9906 H   0  0  0  0  0  0  0  0  0  0  0  0
   19.9666   20.1933   23.0866 C   0  0  0  0  0  0  0  0  0  0  0  0
   20.6107   20.1699   22.1966 H   0  0  0  0  0  0  0  0  0  0  0  0
   18.9715   20.5167   22.7508 H   0  0  0  0  0  0  0  0  0  0  0  0
   19.8710   18.7752   23.6932 C   0  0  0  0  0  0  0  0  0  0  0  0
   20.8671   18.4512   24.0256 H   0  0  0  0  0  0  0  0  0  0  0  0
   19.2314   18.8081   24.5852 H   0  0  0  0  0  0  0  0  0  0  0  0
   19.3089   17.7527   22.6759 C   0  0  0  0  0  0  0  0  0  0  0  0
   19.9303   17.7747   21.7706 H   0  0  0  0  0  0  0  0  0  0  0  0
   18.2976   18.0512   22.3692 H   0  0  0  0  0  0  0  0  0  0  0  0
   19.2806   16.3099   23.2249 C   0  0  2  0  0  0  0  0  0  0  0  0
   20.2929   16.0449   23.5453 H   0  0  0  0  0  0  0  0  0  0  0  0
   18.8501   15.3275   22.1240 C   0  0  0  0  0  0  0  0  0  0  0  0
   18.8630   14.2961   22.4972 H   0  0  0  0  0  0  0  0  0  0  0  0
   17.8363   15.5497   21.7679 H   0  0  0  0  0  0  0  0  0  0  0  0
   19.5325   15.3795   21.2664 H   0  0  0  0  0  0  0  0  0  0  0  0
   18.3937   16.1704   24.4318 N   0  3  0  0  0  0  0  0  0  0  0  0
   18.6955   16.7874   25.1907 H   0  0  0  0  0  0  0  0  0  0  0  0
   18.4025   15.2125   24.7938 H   0  0  0  0  0  0  0  0  0  0  0  0
   17.4226   16.4057   24.2102 H   0  0  0  0  0  0  0  0  0  0  0  0
  1  2  1  0  0  0  0
  1  3  1  0  0  0  0
  1  4  1  0  0  0  0
  1  5  1  0  0  0  0
  5  6  1  0  0  0  0
  5  7  1  0  0  0  0
  5  8  1  0  0  0  0
  8  9  1  0  0  0  0
  8 10  1  0  0  0  0
  8 11  1  0  0  0  0
 11 12  1  0  0  0  0
 11 13  1  0  0  0  0
 11 14  1  0  0  0  0
 14 15  1  0  0  0  0
 14 16  1  0  0  0  0
 14 17  1  0  0  0  0
 17 18  1  0  0  0  0
 17 19  1  0  0  0  0
 17 20  1  0  0  0  0
 20 21  1  0  0  0  0
 20 22  1  0  0  0  0
 22 23  1  0  0  0  0
 22 24  1  0  0  0  0
 22 25  1  0  0  0  0
 20 26  1  0  0  0  0
 26 27  1  0  0  0  0
 26 28  1  0  0  0  0
 26 29  1  0  0  0  0
M  END
> <VConfSearch Rank>
161

> <Conf_Id>
164

> <Delta U+W>
0.000

> <U+W>
-27.826

> <U>
23.963

> <W>
-51.789

> <W(PB)>
-54.342

> <W(SA)>
2.554

> <Valence>
3.166

> <Coulomb>
19.734

> <VdW>
1.062

> <VdW6>
-7.938

> <VdW12>
9.001

> <Bond>
0.188

> <Angle>
0.880

> <Pdih>
2.098

> <Idih>
0.000

> <Tether>
0.000

$$$$
VeraChem MOL file


 29 28  0  0  0  0  0  0  0  0999 V2000     
   16.0290   17.7485   20.8061 C   0  0  0  0  0  0  0  0  0  0  0  0
   16.5968   17.6905   19.8683 H   0  0  0  0  0  0  0  0  0  0  0  0
   15.9944   16.7439   21.2476 H   0  0  0  0  0  0  0  0  0  0  0  0
   15.0009   18.0441   20.5600 H   0  0  0  0  0  0  0  0  0  0  0  0
   16.6686   18.7606   21.7800 C   0  0  0  0  0  0  0  0  0  0  0  0
   16.0607   18.8216   22.6936 H   0  0  0  0  0  0  0  0  0  0  0  0
   16.6584   19.7609   21.3249 H   0  0  0  0  0  0  0  0  0  0  0  0
   18.1176   18.3675   22.1431 C   0  0  0  0  0  0  0  0  0  0  0  0
   18.1229   17.3661   22.5954 H   0  0  0  0  0  0  0  0  0  0  0  0
   18.7208   18.3057   21.2267 H   0  0  0  0  0  0  0  0  0  0  0  0
   18.7614   19.3787   23.1183 C   0  0  0  0  0  0  0  0  0  0  0  0
   18.1579   19.4398   24.0346 H   0  0  0  0  0  0  0  0  0  0  0  0
   18.7541   20.3797   22.6652 H   0  0  0  0  0  0  0  0  0  0  0  0
   20.2114   18.9853   23.4809 C   0  0  0  0  0  0  0  0  0  0  0  0
   20.2083   17.9811   23.9245 H   0  0  0  0  0  0  0  0  0  0  0  0
   20.8159   18.9293   22.5650 H   0  0  0  0  0  0  0  0  0  0  0  0
   20.8525   19.9976   24.4618 C   0  0  0  0  0  0  0  0  0  0  0  0
   20.2886   20.0083   25.4040 H   0  0  0  0  0  0  0  0  0  0  0  0
   20.7617   21.0045   24.0333 H   0  0  0  0  0  0  0  0  0  0  0  0
   22.3457   19.7232   24.7525 C   0  0  2  0  0  0  0  0  0  0  0  0
   22.8782   19.6756   23.7976 H   0  0  0  0  0  0  0  0  0  0  0  0
   22.5575   18.3920   25.4957 C   0  0  0  0  0  0  0  0  0  0  0  0
   21.9893   18.3665   26.4339 H   0  0  0  0  0  0  0  0  0  0  0  0
   22.2471   17.5386   24.8820 H   0  0  0  0  0  0  0  0  0  0  0  0
   23.6181   18.2487   25.7365 H   0  0  0  0  0  0  0  0  0  0  0  0
   22.9636   20.8543   25.5265 N   0  3  0  0  0  0  0  0  0  0  0  0
   23.9624   20.6956   25.6874 H   0  0  0  0  0  0  0  0  0  0  0  0
   22.5207   20.9667   26.4424 H   0  0  0  0  0  0  0  0  0  0  0  0
   22.8731   21.7452   25.0294 H   0  0  0  0  0  0  0  0  0  0  0  0
  1  2  1  0  0  0  0
  1  3  1  0  0  0  0
  1  4  1  0  0  0  0
  1  5  1  0  0  0  0
  5  6  1  0  0  0  0
  5  7  1  0  0  0  0
  5  8  1  0  0  0  0
  8  9  1  0  0  0  0
  8 10  1  0  0  0  0
  8 11  1  0  0  0  0
 11 12  1  0  0  0  0
 11 13  1  0  0  0  0
 11 14  1  0  0  0  0
 14 15  1  0  0  0  0
 14 16  1  0  0  0  0
 14 17  1  0  0  0  0
 17 18  1  0  0  0  0
 17 19  1  0  0  0  0
 17 20  1  0  0  0  0
 20 21  1  0  0  0  0
 20 22  1  0  0  0  0
 22 23  1  0  0  0  0
 22 24  1  0  0  0  0
 22 25  1  0  0  0  0
 20 26  1  0  0  0  0
 26 27  1  0  0  0  0
 26 28  1  0  0  0  0
 26 29  1  0  0  0  0
M  END
> <VConfSearch Rank>
162

> <Conf_Id>
58

> <Delta U+W>
0.412

> <U+W>
-27.414

> <U>
24.279

> <W>
-51.694

> <W(PB)>
-54.271

> <W(SA)>
2.577

> <Valence>
3.709

> <Coulomb>
19.380

> <VdW>
1.191

> <VdW6>
-8.093

> <VdW12>
9.284

> <Bond>
0.200

> <Angle>
1.161

> <Pdih>
2.348

> <Idih>
0.000

> <Tether>
0.000

$$$$
VeraChem MOL file


 29 28  0  0  0  0  0  0  0  0999 V2000     
   23.2799   17.3106   25.9795 C   0  0  0  0  0  0  0  0  0  0  0  0
   22.6169   16.9955   26.7959 H   0  0  0  0  0  0  0  0  0  0  0  0
   23.3978   16.4652   25.2891 H   0  0  0  0  0  0  0  0  0  0  0  0
   24.2643   17.5328   26.4115 H   0  0  0  0  0  0  0  0  0  0  0  0
   22.7129   18.5471   25.2505 C   0  0  0  0  0  0  0  0  0  0  0  0
   23.4131   18.8588   24.4628 H   0  0  0  0  0  0  0  0  0  0  0  0
   22.6381   19.3849   25.9580 H   0  0  0  0  0  0  0  0  0  0  0  0
   21.3265   18.2609   24.6327 C   0  0  0  0  0  0  0  0  0  0  0  0
   21.4059   17.4215   23.9280 H   0  0  0  0  0  0  0  0  0  0  0  0
   20.6309   17.9474   25.4234 H   0  0  0  0  0  0  0  0  0  0  0  0
   20.7554   19.4970   23.9020 C   0  0  0  0  0  0  0  0  0  0  0  0
   21.4521   19.8099   23.1120 H   0  0  0  0  0  0  0  0  0  0  0  0
   20.6768   20.3359   24.6075 H   0  0  0  0  0  0  0  0  0  0  0  0
   19.3682   19.2105   23.2841 C   0  0  0  0  0  0  0  0  0  0  0  0
   19.4534   18.3709   22.5817 H   0  0  0  0  0  0  0  0  0  0  0  0
   18.6811   18.8942   24.0799 H   0  0  0  0  0  0  0  0  0  0  0  0
   18.7990   20.4557   22.5554 C   0  0  0  0  0  0  0  0  0  0  0  0
   19.5190   20.7897   21.7967 H   0  0  0  0  0  0  0  0  0  0  0  0
   18.7075   21.2841   23.2703 H   0  0  0  0  0  0  0  0  0  0  0  0
   17.4302   20.2394   21.8678 C   0  0  2  0  0  0  0  0  0  0  0  0
   17.1639   21.1778   21.3716 H   0  0  0  0  0  0  0  0  0  0  0  0
   16.3180   19.9171   22.8809 C   0  0  0  0  0  0  0  0  0  0  0  0
   15.3397   19.9043   22.3848 H   0  0  0  0  0  0  0  0  0  0  0  0
   16.4679   18.9376   23.3502 H   0  0  0  0  0  0  0  0  0  0  0  0
   16.2795   20.6759   23.6723 H   0  0  0  0  0  0  0  0  0  0  0  0
   17.4903   19.1978   20.7846 N   0  3  0  0  0  0  0  0  0  0  0  0
   18.1984   19.4279   20.0815 H   0  0  0  0  0  0  0  0  0  0  0  0
   16.5931   19.1113   20.2987 H   0  0  0  0  0  0  0  0  0  0  0  0
   17.7226   18.2778   21.1670 H   0  0  0  0  0  0  0  0  0  0  0  0
  1  2  1  0  0  0  0
  1  3  1  0  0  0  0
  1  4  1  0  0  0  0
  1  5  1  0  0  0  0
  5  6  1  0  0  0  0
  5  7  1  0  0  0  0
  5  8  1  0  0  0  0
  8  9  1  0  0  0  0
  8 10  1  0  0  0  0
  8 11  1  0  0  0  0
 11 12  1  0  0  0  0
 11 13  1  0  0  0  0
 11 14  1  0  0  0  0
 14 15  1  0  0  0  0
 14 16  1  0  0  0  0
 14 17  1  0  0  0  0
 17 18  1  0  0  0  0
 17 19  1  0  0  0  0
 17 20  1  0  0  0  0
 20 21  1  0  0  0  0
 20 22  1  0  0  0  0
 22 23  1  0  0  0  0
 22 24  1  0  0  0  0
 22 25  1  0  0  0  0
 20 26  1  0  0  0  0
 26 27  1  0  0  0  0
 26 28  1  0  0  0  0
 26 29  1  0  0  0  0
M  END
> <VConfSearch Rank>
163

> <Conf_Id>
137

> <Delta U+W>
0.280

> <U+W>
-27.546

> <U>
24.513

> <W>
-52.059

> <W(PB)>
-54.556

> <W(SA)>
2.497

> <Valence>
3.677

> <Coulomb>
19.662

> <VdW>
1.174

> <VdW6>
-8.569

> <VdW12>
9.743

> <Bond>
0.224

> <Angle>
1.211

> <Pdih>
2.243

> <Idih>
0.000

> <Tether>
0.000

$$$$
VeraChem MOL file


 29 28  0  0  0  0  0  0  0  0999 V2000     
   21.3430   18.1234   27.5655 C   0  0  0  0  0  0  0  0  0  0  0  0
   20.5772   18.8424   27.8844 H   0  0  0  0  0  0  0  0  0  0  0  0
   20.8973   17.1202   27.5798 H   0  0  0  0  0  0  0  0  0  0  0  0
   22.1529   18.1429   28.3063 H   0  0  0  0  0  0  0  0  0  0  0  0
   21.8804   18.4714   26.1613 C   0  0  0  0  0  0  0  0  0  0  0  0
   22.6680   17.7563   25.8853 H   0  0  0  0  0  0  0  0  0  0  0  0
   22.3489   19.4653   26.1861 H   0  0  0  0  0  0  0  0  0  0  0  0
   20.7597   18.4501   25.0984 C   0  0  0  0  0  0  0  0  0  0  0  0
   20.2964   17.4541   25.0758 H   0  0  0  0  0  0  0  0  0  0  0  0
   19.9765   19.1607   25.3923 H   0  0  0  0  0  0  0  0  0  0  0  0
   21.2975   18.8034   23.6907 C   0  0  0  0  0  0  0  0  0  0  0  0
   22.1369   18.1351   23.4533 H   0  0  0  0  0  0  0  0  0  0  0  0
   21.7075   19.8228   23.6946 H   0  0  0  0  0  0  0  0  0  0  0  0
   20.2388   18.6736   22.5676 C   0  0  0  0  0  0  0  0  0  0  0  0
   20.7536   18.7963   21.6062 H   0  0  0  0  0  0  0  0  0  0  0  0
   19.8238   17.6562   22.5694 H   0  0  0  0  0  0  0  0  0  0  0  0
   19.0888   19.7086   22.6771 C   0  0  0  0  0  0  0  0  0  0  0  0
   19.5028   20.7256   22.6646 H   0  0  0  0  0  0  0  0  0  0  0  0
   18.5893   19.5870   23.6457 H   0  0  0  0  0  0  0  0  0  0  0  0
   18.0188   19.5696   21.5697 C   0  0  2  0  0  0  0  0  0  0  0  0
   17.6658   18.5338   21.5614 H   0  0  0  0  0  0  0  0  0  0  0  0
   18.5754   19.9072   20.1747 C   0  0  0  0  0  0  0  0  0  0  0  0
   19.0048   20.9165   20.1524 H   0  0  0  0  0  0  0  0  0  0  0  0
   19.3517   19.1960   19.8707 H   0  0  0  0  0  0  0  0  0  0  0  0
   17.7806   19.8595   19.4202 H   0  0  0  0  0  0  0  0  0  0  0  0
   16.8177   20.4237   21.8677 N   0  3  0  0  0  0  0  0  0  0  0  0
   16.4012   20.1865   22.7727 H   0  0  0  0  0  0  0  0  0  0  0  0
   16.0896   20.3057   21.1573 H   0  0  0  0  0  0  0  0  0  0  0  0
   17.0623   21.4173   21.8921 H   0  0  0  0  0  0  0  0  0  0  0  0
  1  2  1  0  0  0  0
  1  3  1  0  0  0  0
  1  4  1  0  0  0  0
  1  5  1  0  0  0  0
  5  6  1  0  0  0  0
  5  7  1  0  0  0  0
  5  8  1  0  0  0  0
  8  9  1  0  0  0  0
  8 10  1  0  0  0  0
  8 11  1  0  0  0  0
 11 12  1  0  0  0  0
 11 13  1  0  0  0  0
 11 14  1  0  0  0  0
 14 15  1  0  0  0  0
 14 16  1  0  0  0  0
 14 17  1  0  0  0  0
 17 18  1  0  0  0  0
 17 19  1  0  0  0  0
 17 20  1  0  0  0  0
 20 21  1  0  0  0  0
 20 22  1  0  0  0  0
 22 23  1  0  0  0  0
 22 24  1  0  0  0  0
 22 25  1  0  0  0  0
 20 26  1  0  0  0  0
 26 27  1  0  0  0  0
 26 28  1  0  0  0  0
 26 29  1  0  0  0  0
M  END
> <VConfSearch Rank>
164

> <Conf_Id>
40

> <Delta U+W>
1.128

> <U+W>
-26.698

> <U>
25.442

> <W>
-52.140

> <W(PB)>
-54.658

> <W(SA)>
2.519

> <Valence>
4.343

> <Coulomb>
19.740

> <VdW>
1.360

> <VdW6>
-8.739

> <VdW12>
10.099

> <Bond>
0.251

> <Angle>
1.483

> <Pdih>
2.608

> <Idih>
0.000

> <Tether>
0.000

$$$$
VeraChem MOL file


 29 28  0  0  0  0  0  0  0  0999 V2000     
   24.0305   20.0434   23.6986 C   0  0  0  0  0  0  0  0  0  0  0  0
   23.6559   20.5432   24.6003 H   0  0  0  0  0  0  0  0  0  0  0  0
   24.3090   19.0155   23.9646 H   0  0  0  0  0  0  0  0  0  0  0  0
   24.9429   20.5681   23.3867 H   0  0  0  0  0  0  0  0  0  0  0  0
   22.9832   20.0590   22.5619 C   0  0  0  0  0  0  0  0  0  0  0  0
   23.4500   19.6662   21.6479 H   0  0  0  0  0  0  0  0  0  0  0  0
   22.6948   21.0956   22.3384 H   0  0  0  0  0  0  0  0  0  0  0  0
   21.7205   19.2193   22.8728 C   0  0  0  0  0  0  0  0  0  0  0  0
   21.1096   19.1793   21.9622 H   0  0  0  0  0  0  0  0  0  0  0  0
   22.0145   18.1844   23.0955 H   0  0  0  0  0  0  0  0  0  0  0  0
   20.8753   19.7867   24.0418 C   0  0  0  0  0  0  0  0  0  0  0  0
   20.5762   20.8197   23.8171 H   0  0  0  0  0  0  0  0  0  0  0  0
   21.4939   19.8346   24.9472 H   0  0  0  0  0  0  0  0  0  0  0  0
   19.6191   18.9416   24.3684 C   0  0  0  0  0  0  0  0  0  0  0  0
   19.9175   17.9042   24.5739 H   0  0  0  0  0  0  0  0  0  0  0  0
   19.1851   19.3282   25.2998 H   0  0  0  0  0  0  0  0  0  0  0  0
   18.5452   18.9660   23.2500 C   0  0  0  0  0  0  0  0  0  0  0  0
   18.9711   18.5535   22.3274 H   0  0  0  0  0  0  0  0  0  0  0  0
   18.2615   20.0036   23.0296 H   0  0  0  0  0  0  0  0  0  0  0  0
   17.2846   18.1490   23.6086 C   0  0  2  0  0  0  0  0  0  0  0  0
   17.5960   17.1304   23.8599 H   0  0  0  0  0  0  0  0  0  0  0  0
   16.3327   18.0792   22.4038 C   0  0  0  0  0  0  0  0  0  0  0  0
   15.4509   17.4710   22.6402 H   0  0  0  0  0  0  0  0  0  0  0  0
   15.9896   19.0793   22.1105 H   0  0  0  0  0  0  0  0  0  0  0  0
   16.8300   17.6215   21.5395 H   0  0  0  0  0  0  0  0  0  0  0  0
   16.5669   18.6929   24.8137 N   0  3  0  0  0  0  0  0  0  0  0  0
   16.2460   19.6518   24.6553 H   0  0  0  0  0  0  0  0  0  0  0  0
   17.1739   18.7026   25.6378 H   0  0  0  0  0  0  0  0  0  0  0  0
   15.7447   18.1284   25.0457 H   0  0  0  0  0  0  0  0  0  0  0  0
  1  2  1  0  0  0  0
  1  3  1  0  0  0  0
  1  4  1  0  0  0  0
  1  5  1  0  0  0  0
  5  6  1  0  0  0  0
  5  7  1  0  0  0  0
  5  8  1  0  0  0  0
  8  9  1  0  0  0  0
  8 10  1  0  0  0  0
  8 11  1  0  0  0  0
 11 12  1  0  0  0  0
 11 13  1  0  0  0  0
 11 14  1  0  0  0  0
 14 15  1  0  0  0  0
 14 16  1  0  0  0  0
 14 17  1  0  0  0  0
 17 18  1  0  0  0  0
 17 19  1  0  0  0  0
 17 20  1  0  0  0  0
 20 21  1  0  0  0  0
 20 22  1  0  0  0  0
 22 23  1  0  0  0  0
 22 24  1  0  0  0  0
 22 25  1  0  0  0  0
 20 26  1  0  0  0  0
 26 27  1  0  0  0  0
 26 28  1  0  0  0  0
 26 29  1  0  0  0  0
M  END
> <VConfSearch Rank>
165

> <Conf_Id>
134

> <Delta U+W>
1.228

> <U+W>
-26.598

> <U>
25.451

> <W>
-52.048

> <W(PB)>
-54.539

> <W(SA)>
2.490

> <Valence>
4.319

> <Coulomb>
19.732

> <VdW>
1.400

> <VdW6>
-9.173

> <VdW12>
10.573

> <Bond>
0.281

> <Angle>
1.459

> <Pdih>
2.580

> <Idih>
0.000

> <Tether>
0.000

$$$$
VeraChem MOL file


 29 28  0  0  0  0  0  0  0  0999 V2000     
   21.2229   15.0132   23.2552 C   0  0  0  0  0  0  0  0  0  0  0  0
   20.1971   14.8606   22.8980 H   0  0  0  0  0  0  0  0  0  0  0  0
   21.8538   15.2667   22.3934 H   0  0  0  0  0  0  0  0  0  0  0  0
   21.5762   14.0558   23.6596 H   0  0  0  0  0  0  0  0  0  0  0  0
   21.2912   16.1148   24.3372 C   0  0  0  0  0  0  0  0  0  0  0  0
   22.3088   16.1389   24.7515 H   0  0  0  0  0  0  0  0  0  0  0  0
   20.6256   15.8553   25.1723 H   0  0  0  0  0  0  0  0  0  0  0  0
   20.9395   17.5255   23.8059 C   0  0  0  0  0  0  0  0  0  0  0  0
   21.1475   18.2494   24.6042 H   0  0  0  0  0  0  0  0  0  0  0  0
   21.6089   17.7809   22.9730 H   0  0  0  0  0  0  0  0  0  0  0  0
   19.4638   17.6637   23.3530 C   0  0  0  0  0  0  0  0  0  0  0  0
   18.7947   17.4098   24.1865 H   0  0  0  0  0  0  0  0  0  0  0  0
   19.2560   16.9365   22.5576 H   0  0  0  0  0  0  0  0  0  0  0  0
   19.1128   19.0730   22.8156 C   0  0  0  0  0  0  0  0  0  0  0  0
   19.7762   19.3107   21.9735 H   0  0  0  0  0  0  0  0  0  0  0  0
   18.0921   19.0458   22.4094 H   0  0  0  0  0  0  0  0  0  0  0  0
   19.1955   20.1847   23.8934 C   0  0  0  0  0  0  0  0  0  0  0  0
   20.2365   20.3287   24.2087 H   0  0  0  0  0  0  0  0  0  0  0  0
   18.6413   19.8536   24.7815 H   0  0  0  0  0  0  0  0  0  0  0  0
   18.6131   21.5391   23.4295 C   0  0  2  0  0  0  0  0  0  0  0  0
   17.5873   21.3722   23.0865 H   0  0  0  0  0  0  0  0  0  0  0  0
   19.4211   22.1498   22.2705 C   0  0  0  0  0  0  0  0  0  0  0  0
   20.4744   22.2822   22.5477 H   0  0  0  0  0  0  0  0  0  0  0  0
   19.3777   21.5160   21.3772 H   0  0  0  0  0  0  0  0  0  0  0  0
   19.0166   23.1307   21.9923 H   0  0  0  0  0  0  0  0  0  0  0  0
   18.5250   22.5121   24.5722 N   0  3  0  0  0  0  0  0  0  0  0  0
   17.9547   22.1429   25.3387 H   0  0  0  0  0  0  0  0  0  0  0  0
   18.1029   23.3974   24.2778 H   0  0  0  0  0  0  0  0  0  0  0  0
   19.4506   22.7267   24.9530 H   0  0  0  0  0  0  0  0  0  0  0  0
  1  2  1  0  0  0  0
  1  3  1  0  0  0  0
  1  4  1  0  0  0  0
  1  5  1  0  0  0  0
  5  6  1  0  0  0  0
  5  7  1  0  0  0  0
  5  8  1  0  0  0  0
  8  9  1  0  0  0  0
  8 10  1  0  0  0  0
  8 11  1  0  0  0  0
 11 12  1  0  0  0  0
 11 13  1  0  0  0  0
 11 14  1  0  0  0  0
 14 15  1  0  0  0  0
 14 16  1  0  0  0  0
 14 17  1  0  0  0  0
 17 18  1  0  0  0  0
 17 19  1  0  0  0  0
 17 20  1  0  0  0  0
 20 21  1  0  0  0  0
 20 22  1  0  0  0  0
 22 23  1  0  0  0  0
 22 24  1  0  0  0  0
 22 25  1  0  0  0  0
 20 26  1  0  0  0  0
 26 27  1  0  0  0  0
 26 28  1  0  0  0  0
 26 29  1  0  0  0  0
M  END
> <VConfSearch Rank>
166

> <Conf_Id>
73

> <Delta U+W>
1.580

> <U+W>
-26.246

> <U>
25.821

> <W>
-52.067

> <W(PB)>
-54.581

> <W(SA)>
2.514

> <Valence>
4.779

> <Coulomb>
19.614

> <VdW>
1.428

> <VdW6>
-9.390

> <VdW12>
10.818

> <Bond>
0.283

> <Angle>
1.640

> <Pdih>
2.856

> <Idih>
0.000

> <Tether>
0.000

$$$$
VeraChem MOL file


 29 28  0  0  0  0  0  0  0  0999 V2000     
   23.0885   21.7813   24.9292 C   0  0  0  0  0  0  0  0  0  0  0  0
   23.6938   20.8749   24.7976 H   0  0  0  0  0  0  0  0  0  0  0  0
   23.7426   22.6490   24.7732 H   0  0  0  0  0  0  0  0  0  0  0  0
   22.7346   21.8084   25.9681 H   0  0  0  0  0  0  0  0  0  0  0  0
   21.9047   21.8064   23.9393 C   0  0  0  0  0  0  0  0  0  0  0  0
   22.2900   21.8118   22.9100 H   0  0  0  0  0  0  0  0  0  0  0  0
   21.3395   22.7397   24.0712 H   0  0  0  0  0  0  0  0  0  0  0  0
   20.9669   20.5952   24.1383 C   0  0  0  0  0  0  0  0  0  0  0  0
   21.5464   19.6713   24.0138 H   0  0  0  0  0  0  0  0  0  0  0  0
   20.5824   20.5958   25.1675 H   0  0  0  0  0  0  0  0  0  0  0  0
   19.7822   20.6173   23.1426 C   0  0  0  0  0  0  0  0  0  0  0  0
   20.1614   20.5568   22.1131 H   0  0  0  0  0  0  0  0  0  0  0  0
   19.2665   21.5841   23.2244 H   0  0  0  0  0  0  0  0  0  0  0  0
   18.7471   19.4904   23.3815 C   0  0  0  0  0  0  0  0  0  0  0  0
   18.3663   19.5537   24.4103 H   0  0  0  0  0  0  0  0  0  0  0  0
   17.8885   19.6739   22.7223 H   0  0  0  0  0  0  0  0  0  0  0  0
   19.3076   18.0689   23.1184 C   0  0  0  0  0  0  0  0  0  0  0  0
   20.1487   17.8792   23.7964 H   0  0  0  0  0  0  0  0  0  0  0  0
   19.7067   18.0097   22.0971 H   0  0  0  0  0  0  0  0  0  0  0  0
   18.2551   16.9585   23.3290 C   0  0  2  0  0  0  0  0  0  0  0  0
   17.8463   17.0605   24.3390 H   0  0  0  0  0  0  0  0  0  0  0  0
   18.9096   15.5728   23.2109 C   0  0  0  0  0  0  0  0  0  0  0  0
   19.7140   15.4571   23.9480 H   0  0  0  0  0  0  0  0  0  0  0  0
   18.1746   14.7793   23.3940 H   0  0  0  0  0  0  0  0  0  0  0  0
   19.3368   15.4193   22.2120 H   0  0  0  0  0  0  0  0  0  0  0  0
   17.0953   17.0741   22.3779 N   0  3  0  0  0  0  0  0  0  0  0  0
   16.4006   16.3404   22.5444 H   0  0  0  0  0  0  0  0  0  0  0  0
   17.4014   16.9915   21.4048 H   0  0  0  0  0  0  0  0  0  0  0  0
   16.6190   17.9746   22.4764 H   0  0  0  0  0  0  0  0  0  0  0  0
  1  2  1  0  0  0  0
  1  3  1  0  0  0  0
  1  4  1  0  0  0  0
  1  5  1  0  0  0  0
  5  6  1  0  0  0  0
  5  7  1  0  0  0  0
  5  8  1  0  0  0  0
  8  9  1  0  0  0  0
  8 10  1  0  0  0  0
  8 11  1  0  0  0  0
 11 12  1  0  0  0  0
 11 13  1  0  0  0  0
 11 14  1  0  0  0  0
 14 15  1  0  0  0  0
 14 16  1  0  0  0  0
 14 17  1  0  0  0  0
 17 18  1  0  0  0  0
 17 19  1  0  0  0  0
 17 20  1  0  0  0  0
 20 21  1  0  0  0  0
 20 22  1  0  0  0  0
 22 23  1  0  0  0  0
 22 24  1  0  0  0  0
 22 25  1  0  0  0  0
 20 26  1  0  0  0  0
 26 27  1  0  0  0  0
 26 28  1  0  0  0  0
 26 29  1  0  0  0  0
M  END
> <VConfSearch Rank>
167

> <Conf_Id>
111

> <Delta U+W>
0.580

> <U+W>
-27.246

> <U>
24.710

> <W>
-51.957

> <W(PB)>
-54.511

> <W(SA)>
2.555

> <Valence>
3.735

> <Coulomb>
19.760

> <VdW>
1.216

> <VdW6>
-8.624

> <VdW12>
9.840

> <Bond>
0.236

> <Angle>
1.168

> <Pdih>
2.330

> <Idih>
0.000

> <Tether>
0.000

$$$$
VeraChem MOL file


 29 28  0  0  0  0  0  0  0  0999 V2000     
   16.1984   20.7067   21.4741 C   0  0  0  0  0  0  0  0  0  0  0  0
   16.8134   21.2526   20.7468 H   0  0  0  0  0  0  0  0  0  0  0  0
   16.1164   19.6645   21.1388 H   0  0  0  0  0  0  0  0  0  0  0  0
   15.1921   21.1451   21.4610 H   0  0  0  0  0  0  0  0  0  0  0  0
   16.8096   20.7878   22.8889 C   0  0  0  0  0  0  0  0  0  0  0  0
   16.1564   20.2617   23.5991 H   0  0  0  0  0  0  0  0  0  0  0  0
   16.8464   21.8382   23.2100 H   0  0  0  0  0  0  0  0  0  0  0  0
   18.2279   20.1776   22.9350 C   0  0  0  0  0  0  0  0  0  0  0  0
   18.1787   19.1321   22.6038 H   0  0  0  0  0  0  0  0  0  0  0  0
   18.8775   20.7078   22.2250 H   0  0  0  0  0  0  0  0  0  0  0  0
   18.8402   20.2547   24.3541 C   0  0  0  0  0  0  0  0  0  0  0  0
   18.2200   19.6815   25.0570 H   0  0  0  0  0  0  0  0  0  0  0  0
   18.8136   21.2975   24.6994 H   0  0  0  0  0  0  0  0  0  0  0  0
   20.3032   19.7523   24.4232 C   0  0  0  0  0  0  0  0  0  0  0  0
   20.9202   20.3521   23.7412 H   0  0  0  0  0  0  0  0  0  0  0  0
   20.6880   19.9375   25.4356 H   0  0  0  0  0  0  0  0  0  0  0  0
   20.4526   18.2445   24.0943 C   0  0  0  0  0  0  0  0  0  0  0  0
   20.2042   18.0618   23.0412 H   0  0  0  0  0  0  0  0  0  0  0  0
   19.7227   17.6819   24.6912 H   0  0  0  0  0  0  0  0  0  0  0  0
   21.8626   17.6844   24.3894 C   0  0  2  0  0  0  0  0  0  0  0  0
   22.1085   17.9059   25.4325 H   0  0  0  0  0  0  0  0  0  0  0  0
   22.9377   18.3198   23.4898 C   0  0  0  0  0  0  0  0  0  0  0  0
   22.7028   18.1749   22.4279 H   0  0  0  0  0  0  0  0  0  0  0  0
   23.0296   19.3958   23.6779 H   0  0  0  0  0  0  0  0  0  0  0  0
   23.9195   17.8713   23.6853 H   0  0  0  0  0  0  0  0  0  0  0  0
   21.8906   16.1871   24.2560 N   0  3  0  0  0  0  0  0  0  0  0  0
   21.2116   15.7402   24.8789 H   0  0  0  0  0  0  0  0  0  0  0  0
   22.8130   15.8082   24.4893 H   0  0  0  0  0  0  0  0  0  0  0  0
   21.6722   15.8925   23.3003 H   0  0  0  0  0  0  0  0  0  0  0  0
  1  2  1  0  0  0  0
  1  3  1  0  0  0  0
  1  4  1  0  0  0  0
  1  5  1  0  0  0  0
  5  6  1  0  0  0  0
  5  7  1  0  0  0  0
  5  8  1  0  0  0  0
  8  9  1  0  0  0  0
  8 10  1  0  0  0  0
  8 11  1  0  0  0  0
 11 12  1  0  0  0  0
 11 13  1  0  0  0  0
 11 14  1  0  0  0  0
 14 15  1  0  0  0  0
 14 16  1  0  0  0  0
 14 17  1  0  0  0  0
 17 18  1  0  0  0  0
 17 19  1  0  0  0  0
 17 20  1  0  0  0  0
 20 21  1  0  0  0  0
 20 22  1  0  0  0  0
 22 23  1  0  0  0  0
 22 24  1  0  0  0  0
 22 25  1  0  0  0  0
 20 26  1  0  0  0  0
 26 27  1  0  0  0  0
 26 28  1  0  0  0  0
 26 29  1  0  0  0  0
M  END
> <VConfSearch Rank>
168

> <Conf_Id>
39

> <Delta U+W>
0.965

> <U+W>
-26.861

> <U>
25.129

> <W>
-51.990

> <W(PB)>
-54.526

> <W(SA)>
2.536

> <Valence>
4.206

> <Coulomb>
19.678

> <VdW>
1.245

> <VdW6>
-8.834

> <VdW12>
10.079

> <Bond>
0.240

> <Angle>
1.353

> <Pdih>
2.613

> <Idih>
0.000

> <Tether>
0.000

$$$$
VeraChem MOL file


 29 28  0  0  0  0  0  0  0  0999 V2000     
   16.1226   17.3644   24.9089 C   0  0  0  0  0  0  0  0  0  0  0  0
   15.6692   17.4809   23.9160 H   0  0  0  0  0  0  0  0  0  0  0  0
   16.8005   16.5026   24.8791 H   0  0  0  0  0  0  0  0  0  0  0  0
   15.3196   17.1270   25.6186 H   0  0  0  0  0  0  0  0  0  0  0  0
   16.8591   18.6537   25.3382 C   0  0  0  0  0  0  0  0  0  0  0  0
   17.3334   18.5006   26.3176 H   0  0  0  0  0  0  0  0  0  0  0  0
   16.1177   19.4529   25.4775 H   0  0  0  0  0  0  0  0  0  0  0  0
   17.9160   19.1323   24.3135 C   0  0  0  0  0  0  0  0  0  0  0  0
   17.4368   19.2847   23.3367 H   0  0  0  0  0  0  0  0  0  0  0  0
   18.2797   20.1157   24.6375 H   0  0  0  0  0  0  0  0  0  0  0  0
   19.1137   18.1600   24.1632 C   0  0  0  0  0  0  0  0  0  0  0  0
   18.7461   17.1753   23.8472 H   0  0  0  0  0  0  0  0  0  0  0  0
   19.5957   18.0112   25.1391 H   0  0  0  0  0  0  0  0  0  0  0  0
   20.1670   18.6300   23.1297 C   0  0  0  0  0  0  0  0  0  0  0  0
   20.8945   17.8193   22.9931 H   0  0  0  0  0  0  0  0  0  0  0  0
   19.6764   18.7736   22.1579 H   0  0  0  0  0  0  0  0  0  0  0  0
   20.9108   19.9270   23.5509 C   0  0  0  0  0  0  0  0  0  0  0  0
   21.2981   19.8068   24.5711 H   0  0  0  0  0  0  0  0  0  0  0  0
   20.2026   20.7638   23.5911 H   0  0  0  0  0  0  0  0  0  0  0  0
   22.0833   20.3315   22.6265 C   0  0  2  0  0  0  0  0  0  0  0  0
   22.5203   21.2470   23.0374 H   0  0  0  0  0  0  0  0  0  0  0  0
   21.6099   20.6426   21.1960 C   0  0  0  0  0  0  0  0  0  0  0  0
   21.2423   19.7438   20.6865 H   0  0  0  0  0  0  0  0  0  0  0  0
   20.8039   21.3868   21.2054 H   0  0  0  0  0  0  0  0  0  0  0  0
   22.4342   21.0524   20.5997 H   0  0  0  0  0  0  0  0  0  0  0  0
   23.1881   19.3111   22.6184 N   0  3  0  0  0  0  0  0  0  0  0  0
   23.5385   19.1298   23.5635 H   0  0  0  0  0  0  0  0  0  0  0  0
   23.9820   19.6238   22.0523 H   0  0  0  0  0  0  0  0  0  0  0  0
   22.8677   18.4198   22.2320 H   0  0  0  0  0  0  0  0  0  0  0  0
  1  2  1  0  0  0  0
  1  3  1  0  0  0  0
  1  4  1  0  0  0  0
  1  5  1  0  0  0  0
  5  6  1  0  0  0  0
  5  7  1  0  0  0  0
  5  8  1  0  0  0  0
  8  9  1  0  0  0  0
  8 10  1  0  0  0  0
  8 11  1  0  0  0  0
 11 12  1  0  0  0  0
 11 13  1  0  0  0  0
 11 14  1  0  0  0  0
 14 15  1  0  0  0  0
 14 16  1  0  0  0  0
 14 17  1  0  0  0  0
 17 18  1  0  0  0  0
 17 19  1  0  0  0  0
 17 20  1  0  0  0  0
 20 21  1  0  0  0  0
 20 22  1  0  0  0  0
 22 23  1  0  0  0  0
 22 24  1  0  0  0  0
 22 25  1  0  0  0  0
 20 26  1  0  0  0  0
 26 27  1  0  0  0  0
 26 28  1  0  0  0  0
 26 29  1  0  0  0  0
M  END
> <VConfSearch Rank>
169

> <Conf_Id>
155

> <Delta U+W>
1.624

> <U+W>
-26.202

> <U>
25.894

> <W>
-52.096

> <W(PB)>
-54.602

> <W(SA)>
2.506

> <Valence>
4.779

> <Coulomb>
19.659

> <VdW>
1.456

> <VdW6>
-9.843

> <VdW12>
11.299

> <Bond>
0.315

> <Angle>
1.725

> <Pdih>
2.740

> <Idih>
0.000

> <Tether>
0.000

$$$$
VeraChem MOL file


 29 28  0  0  0  0  0  0  0  0999 V2000     
   22.5890   16.9240   25.4483 C   0  0  0  0  0  0  0  0  0  0  0  0
   22.5323   16.4677   24.4523 H   0  0  0  0  0  0  0  0  0  0  0  0
   23.0975   17.8924   25.3549 H   0  0  0  0  0  0  0  0  0  0  0  0
   23.2151   16.2748   26.0739 H   0  0  0  0  0  0  0  0  0  0  0  0
   21.1867   17.0913   26.0759 C   0  0  0  0  0  0  0  0  0  0  0  0
   21.3008   17.4411   27.1115 H   0  0  0  0  0  0  0  0  0  0  0  0
   20.6892   16.1131   26.1349 H   0  0  0  0  0  0  0  0  0  0  0  0
   20.2875   18.0909   25.3095 C   0  0  0  0  0  0  0  0  0  0  0  0
   19.3547   18.2253   25.8742 H   0  0  0  0  0  0  0  0  0  0  0  0
   20.7820   19.0706   25.2865 H   0  0  0  0  0  0  0  0  0  0  0  0
   19.9473   17.6293   23.8697 C   0  0  0  0  0  0  0  0  0  0  0  0
   19.5802   16.5943   23.9053 H   0  0  0  0  0  0  0  0  0  0  0  0
   20.8562   17.6144   23.2539 H   0  0  0  0  0  0  0  0  0  0  0  0
   18.8753   18.5046   23.1744 C   0  0  0  0  0  0  0  0  0  0  0  0
   18.6084   18.0189   22.2272 H   0  0  0  0  0  0  0  0  0  0  0  0
   17.9609   18.5196   23.7835 H   0  0  0  0  0  0  0  0  0  0  0  0
   19.3459   19.9568   22.9005 C   0  0  0  0  0  0  0  0  0  0  0  0
   20.2530   19.9422   22.2819 H   0  0  0  0  0  0  0  0  0  0  0  0
   19.6244   20.4271   23.8513 H   0  0  0  0  0  0  0  0  0  0  0  0
   18.2722   20.8428   22.2278 C   0  0  2  0  0  0  0  0  0  0  0  0
   17.3596   20.7931   22.8297 H   0  0  0  0  0  0  0  0  0  0  0  0
   17.9410   20.3746   20.7992 C   0  0  0  0  0  0  0  0  0  0  0  0
   18.8416   20.3420   20.1734 H   0  0  0  0  0  0  0  0  0  0  0  0
   17.4862   19.3775   20.8001 H   0  0  0  0  0  0  0  0  0  0  0  0
   17.2233   21.0563   20.3263 H   0  0  0  0  0  0  0  0  0  0  0  0
   18.6925   22.2863   22.2145 N   0  3  0  0  0  0  0  0  0  0  0  0
   18.8752   22.6348   23.1600 H   0  0  0  0  0  0  0  0  0  0  0  0
   17.9679   22.8829   21.8050 H   0  0  0  0  0  0  0  0  0  0  0  0
   19.5460   22.4222   21.6659 H   0  0  0  0  0  0  0  0  0  0  0  0
  1  2  1  0  0  0  0
  1  3  1  0  0  0  0
  1  4  1  0  0  0  0
  1  5  1  0  0  0  0
  5  6  1  0  0  0  0
  5  7  1  0  0  0  0
  5  8  1  0  0  0  0
  8  9  1  0  0  0  0
  8 10  1  0  0  0  0
  8 11  1  0  0  0  0
 11 12  1  0  0  0  0
 11 13  1  0  0  0  0
 11 14  1  0  0  0  0
 14 15  1  0  0  0  0
 14 16  1  0  0  0  0
 14 17  1  0  0  0  0
 17 18  1  0  0  0  0
 17 19  1  0  0  0  0
 17 20  1  0  0  0  0
 20 21  1  0  0  0  0
 20 22  1  0  0  0  0
 22 23  1  0  0  0  0
 22 24  1  0  0  0  0
 22 25  1  0  0  0  0
 20 26  1  0  0  0  0
 26 27  1  0  0  0  0
 26 28  1  0  0  0  0
 26 29  1  0  0  0  0
M  END
> <VConfSearch Rank>
170

> <Conf_Id>
135

> <Delta U+W>
1.581

> <U+W>
-26.245

> <U>
25.974

> <W>
-52.219

> <W(PB)>
-54.709

> <W(SA)>
2.490

> <Valence>
4.811

> <Coulomb>
19.700

> <VdW>
1.463

> <VdW6>
-9.391

> <VdW12>
10.854

> <Bond>
0.285

> <Angle>
1.671

> <Pdih>
2.855

> <Idih>
0.000

> <Tether>
0.000

$$$$
VeraChem MOL file


 29 28  0  0  0  0  0  0  0  0999 V2000     
   16.2933   20.3392   21.7486 C   0  0  0  0  0  0  0  0  0  0  0  0
   17.0272   20.5881   20.9711 H   0  0  0  0  0  0  0  0  0  0  0  0
   16.1585   19.2505   21.7587 H   0  0  0  0  0  0  0  0  0  0  0  0
   15.3338   20.7882   21.4610 H   0  0  0  0  0  0  0  0  0  0  0  0
   16.7456   20.8673   23.1288 C   0  0  0  0  0  0  0  0  0  0  0  0
   16.0087   20.5830   23.8929 H   0  0  0  0  0  0  0  0  0  0  0  0
   16.7536   21.9660   23.1030 H   0  0  0  0  0  0  0  0  0  0  0  0
   18.1506   20.3696   23.5453 C   0  0  0  0  0  0  0  0  0  0  0  0
   18.8816   20.6852   22.7893 H   0  0  0  0  0  0  0  0  0  0  0  0
   18.4349   20.8695   24.4815 H   0  0  0  0  0  0  0  0  0  0  0  0
   18.2226   18.8351   23.7479 C   0  0  0  0  0  0  0  0  0  0  0  0
   18.0572   18.3208   22.7920 H   0  0  0  0  0  0  0  0  0  0  0  0
   17.4062   18.5225   24.4135 H   0  0  0  0  0  0  0  0  0  0  0  0
   19.5639   18.3588   24.3571 C   0  0  0  0  0  0  0  0  0  0  0  0
   19.7070   18.8438   25.3317 H   0  0  0  0  0  0  0  0  0  0  0  0
   19.4948   17.2799   24.5534 H   0  0  0  0  0  0  0  0  0  0  0  0
   20.7846   18.6288   23.4401 C   0  0  0  0  0  0  0  0  0  0  0  0
   20.9504   19.7091   23.3418 H   0  0  0  0  0  0  0  0  0  0  0  0
   20.5560   18.2539   22.4337 H   0  0  0  0  0  0  0  0  0  0  0  0
   22.0868   17.9555   23.9298 C   0  0  2  0  0  0  0  0  0  0  0  0
   21.8934   16.8858   24.0565 H   0  0  0  0  0  0  0  0  0  0  0  0
   22.5628   18.5277   25.2771 C   0  0  0  0  0  0  0  0  0  0  0  0
   22.7138   19.6126   25.2162 H   0  0  0  0  0  0  0  0  0  0  0  0
   21.8381   18.3255   26.0743 H   0  0  0  0  0  0  0  0  0  0  0  0
   23.5124   18.0683   25.5780 H   0  0  0  0  0  0  0  0  0  0  0  0
   23.1772   18.0704   22.9011 N   0  3  0  0  0  0  0  0  0  0  0  0
   24.0297   17.5912   23.2050 H   0  0  0  0  0  0  0  0  0  0  0  0
   23.4229   19.0481   22.7241 H   0  0  0  0  0  0  0  0  0  0  0  0
   22.8973   17.6563   22.0072 H   0  0  0  0  0  0  0  0  0  0  0  0
  1  2  1  0  0  0  0
  1  3  1  0  0  0  0
  1  4  1  0  0  0  0
  1  5  1  0  0  0  0
  5  6  1  0  0  0  0
  5  7  1  0  0  0  0
  5  8  1  0  0  0  0
  8  9  1  0  0  0  0
  8 10  1  0  0  0  0
  8 11  1  0  0  0  0
 11 12  1  0  0  0  0
 11 13  1  0  0  0  0
 11 14  1  0  0  0  0
 14 15  1  0  0  0  0
 14 16  1  0  0  0  0
 14 17  1  0  0  0  0
 17 18  1  0  0  0  0
 17 19  1  0  0  0  0
 17 20  1  0  0  0  0
 20 21  1  0  0  0  0
 20 22  1  0  0  0  0
 22 23  1  0  0  0  0
 22 24  1  0  0  0  0
 22 25  1  0  0  0  0
 20 26  1  0  0  0  0
 26 27  1  0  0  0  0
 26 28  1  0  0  0  0
 26 29  1  0  0  0  0
M  END
> <VConfSearch Rank>
171

> <Conf_Id>
130

> <Delta U+W>
1.359

> <U+W>
-26.467

> <U>
25.687

> <W>
-52.154

> <W(PB)>
-54.643

> <W(SA)>
2.489

> <Valence>
4.682

> <Coulomb>
19.653

> <VdW>
1.352

> <VdW6>
-9.477

> <VdW12>
10.829

> <Bond>
0.274

> <Angle>
1.550

> <Pdih>
2.858

> <Idih>
0.000

> <Tether>
0.000

$$$$
VeraChem MOL file


 29 28  0  0  0  0  0  0  0  0999 V2000     
   15.9044   20.1771   22.8746 C   0  0  0  0  0  0  0  0  0  0  0  0
   14.8677   20.0503   23.2125 H   0  0  0  0  0  0  0  0  0  0  0  0
   15.9696   21.1359   22.3441 H   0  0  0  0  0  0  0  0  0  0  0  0
   16.1184   19.3728   22.1600 H   0  0  0  0  0  0  0  0  0  0  0  0
   16.8733   20.1409   24.0781 C   0  0  0  0  0  0  0  0  0  0  0  0
   16.8136   19.1607   24.5714 H   0  0  0  0  0  0  0  0  0  0  0  0
   16.5415   20.8795   24.8211 H   0  0  0  0  0  0  0  0  0  0  0  0
   18.3422   20.4462   23.6972 C   0  0  0  0  0  0  0  0  0  0  0  0
   18.3981   21.4348   23.2213 H   0  0  0  0  0  0  0  0  0  0  0  0
   18.9270   20.5187   24.6228 H   0  0  0  0  0  0  0  0  0  0  0  0
   18.9695   19.3814   22.7613 C   0  0  0  0  0  0  0  0  0  0  0  0
   18.4162   19.3677   21.8134 H   0  0  0  0  0  0  0  0  0  0  0  0
   18.8484   18.3849   23.2029 H   0  0  0  0  0  0  0  0  0  0  0  0
   20.4619   19.6562   22.4408 C   0  0  0  0  0  0  0  0  0  0  0  0
   20.7644   19.0658   21.5649 H   0  0  0  0  0  0  0  0  0  0  0  0
   20.5618   20.7063   22.1333 H   0  0  0  0  0  0  0  0  0  0  0  0
   21.4420   19.3775   23.6140 C   0  0  0  0  0  0  0  0  0  0  0  0
   20.9409   19.4994   24.5817 H   0  0  0  0  0  0  0  0  0  0  0  0
   22.2250   20.1466   23.5845 H   0  0  0  0  0  0  0  0  0  0  0  0
   22.1410   17.9982   23.5563 C   0  0  2  0  0  0  0  0  0  0  0  0
   22.6650   17.9215   22.5986 H   0  0  0  0  0  0  0  0  0  0  0  0
   21.1510   16.8257   23.6577 C   0  0  0  0  0  0  0  0  0  0  0  0
   20.4880   16.7941   22.7855 H   0  0  0  0  0  0  0  0  0  0  0  0
   21.6863   15.8688   23.6909 H   0  0  0  0  0  0  0  0  0  0  0  0
   20.5345   16.9030   24.5619 H   0  0  0  0  0  0  0  0  0  0  0  0
   23.1939   17.8822   24.6234 N   0  3  0  0  0  0  0  0  0  0  0  0
   23.8925   18.6270   24.5465 H   0  0  0  0  0  0  0  0  0  0  0  0
   23.6922   16.9897   24.5613 H   0  0  0  0  0  0  0  0  0  0  0  0
   22.7847   17.9391   25.5599 H   0  0  0  0  0  0  0  0  0  0  0  0
  1  2  1  0  0  0  0
  1  3  1  0  0  0  0
  1  4  1  0  0  0  0
  1  5  1  0  0  0  0
  5  6  1  0  0  0  0
  5  7  1  0  0  0  0
  5  8  1  0  0  0  0
  8  9  1  0  0  0  0
  8 10  1  0  0  0  0
  8 11  1  0  0  0  0
 11 12  1  0  0  0  0
 11 13  1  0  0  0  0
 11 14  1  0  0  0  0
 14 15  1  0  0  0  0
 14 16  1  0  0  0  0
 14 17  1  0  0  0  0
 17 18  1  0  0  0  0
 17 19  1  0  0  0  0
 17 20  1  0  0  0  0
 20 21  1  0  0  0  0
 20 22  1  0  0  0  0
 22 23  1  0  0  0  0
 22 24  1  0  0  0  0
 22 25  1  0  0  0  0
 20 26  1  0  0  0  0
 26 27  1  0  0  0  0
 26 28  1  0  0  0  0
 26 29  1  0  0  0  0
M  END
> <VConfSearch Rank>
172

> <Conf_Id>
157

> <Delta U+W>
4.354

> <U+W>
-23.472

> <U>
28.780

> <W>
-52.252

> <W(PB)>
-54.715

> <W(SA)>
2.462

> <Valence>
7.566

> <Coulomb>
19.822

> <VdW>
1.392

> <VdW6>
-10.248

> <VdW12>
11.641

> <Bond>
0.340

> <Angle>
2.096

> <Pdih>
5.129

> <Idih>
0.000

> <Tether>
0.000

$$$$
VeraChem MOL file


 29 28  0  0  0  0  0  0  0  0999 V2000     
   20.7048   15.7613   24.7302 C   0  0  0  0  0  0  0  0  0  0  0  0
   21.4033   15.2311   25.3905 H   0  0  0  0  0  0  0  0  0  0  0  0
   20.2195   16.5458   25.3212 H   0  0  0  0  0  0  0  0  0  0  0  0
   19.9321   15.0460   24.4200 H   0  0  0  0  0  0  0  0  0  0  0  0
   21.4504   16.3341   23.5023 C   0  0  0  0  0  0  0  0  0  0  0  0
   21.9236   15.4956   22.9724 H   0  0  0  0  0  0  0  0  0  0  0  0
   22.2714   16.9893   23.8248 H   0  0  0  0  0  0  0  0  0  0  0  0
   20.5200   17.0820   22.5130 C   0  0  0  0  0  0  0  0  0  0  0  0
   20.8736   16.8796   21.4925 H   0  0  0  0  0  0  0  0  0  0  0  0
   19.5034   16.6681   22.5605 H   0  0  0  0  0  0  0  0  0  0  0  0
   20.4775   18.6214   22.6940 C   0  0  0  0  0  0  0  0  0  0  0  0
   19.8496   19.0347   21.8942 H   0  0  0  0  0  0  0  0  0  0  0  0
   21.4836   19.0340   22.5368 H   0  0  0  0  0  0  0  0  0  0  0  0
   19.9417   19.0861   24.0706 C   0  0  0  0  0  0  0  0  0  0  0  0
   18.9730   18.6111   24.2747 H   0  0  0  0  0  0  0  0  0  0  0  0
   20.6264   18.7434   24.8568 H   0  0  0  0  0  0  0  0  0  0  0  0
   19.8161   20.6268   24.1914 C   0  0  0  0  0  0  0  0  0  0  0  0
   20.8114   21.0733   24.0652 H   0  0  0  0  0  0  0  0  0  0  0  0
   19.4948   20.8787   25.2108 H   0  0  0  0  0  0  0  0  0  0  0  0
   18.8430   21.2707   23.1782 C   0  0  2  0  0  0  0  0  0  0  0  0
   19.1923   21.0390   22.1679 H   0  0  0  0  0  0  0  0  0  0  0  0
   18.8352   22.7988   23.3419 C   0  0  0  0  0  0  0  0  0  0  0  0
   18.4845   23.0897   24.3400 H   0  0  0  0  0  0  0  0  0  0  0  0
   19.8420   23.2108   23.1998 H   0  0  0  0  0  0  0  0  0  0  0  0
   18.1767   23.2654   22.5988 H   0  0  0  0  0  0  0  0  0  0  0  0
   17.4487   20.7186   23.2914 N   0  3  0  0  0  0  0  0  0  0  0  0
   17.4385   19.7054   23.1453 H   0  0  0  0  0  0  0  0  0  0  0  0
   16.8225   21.1366   22.5974 H   0  0  0  0  0  0  0  0  0  0  0  0
   17.0494   20.9019   24.2158 H   0  0  0  0  0  0  0  0  0  0  0  0
  1  2  1  0  0  0  0
  1  3  1  0  0  0  0
  1  4  1  0  0  0  0
  1  5  1  0  0  0  0
  5  6  1  0  0  0  0
  5  7  1  0  0  0  0
  5  8  1  0  0  0  0
  8  9  1  0  0  0  0
  8 10  1  0  0  0  0
  8 11  1  0  0  0  0
 11 12  1  0  0  0  0
 11 13  1  0  0  0  0
 11 14  1  0  0  0  0
 14 15  1  0  0  0  0
 14 16  1  0  0  0  0
 14 17  1  0  0  0  0
 17 18  1  0  0  0  0
 17 19  1  0  0  0  0
 17 20  1  0  0  0  0
 20 21  1  0  0  0  0
 20 22  1  0  0  0  0
 22 23  1  0  0  0  0
 22 24  1  0  0  0  0
 22 25  1  0  0  0  0
 20 26  1  0  0  0  0
 26 27  1  0  0  0  0
 26 28  1  0  0  0  0
 26 29  1  0  0  0  0
M  END
> <VConfSearch Rank>
173

> <Conf_Id>
158

> <Delta U+W>
3.648

> <U+W>
-24.178

> <U>
28.057

> <W>
-52.235

> <W(PB)>
-54.696

> <W(SA)>
2.460

> <Valence>
6.543

> <Coulomb>
20.387

> <VdW>
1.127

> <VdW6>
-10.342

> <VdW12>
11.469

> <Bond>
0.308

> <Angle>
1.938

> <Pdih>
4.297

> <Idih>
0.000

> <Tether>
0.000

$$$$
VeraChem MOL file


 29 28  0  0  0  0  0  0  0  0999 V2000     
   19.8513   15.4012   24.3042 C   0  0  0  0  0  0  0  0  0  0  0  0
   19.4890   15.2076   23.2863 H   0  0  0  0  0  0  0  0  0  0  0  0
   20.7728   15.9924   24.2353 H   0  0  0  0  0  0  0  0  0  0  0  0
   20.1122   14.4359   24.7570 H   0  0  0  0  0  0  0  0  0  0  0  0
   18.7760   16.1214   25.1492 C   0  0  0  0  0  0  0  0  0  0  0  0
   19.1737   16.3326   26.1517 H   0  0  0  0  0  0  0  0  0  0  0  0
   17.9250   15.4410   25.2931 H   0  0  0  0  0  0  0  0  0  0  0  0
   18.2610   17.4304   24.5037 C   0  0  0  0  0  0  0  0  0  0  0  0
   17.8483   17.2108   23.5094 H   0  0  0  0  0  0  0  0  0  0  0  0
   17.4262   17.8122   25.1075 H   0  0  0  0  0  0  0  0  0  0  0  0
   19.3447   18.5286   24.3878 C   0  0  0  0  0  0  0  0  0  0  0  0
   20.1578   18.1777   23.7428 H   0  0  0  0  0  0  0  0  0  0  0  0
   19.7855   18.7110   25.3775 H   0  0  0  0  0  0  0  0  0  0  0  0
   18.7608   19.8520   23.8350 C   0  0  0  0  0  0  0  0  0  0  0  0
   18.2480   19.6765   22.8792 H   0  0  0  0  0  0  0  0  0  0  0  0
   17.9880   20.2026   24.5331 H   0  0  0  0  0  0  0  0  0  0  0  0
   19.8215   20.9729   23.6724 C   0  0  0  0  0  0  0  0  0  0  0  0
   20.6418   20.8283   24.3880 H   0  0  0  0  0  0  0  0  0  0  0  0
   19.3481   21.9243   23.9492 H   0  0  0  0  0  0  0  0  0  0  0  0
   20.3840   21.1334   22.2394 C   0  0  2  0  0  0  0  0  0  0  0  0
   19.5445   21.3248   21.5640 H   0  0  0  0  0  0  0  0  0  0  0  0
   21.1222   19.8791   21.7423 C   0  0  0  0  0  0  0  0  0  0  0  0
   21.9192   19.5852   22.4365 H   0  0  0  0  0  0  0  0  0  0  0  0
   20.4311   19.0362   21.6264 H   0  0  0  0  0  0  0  0  0  0  0  0
   21.5757   20.0608   20.7601 H   0  0  0  0  0  0  0  0  0  0  0  0
   21.2825   22.3352   22.1457 N   0  3  0  0  0  0  0  0  0  0  0  0
   20.7968   23.1922   22.4260 H   0  0  0  0  0  0  0  0  0  0  0  0
   21.6204   22.4758   21.1893 H   0  0  0  0  0  0  0  0  0  0  0  0
   22.1038   22.2357   22.7484 H   0  0  0  0  0  0  0  0  0  0  0  0
  1  2  1  0  0  0  0
  1  3  1  0  0  0  0
  1  4  1  0  0  0  0
  1  5  1  0  0  0  0
  5  6  1  0  0  0  0
  5  7  1  0  0  0  0
  5  8  1  0  0  0  0
  8  9  1  0  0  0  0
  8 10  1  0  0  0  0
  8 11  1  0  0  0  0
 11 12  1  0  0  0  0
 11 13  1  0  0  0  0
 11 14  1  0  0  0  0
 14 15  1  0  0  0  0
 14 16  1  0  0  0  0
 14 17  1  0  0  0  0
 17 18  1  0  0  0  0
 17 19  1  0  0  0  0
 17 20  1  0  0  0  0
 20 21  1  0  0  0  0
 20 22  1  0  0  0  0
 22 23  1  0  0  0  0
 22 24  1  0  0  0  0
 22 25  1  0  0  0  0
 20 26  1  0  0  0  0
 26 27  1  0  0  0  0
 26 28  1  0  0  0  0
 26 29  1  0  0  0  0
M  END
> <VConfSearch Rank>
174

> <Conf_Id>
156

> <Delta U+W>
3.393

> <U+W>
-24.433

> <U>
27.713

> <W>
-52.146

> <W(PB)>
-54.603

> <W(SA)>
2.458

> <Valence>
6.758

> <Coulomb>
19.720

> <VdW>
1.235

> <VdW6>
-9.782

> <VdW12>
11.017

> <Bond>
0.287

> <Angle>
1.880

> <Pdih>
4.591

> <Idih>
0.000

> <Tether>
0.000

$$$$
VeraChem MOL file


 29 28  0  0  0  0  0  0  0  0999 V2000     
   16.0428   18.8039   24.6854 C   0  0  0  0  0  0  0  0  0  0  0  0
   16.1699   19.7946   25.1408 H   0  0  0  0  0  0  0  0  0  0  0  0
   15.1597   18.8375   24.0339 H   0  0  0  0  0  0  0  0  0  0  0  0
   15.8400   18.0860   25.4907 H   0  0  0  0  0  0  0  0  0  0  0  0
   17.3017   18.3925   23.8931 C   0  0  0  0  0  0  0  0  0  0  0  0
   17.1570   17.3868   23.4745 H   0  0  0  0  0  0  0  0  0  0  0  0
   18.1527   18.3314   24.5842 H   0  0  0  0  0  0  0  0  0  0  0  0
   17.6106   19.3925   22.7543 C   0  0  0  0  0  0  0  0  0  0  0  0
   16.7196   19.4963   22.1199 H   0  0  0  0  0  0  0  0  0  0  0  0
   17.7961   20.3894   23.1753 H   0  0  0  0  0  0  0  0  0  0  0  0
   18.7998   18.9643   21.8558 C   0  0  0  0  0  0  0  0  0  0  0  0
   18.9319   19.7152   21.0646 H   0  0  0  0  0  0  0  0  0  0  0  0
   18.5360   18.0302   21.3409 H   0  0  0  0  0  0  0  0  0  0  0  0
   20.1519   18.7622   22.5879 C   0  0  0  0  0  0  0  0  0  0  0  0
   20.0659   17.9299   23.2975 H   0  0  0  0  0  0  0  0  0  0  0  0
   20.8921   18.4482   21.8410 H   0  0  0  0  0  0  0  0  0  0  0  0
   20.6564   20.0386   23.3150 C   0  0  0  0  0  0  0  0  0  0  0  0
   19.9300   20.3356   24.0814 H   0  0  0  0  0  0  0  0  0  0  0  0
   20.7010   20.8706   22.6000 H   0  0  0  0  0  0  0  0  0  0  0  0
   22.0361   19.8951   23.9999 C   0  0  2  0  0  0  0  0  0  0  0  0
   22.2428   20.8392   24.5134 H   0  0  0  0  0  0  0  0  0  0  0  0
   23.1683   19.6633   22.9840 C   0  0  0  0  0  0  0  0  0  0  0  0
   24.1446   19.7094   23.4819 H   0  0  0  0  0  0  0  0  0  0  0  0
   23.0864   18.6830   22.5001 H   0  0  0  0  0  0  0  0  0  0  0  0
   23.1565   20.4347   22.2040 H   0  0  0  0  0  0  0  0  0  0  0  0
   22.0406   18.8323   25.0638 N   0  3  0  0  0  0  0  0  0  0  0  0
   21.3205   19.0059   25.7708 H   0  0  0  0  0  0  0  0  0  0  0  0
   22.9421   18.7922   25.5480 H   0  0  0  0  0  0  0  0  0  0  0  0
   21.8653   17.9072   24.6640 H   0  0  0  0  0  0  0  0  0  0  0  0
  1  2  1  0  0  0  0
  1  3  1  0  0  0  0
  1  4  1  0  0  0  0
  1  5  1  0  0  0  0
  5  6  1  0  0  0  0
  5  7  1  0  0  0  0
  5  8  1  0  0  0  0
  8  9  1  0  0  0  0
  8 10  1  0  0  0  0
  8 11  1  0  0  0  0
 11 12  1  0  0  0  0
 11 13  1  0  0  0  0
 11 14  1  0  0  0  0
 14 15  1  0  0  0  0
 14 16  1  0  0  0  0
 14 17  1  0  0  0  0
 17 18  1  0  0  0  0
 17 19  1  0  0  0  0
 17 20  1  0  0  0  0
 20 21  1  0  0  0  0
 20 22  1  0  0  0  0
 22 23  1  0  0  0  0
 22 24  1  0  0  0  0
 22 25  1  0  0  0  0
 20 26  1  0  0  0  0
 26 27  1  0  0  0  0
 26 28  1  0  0  0  0
 26 29  1  0  0  0  0
M  END
> <VConfSearch Rank>
175

> <Conf_Id>
78

> <Delta U+W>
1.477

> <U+W>
-26.349

> <U>
26.385

> <W>
-52.734

> <W(PB)>
-55.179

> <W(SA)>
2.445

> <Valence>
4.726

> <Coulomb>
20.482

> <VdW>
1.177

> <VdW6>
-10.349

> <VdW12>
11.526

> <Bond>
0.319

> <Angle>
1.933

> <Pdih>
2.474

> <Idih>
0.000

> <Tether>
0.000

$$$$
VeraChem MOL file


 29 28  0  0  0  0  0  0  0  0999 V2000     
   22.2084   20.2932   26.0855 C   0  0  0  0  0  0  0  0  0  0  0  0
   22.6057   19.4353   26.6434 H   0  0  0  0  0  0  0  0  0  0  0  0
   22.4191   20.1302   25.0228 H   0  0  0  0  0  0  0  0  0  0  0  0
   22.7661   21.1837   26.4028 H   0  0  0  0  0  0  0  0  0  0  0  0
   20.6971   20.4756   26.3583 C   0  0  0  0  0  0  0  0  0  0  0  0
   20.3249   21.3809   25.8587 H   0  0  0  0  0  0  0  0  0  0  0  0
   20.5663   20.6498   27.4355 H   0  0  0  0  0  0  0  0  0  0  0  0
   19.8468   19.2454   25.9494 C   0  0  0  0  0  0  0  0  0  0  0  0
   20.4471   18.3279   26.0198 H   0  0  0  0  0  0  0  0  0  0  0  0
   19.0403   19.1277   26.6863 H   0  0  0  0  0  0  0  0  0  0  0  0
   19.1876   19.3439   24.5495 C   0  0  0  0  0  0  0  0  0  0  0  0
   18.5057   20.2051   24.5276 H   0  0  0  0  0  0  0  0  0  0  0  0
   18.5610   18.4532   24.4122 H   0  0  0  0  0  0  0  0  0  0  0  0
   20.1944   19.4557   23.3782 C   0  0  0  0  0  0  0  0  0  0  0  0
   20.7597   20.3909   23.4780 H   0  0  0  0  0  0  0  0  0  0  0  0
   20.9303   18.6432   23.4381 H   0  0  0  0  0  0  0  0  0  0  0  0
   19.5155   19.4610   21.9838 C   0  0  0  0  0  0  0  0  0  0  0  0
   20.2883   19.5835   21.2134 H   0  0  0  0  0  0  0  0  0  0  0  0
   18.8737   20.3491   21.9143 H   0  0  0  0  0  0  0  0  0  0  0  0
   18.6670   18.2094   21.6562 C   0  0  2  0  0  0  0  0  0  0  0  0
   17.8896   18.1084   22.4191 H   0  0  0  0  0  0  0  0  0  0  0  0
   19.5112   16.9227   21.6480 C   0  0  0  0  0  0  0  0  0  0  0  0
   18.8975   16.0594   21.3626 H   0  0  0  0  0  0  0  0  0  0  0  0
   20.3436   16.9989   20.9373 H   0  0  0  0  0  0  0  0  0  0  0  0
   19.9247   16.7125   22.6413 H   0  0  0  0  0  0  0  0  0  0  0  0
   17.9497   18.3705   20.3448 N   0  3  0  0  0  0  0  0  0  0  0  0
   18.6088   18.4675   19.5677 H   0  0  0  0  0  0  0  0  0  0  0  0
   17.3481   19.1993   20.3434 H   0  0  0  0  0  0  0  0  0  0  0  0
   17.3550   17.5619   20.1419 H   0  0  0  0  0  0  0  0  0  0  0  0
  1  2  1  0  0  0  0
  1  3  1  0  0  0  0
  1  4  1  0  0  0  0
  1  5  1  0  0  0  0
  5  6  1  0  0  0  0
  5  7  1  0  0  0  0
  5  8  1  0  0  0  0
  8  9  1  0  0  0  0
  8 10  1  0  0  0  0
  8 11  1  0  0  0  0
 11 12  1  0  0  0  0
 11 13  1  0  0  0  0
 11 14  1  0  0  0  0
 14 15  1  0  0  0  0
 14 16  1  0  0  0  0
 14 17  1  0  0  0  0
 17 18  1  0  0  0  0
 17 19  1  0  0  0  0
 17 20  1  0  0  0  0
 20 21  1  0  0  0  0
 20 22  1  0  0  0  0
 22 23  1  0  0  0  0
 22 24  1  0  0  0  0
 22 25  1  0  0  0  0
 20 26  1  0  0  0  0
 26 27  1  0  0  0  0
 26 28  1  0  0  0  0
 26 29  1  0  0  0  0
M  END
> <VConfSearch Rank>
176

> <Conf_Id>
145

> <Delta U+W>
3.784

> <U+W>
-24.042

> <U>
28.220

> <W>
-52.262

> <W(PB)>
-54.724

> <W(SA)>
2.462

> <Valence>
7.040

> <Coulomb>
19.984

> <VdW>
1.197

> <VdW6>
-10.566

> <VdW12>
11.763

> <Bond>
0.320

> <Angle>
2.280

> <Pdih>
4.439

> <Idih>
0.000

> <Tether>
0.000

$$$$
VeraChem MOL file


 29 28  0  0  0  0  0  0  0  0999 V2000     
   16.7600   20.8981   21.6957 C   0  0  0  0  0  0  0  0  0  0  0  0
   15.9526   21.4361   22.2093 H   0  0  0  0  0  0  0  0  0  0  0  0
   17.5533   21.6185   21.4571 H   0  0  0  0  0  0  0  0  0  0  0  0
   16.3592   20.5123   20.7494 H   0  0  0  0  0  0  0  0  0  0  0  0
   17.3018   19.7461   22.5680 C   0  0  0  0  0  0  0  0  0  0  0  0
   18.0742   19.2044   22.0090 H   0  0  0  0  0  0  0  0  0  0  0  0
   16.4936   19.0265   22.7597 H   0  0  0  0  0  0  0  0  0  0  0  0
   17.8619   20.2653   23.9142 C   0  0  0  0  0  0  0  0  0  0  0  0
   18.6244   21.0370   23.7408 H   0  0  0  0  0  0  0  0  0  0  0  0
   17.0447   20.7637   24.4539 H   0  0  0  0  0  0  0  0  0  0  0  0
   18.4342   19.1422   24.8180 C   0  0  0  0  0  0  0  0  0  0  0  0
   17.9296   18.1890   24.6083 H   0  0  0  0  0  0  0  0  0  0  0  0
   18.1865   19.3837   25.8609 H   0  0  0  0  0  0  0  0  0  0  0  0
   19.9719   18.9611   24.7342 C   0  0  0  0  0  0  0  0  0  0  0  0
   20.4590   19.8924   25.0524 H   0  0  0  0  0  0  0  0  0  0  0  0
   20.2583   18.1976   25.4685 H   0  0  0  0  0  0  0  0  0  0  0  0
   20.4870   18.5526   23.3283 C   0  0  0  0  0  0  0  0  0  0  0  0
   20.2759   19.3610   22.6178 H   0  0  0  0  0  0  0  0  0  0  0  0
   19.9286   17.6760   22.9747 H   0  0  0  0  0  0  0  0  0  0  0  0
   22.0010   18.2434   23.2535 C   0  0  2  0  0  0  0  0  0  0  0  0
   22.2400   18.0466   22.2037 H   0  0  0  0  0  0  0  0  0  0  0  0
   22.3783   16.9861   24.0564 C   0  0  0  0  0  0  0  0  0  0  0  0
   23.4233   16.7112   23.8682 H   0  0  0  0  0  0  0  0  0  0  0  0
   22.2636   17.1420   25.1355 H   0  0  0  0  0  0  0  0  0  0  0  0
   21.7528   16.1337   23.7633 H   0  0  0  0  0  0  0  0  0  0  0  0
   22.8478   19.4176   23.6608 N   0  3  0  0  0  0  0  0  0  0  0  0
   22.6929   19.6631   24.6418 H   0  0  0  0  0  0  0  0  0  0  0  0
   22.6363   20.2462   23.0976 H   0  0  0  0  0  0  0  0  0  0  0  0
   23.8455   19.2164   23.5478 H   0  0  0  0  0  0  0  0  0  0  0  0
  1  2  1  0  0  0  0
  1  3  1  0  0  0  0
  1  4  1  0  0  0  0
  1  5  1  0  0  0  0
  5  6  1  0  0  0  0
  5  7  1  0  0  0  0
  5  8  1  0  0  0  0
  8  9  1  0  0  0  0
  8 10  1  0  0  0  0
  8 11  1  0  0  0  0
 11 12  1  0  0  0  0
 11 13  1  0  0  0  0
 11 14  1  0  0  0  0
 14 15  1  0  0  0  0
 14 16  1  0  0  0  0
 14 17  1  0  0  0  0
 17 18  1  0  0  0  0
 17 19  1  0  0  0  0
 17 20  1  0  0  0  0
 20 21  1  0  0  0  0
 20 22  1  0  0  0  0
 22 23  1  0  0  0  0
 22 24  1  0  0  0  0
 22 25  1  0  0  0  0
 20 26  1  0  0  0  0
 26 27  1  0  0  0  0
 26 28  1  0  0  0  0
 26 29  1  0  0  0  0
M  END
> <VConfSearch Rank>
177

> <Conf_Id>
71

> <Delta U+W>
3.542

> <U+W>
-24.284

> <U>
28.217

> <W>
-52.501

> <W(PB)>
-54.947

> <W(SA)>
2.446

> <Valence>
6.821

> <Coulomb>
20.147

> <VdW>
1.249

> <VdW6>
-10.237

> <VdW12>
11.486

> <Bond>
0.317

> <Angle>
1.990

> <Pdih>
4.515

> <Idih>
0.000

> <Tether>
0.000

$$$$
VeraChem MOL file


 29 28  0  0  0  0  0  0  0  0999 V2000     
   19.1225   21.2309   26.7875 C   0  0  0  0  0  0  0  0  0  0  0  0
   18.6007   20.3058   27.0651 H   0  0  0  0  0  0  0  0  0  0  0  0
   19.8692   21.4482   27.5624 H   0  0  0  0  0  0  0  0  0  0  0  0
   18.3874   22.0462   26.7898 H   0  0  0  0  0  0  0  0  0  0  0  0
   19.7849   21.0984   25.4000 C   0  0  0  0  0  0  0  0  0  0  0  0
   20.2682   22.0498   25.1375 H   0  0  0  0  0  0  0  0  0  0  0  0
   19.0075   20.9258   24.6462 H   0  0  0  0  0  0  0  0  0  0  0  0
   20.8343   19.9610   25.3760 C   0  0  0  0  0  0  0  0  0  0  0  0
   21.6061   20.1939   26.1226 H   0  0  0  0  0  0  0  0  0  0  0  0
   20.3801   19.0132   25.6960 H   0  0  0  0  0  0  0  0  0  0  0  0
   21.5232   19.7841   23.9976 C   0  0  0  0  0  0  0  0  0  0  0  0
   22.5740   19.5149   24.1735 H   0  0  0  0  0  0  0  0  0  0  0  0
   21.5503   20.7411   23.4585 H   0  0  0  0  0  0  0  0  0  0  0  0
   20.9045   18.6820   23.0996 C   0  0  0  0  0  0  0  0  0  0  0  0
   21.5226   18.5952   22.1966 H   0  0  0  0  0  0  0  0  0  0  0  0
   20.9804   17.7171   23.6183 H   0  0  0  0  0  0  0  0  0  0  0  0
   19.4299   18.9468   22.6952 C   0  0  0  0  0  0  0  0  0  0  0  0
   19.3388   19.9683   22.3036 H   0  0  0  0  0  0  0  0  0  0  0  0
   18.7939   18.8990   23.5878 H   0  0  0  0  0  0  0  0  0  0  0  0
   18.8584   17.9657   21.6446 C   0  0  2  0  0  0  0  0  0  0  0  0
   17.8229   18.2629   21.4517 H   0  0  0  0  0  0  0  0  0  0  0  0
   18.8391   16.5158   22.1589 C   0  0  0  0  0  0  0  0  0  0  0  0
   18.3186   16.4510   23.1225 H   0  0  0  0  0  0  0  0  0  0  0  0
   18.3114   15.8646   21.4513 H   0  0  0  0  0  0  0  0  0  0  0  0
   19.8529   16.1184   22.2881 H   0  0  0  0  0  0  0  0  0  0  0  0
   19.5703   18.0593   20.3231 N   0  3  0  0  0  0  0  0  0  0  0  0
   19.5505   19.0138   19.9527 H   0  0  0  0  0  0  0  0  0  0  0  0
   19.1393   17.4498   19.6221 H   0  0  0  0  0  0  0  0  0  0  0  0
   20.5513   17.7822   20.4092 H   0  0  0  0  0  0  0  0  0  0  0  0
  1  2  1  0  0  0  0
  1  3  1  0  0  0  0
  1  4  1  0  0  0  0
  1  5  1  0  0  0  0
  5  6  1  0  0  0  0
  5  7  1  0  0  0  0
  5  8  1  0  0  0  0
  8  9  1  0  0  0  0
  8 10  1  0  0  0  0
  8 11  1  0  0  0  0
 11 12  1  0  0  0  0
 11 13  1  0  0  0  0
 11 14  1  0  0  0  0
 14 15  1  0  0  0  0
 14 16  1  0  0  0  0
 14 17  1  0  0  0  0
 17 18  1  0  0  0  0
 17 19  1  0  0  0  0
 17 20  1  0  0  0  0
 20 21  1  0  0  0  0
 20 22  1  0  0  0  0
 22 23  1  0  0  0  0
 22 24  1  0  0  0  0
 22 25  1  0  0  0  0
 20 26  1  0  0  0  0
 26 27  1  0  0  0  0
 26 28  1  0  0  0  0
 26 29  1  0  0  0  0
M  END
> <VConfSearch Rank>
178

> <Conf_Id>
163

> <Delta U+W>
3.309

> <U+W>
-24.517

> <U>
27.916

> <W>
-52.433

> <W(PB)>
-54.866

> <W(SA)>
2.433

> <Valence>
6.693

> <Coulomb>
20.015

> <VdW>
1.208

> <VdW6>
-10.294

> <VdW12>
11.503

> <Bond>
0.312

> <Angle>
1.939

> <Pdih>
4.441

> <Idih>
0.000

> <Tether>
0.000

$$$$
VeraChem MOL file


 29 28  0  0  0  0  0  0  0  0999 V2000     
   18.7889   20.9895   20.1287 C   0  0  0  0  0  0  0  0  0  0  0  0
   19.7061   21.5180   19.8381 H   0  0  0  0  0  0  0  0  0  0  0  0
   18.8719   19.9474   19.7967 H   0  0  0  0  0  0  0  0  0  0  0  0
   17.9524   21.4434   19.5818 H   0  0  0  0  0  0  0  0  0  0  0  0
   18.5522   21.0842   21.6531 C   0  0  0  0  0  0  0  0  0  0  0  0
   17.6495   20.5189   21.9235 H   0  0  0  0  0  0  0  0  0  0  0  0
   18.3479   22.1322   21.9134 H   0  0  0  0  0  0  0  0  0  0  0  0
   19.7521   20.5898   22.4967 C   0  0  0  0  0  0  0  0  0  0  0  0
   20.6511   21.1604   22.2260 H   0  0  0  0  0  0  0  0  0  0  0  0
   19.5431   20.8206   23.5492 H   0  0  0  0  0  0  0  0  0  0  0  0
   20.0296   19.0728   22.3440 C   0  0  0  0  0  0  0  0  0  0  0  0
   20.2372   18.8444   21.2907 H   0  0  0  0  0  0  0  0  0  0  0  0
   19.1274   18.5043   22.6052 H   0  0  0  0  0  0  0  0  0  0  0  0
   21.2352   18.5763   23.1839 C   0  0  0  0  0  0  0  0  0  0  0  0
   21.3978   17.5106   22.9739 H   0  0  0  0  0  0  0  0  0  0  0  0
   22.1450   19.0871   22.8396 H   0  0  0  0  0  0  0  0  0  0  0  0
   21.0982   18.7816   24.7164 C   0  0  0  0  0  0  0  0  0  0  0  0
   21.1374   19.8550   24.9417 H   0  0  0  0  0  0  0  0  0  0  0  0
   21.9718   18.3401   25.2141 H   0  0  0  0  0  0  0  0  0  0  0  0
   19.8092   18.1826   25.3208 C   0  0  2  0  0  0  0  0  0  0  0  0
   18.9503   18.6354   24.8166 H   0  0  0  0  0  0  0  0  0  0  0  0
   19.7154   18.5134   26.8185 C   0  0  0  0  0  0  0  0  0  0  0  0
   18.7834   18.1224   27.2448 H   0  0  0  0  0  0  0  0  0  0  0  0
   20.5550   18.0780   27.3748 H   0  0  0  0  0  0  0  0  0  0  0  0
   19.7252   19.5987   26.9790 H   0  0  0  0  0  0  0  0  0  0  0  0
   19.7108   16.6985   25.0980 N   0  3  0  0  0  0  0  0  0  0  0  0
   19.7422   16.4707   24.1005 H   0  0  0  0  0  0  0  0  0  0  0  0
   18.8369   16.3197   25.4742 H   0  0  0  0  0  0  0  0  0  0  0  0
   20.4817   16.2019   25.5524 H   0  0  0  0  0  0  0  0  0  0  0  0
  1  2  1  0  0  0  0
  1  3  1  0  0  0  0
  1  4  1  0  0  0  0
  1  5  1  0  0  0  0
  5  6  1  0  0  0  0
  5  7  1  0  0  0  0
  5  8  1  0  0  0  0
  8  9  1  0  0  0  0
  8 10  1  0  0  0  0
  8 11  1  0  0  0  0
 11 12  1  0  0  0  0
 11 13  1  0  0  0  0
 11 14  1  0  0  0  0
 14 15  1  0  0  0  0
 14 16  1  0  0  0  0
 14 17  1  0  0  0  0
 17 18  1  0  0  0  0
 17 19  1  0  0  0  0
 17 20  1  0  0  0  0
 20 21  1  0  0  0  0
 20 22  1  0  0  0  0
 22 23  1  0  0  0  0
 22 24  1  0  0  0  0
 22 25  1  0  0  0  0
 20 26  1  0  0  0  0
 26 27  1  0  0  0  0
 26 28  1  0  0  0  0
 26 29  1  0  0  0  0
M  END
> <VConfSearch Rank>
179

> <Conf_Id>
173

> <Delta U+W>
1.363

> <U+W>
-26.462

> <U>
25.816

> <W>
-52.279

> <W(PB)>
-54.727

> <W(SA)>
2.449

> <Valence>
4.504

> <Coulomb>
20.342

> <VdW>
0.971

> <VdW6>
-10.532

> <VdW12>
11.503

> <Bond>
0.307

> <Angle>
1.715

> <Pdih>
2.481

> <Idih>
0.000

> <Tether>
0.000

$$$$
VeraChem MOL file


 29 28  0  0  0  0  0  0  0  0999 V2000     
   21.5536   22.4224   24.2109 C   0  0  0  0  0  0  0  0  0  0  0  0
   21.2541   22.5476   25.2596 H   0  0  0  0  0  0  0  0  0  0  0  0
   22.6374   22.5834   24.1430 H   0  0  0  0  0  0  0  0  0  0  0  0
   21.0592   23.2068   23.6231 H   0  0  0  0  0  0  0  0  0  0  0  0
   21.1661   21.0233   23.6872 C   0  0  0  0  0  0  0  0  0  0  0  0
   21.4536   20.9374   22.6301 H   0  0  0  0  0  0  0  0  0  0  0  0
   20.0744   20.9172   23.7370 H   0  0  0  0  0  0  0  0  0  0  0  0
   21.8421   19.9005   24.5066 C   0  0  0  0  0  0  0  0  0  0  0  0
   22.9238   20.0895   24.5461 H   0  0  0  0  0  0  0  0  0  0  0  0
   21.4868   19.9435   25.5454 H   0  0  0  0  0  0  0  0  0  0  0  0
   21.6183   18.4726   23.9449 C   0  0  0  0  0  0  0  0  0  0  0  0
   22.1757   17.7750   24.5852 H   0  0  0  0  0  0  0  0  0  0  0  0
   22.0710   18.3840   22.9477 H   0  0  0  0  0  0  0  0  0  0  0  0
   20.1363   18.0166   23.9080 C   0  0  0  0  0  0  0  0  0  0  0  0
   20.1016   16.9474   24.1555 H   0  0  0  0  0  0  0  0  0  0  0  0
   19.5747   18.5310   24.6983 H   0  0  0  0  0  0  0  0  0  0  0  0
   19.4681   18.2251   22.5205 C   0  0  0  0  0  0  0  0  0  0  0  0
   20.0263   17.6531   21.7678 H   0  0  0  0  0  0  0  0  0  0  0  0
   19.5479   19.2738   22.2134 H   0  0  0  0  0  0  0  0  0  0  0  0
   17.9814   17.8049   22.4452 C   0  0  2  0  0  0  0  0  0  0  0  0
   17.6570   17.9430   21.4092 H   0  0  0  0  0  0  0  0  0  0  0  0
   17.0868   18.6879   23.3327 C   0  0  0  0  0  0  0  0  0  0  0  0
   17.2411   19.7505   23.1075 H   0  0  0  0  0  0  0  0  0  0  0  0
   16.0283   18.4611   23.1554 H   0  0  0  0  0  0  0  0  0  0  0  0
   17.2883   18.5297   24.3987 H   0  0  0  0  0  0  0  0  0  0  0  0
   17.7780   16.3474   22.7547 N   0  3  0  0  0  0  0  0  0  0  0  0
   18.3367   15.7511   22.1374 H   0  0  0  0  0  0  0  0  0  0  0  0
   16.7979   16.0738   22.6404 H   0  0  0  0  0  0  0  0  0  0  0  0
   18.0467   16.1320   23.7181 H   0  0  0  0  0  0  0  0  0  0  0  0
  1  2  1  0  0  0  0
  1  3  1  0  0  0  0
  1  4  1  0  0  0  0
  1  5  1  0  0  0  0
  5  6  1  0  0  0  0
  5  7  1  0  0  0  0
  5  8  1  0  0  0  0
  8  9  1  0  0  0  0
  8 10  1  0  0  0  0
  8 11  1  0  0  0  0
 11 12  1  0  0  0  0
 11 13  1  0  0  0  0
 11 14  1  0  0  0  0
 14 15  1  0  0  0  0
 14 16  1  0  0  0  0
 14 17  1  0  0  0  0
 17 18  1  0  0  0  0
 17 19  1  0  0  0  0
 17 20  1  0  0  0  0
 20 21  1  0  0  0  0
 20 22  1  0  0  0  0
 22 23  1  0  0  0  0
 22 24  1  0  0  0  0
 22 25  1  0  0  0  0
 20 26  1  0  0  0  0
 26 27  1  0  0  0  0
 26 28  1  0  0  0  0
 26 29  1  0  0  0  0
M  END
> <VConfSearch Rank>
180

> <Conf_Id>
117

> <Delta U+W>
3.377

> <U+W>
-24.449

> <U>
27.947

> <W>
-52.396

> <W(PB)>
-54.842

> <W(SA)>
2.447

> <Valence>
6.731

> <Coulomb>
20.067

> <VdW>
1.149

> <VdW6>
-10.427

> <VdW12>
11.575

> <Bond>
0.324

> <Angle>
1.943

> <Pdih>
4.465

> <Idih>
0.000

> <Tether>
0.000

$$$$
VeraChem MOL file


 29 28  0  0  0  0  0  0  0  0999 V2000     
   24.1282   21.1857   23.0868 C   0  0  0  0  0  0  0  0  0  0  0  0
   23.9848   21.8104   23.9781 H   0  0  0  0  0  0  0  0  0  0  0  0
   24.6871   20.2888   23.3842 H   0  0  0  0  0  0  0  0  0  0  0  0
   24.7476   21.7487   22.3766 H   0  0  0  0  0  0  0  0  0  0  0  0
   22.7739   20.8093   22.4495 C   0  0  0  0  0  0  0  0  0  0  0  0
   22.9506   20.2140   21.5428 H   0  0  0  0  0  0  0  0  0  0  0  0
   22.2537   21.7239   22.1321 H   0  0  0  0  0  0  0  0  0  0  0  0
   21.8819   20.0152   23.4292 C   0  0  0  0  0  0  0  0  0  0  0  0
   22.4070   19.1032   23.7454 H   0  0  0  0  0  0  0  0  0  0  0  0
   21.7101   20.6134   24.3348 H   0  0  0  0  0  0  0  0  0  0  0  0
   20.5248   19.6364   22.7945 C   0  0  0  0  0  0  0  0  0  0  0  0
   20.6983   19.0396   21.8883 H   0  0  0  0  0  0  0  0  0  0  0  0
   20.0003   20.5489   22.4788 H   0  0  0  0  0  0  0  0  0  0  0  0
   19.6331   18.8414   23.7746 C   0  0  0  0  0  0  0  0  0  0  0  0
   20.1569   17.9272   24.0871 H   0  0  0  0  0  0  0  0  0  0  0  0
   19.4698   19.4415   24.6797 H   0  0  0  0  0  0  0  0  0  0  0  0
   18.2739   18.4643   23.1368 C   0  0  0  0  0  0  0  0  0  0  0  0
   18.4598   17.9125   22.2057 H   0  0  0  0  0  0  0  0  0  0  0  0
   17.7289   19.3759   22.8574 H   0  0  0  0  0  0  0  0  0  0  0  0
   17.3941   17.5963   24.0622 C   0  0  2  0  0  0  0  0  0  0  0  0
   17.9667   16.7078   24.3455 H   0  0  0  0  0  0  0  0  0  0  0  0
   16.1280   17.1385   23.3208 C   0  0  0  0  0  0  0  0  0  0  0  0
   15.5159   16.4911   23.9609 H   0  0  0  0  0  0  0  0  0  0  0  0
   15.5149   17.9957   23.0154 H   0  0  0  0  0  0  0  0  0  0  0  0
   16.3882   16.5668   22.4213 H   0  0  0  0  0  0  0  0  0  0  0  0
   17.0304   18.3027   25.3396 N   0  3  0  0  0  0  0  0  0  0  0  0
   17.8645   18.5748   25.8667 H   0  0  0  0  0  0  0  0  0  0  0  0
   16.4639   17.7057   25.9490 H   0  0  0  0  0  0  0  0  0  0  0  0
   16.4907   19.1526   25.1551 H   0  0  0  0  0  0  0  0  0  0  0  0
  1  2  1  0  0  0  0
  1  3  1  0  0  0  0
  1  4  1  0  0  0  0
  1  5  1  0  0  0  0
  5  6  1  0  0  0  0
  5  7  1  0  0  0  0
  5  8  1  0  0  0  0
  8  9  1  0  0  0  0
  8 10  1  0  0  0  0
  8 11  1  0  0  0  0
 11 12  1  0  0  0  0
 11 13  1  0  0  0  0
 11 14  1  0  0  0  0
 14 15  1  0  0  0  0
 14 16  1  0  0  0  0
 14 17  1  0  0  0  0
 17 18  1  0  0  0  0
 17 19  1  0  0  0  0
 17 20  1  0  0  0  0
 20 21  1  0  0  0  0
 20 22  1  0  0  0  0
 22 23  1  0  0  0  0
 22 24  1  0  0  0  0
 22 25  1  0  0  0  0
 20 26  1  0  0  0  0
 26 27  1  0  0  0  0
 26 28  1  0  0  0  0
 26 29  1  0  0  0  0
M  END
> <VConfSearch Rank>
181

> <Conf_Id>
164

> <Delta U+W>
0.000

> <U+W>
-27.826

> <U>
23.963

> <W>
-51.789

> <W(PB)>
-54.342

> <W(SA)>
2.554

> <Valence>
3.166

> <Coulomb>
19.734

> <VdW>
1.062

> <VdW6>
-7.938

> <VdW12>
9.001

> <Bond>
0.188

> <Angle>
0.880

> <Pdih>
2.098

> <Idih>
0.000

> <Tether>
0.000

$$$$
VeraChem MOL file


 29 28  0  0  0  0  0  0  0  0999 V2000     
   21.2119   23.0698   25.9139 C   0  0  0  0  0  0  0  0  0  0  0  0
   21.6184   23.5788   25.0302 H   0  0  0  0  0  0  0  0  0  0  0  0
   20.1808   23.4157   26.0637 H   0  0  0  0  0  0  0  0  0  0  0  0
   21.8023   23.3830   26.7847 H   0  0  0  0  0  0  0  0  0  0  0  0
   21.2633   21.5368   25.7436 C   0  0  0  0  0  0  0  0  0  0  0  0
   20.8822   21.0557   26.6553 H   0  0  0  0  0  0  0  0  0  0  0  0
   22.3087   21.2175   25.6298 H   0  0  0  0  0  0  0  0  0  0  0  0
   20.4394   21.0690   24.5236 C   0  0  0  0  0  0  0  0  0  0  0  0
   19.3958   21.3926   24.6408 H   0  0  0  0  0  0  0  0  0  0  0  0
   20.8225   21.5542   23.6152 H   0  0  0  0  0  0  0  0  0  0  0  0
   20.4884   19.5343   24.3498 C   0  0  0  0  0  0  0  0  0  0  0  0
   20.1048   19.0498   25.2585 H   0  0  0  0  0  0  0  0  0  0  0  0
   21.5326   19.2122   24.2342 H   0  0  0  0  0  0  0  0  0  0  0  0
   19.6643   19.0668   23.1288 C   0  0  0  0  0  0  0  0  0  0  0  0
   18.6256   19.4009   23.2503 H   0  0  0  0  0  0  0  0  0  0  0  0
   20.0514   19.5474   22.2196 H   0  0  0  0  0  0  0  0  0  0  0  0
   19.7113   17.5283   22.9597 C   0  0  0  0  0  0  0  0  0  0  0  0
   19.2651   17.0451   23.8391 H   0  0  0  0  0  0  0  0  0  0  0  0
   20.7625   17.2120   22.9308 H   0  0  0  0  0  0  0  0  0  0  0  0
   19.0131   17.0209   21.6773 C   0  0  2  0  0  0  0  0  0  0  0  0
   19.4453   17.5465   20.8203 H   0  0  0  0  0  0  0  0  0  0  0  0
   17.4970   17.2860   21.6979 C   0  0  0  0  0  0  0  0  0  0  0  0
   17.0264   16.8303   22.5780 H   0  0  0  0  0  0  0  0  0  0  0  0
   17.2799   18.3603   21.7091 H   0  0  0  0  0  0  0  0  0  0  0  0
   17.0198   16.8686   20.8027 H   0  0  0  0  0  0  0  0  0  0  0  0
   19.2817   15.5581   21.4569 N   0  3  0  0  0  0  0  0  0  0  0  0
   18.8541   15.2262   20.5876 H   0  0  0  0  0  0  0  0  0  0  0  0
   18.9041   14.9894   22.2197 H   0  0  0  0  0  0  0  0  0  0  0  0
   20.2854   15.3639   21.3959 H   0  0  0  0  0  0  0  0  0  0  0  0
  1  2  1  0  0  0  0
  1  3  1  0  0  0  0
  1  4  1  0  0  0  0
  1  5  1  0  0  0  0
  5  6  1  0  0  0  0
  5  7  1  0  0  0  0
  5  8  1  0  0  0  0
  8  9  1  0  0  0  0
  8 10  1  0  0  0  0
  8 11  1  0  0  0  0
 11 12  1  0  0  0  0
 11 13  1  0  0  0  0
 11 14  1  0  0  0  0
 14 15  1  0  0  0  0
 14 16  1  0  0  0  0
 14 17  1  0  0  0  0
 17 18  1  0  0  0  0
 17 19  1  0  0  0  0
 17 20  1  0  0  0  0
 20 21  1  0  0  0  0
 20 22  1  0  0  0  0
 22 23  1  0  0  0  0
 22 24  1  0  0  0  0
 22 25  1  0  0  0  0
 20 26  1  0  0  0  0
 26 27  1  0  0  0  0
 26 28  1  0  0  0  0
 26 29  1  0  0  0  0
M  END
> <VConfSearch Rank>
182

> <Conf_Id>
58

> <Delta U+W>
0.412

> <U+W>
-27.414

> <U>
24.279

> <W>
-51.694

> <W(PB)>
-54.271

> <W(SA)>
2.577

> <Valence>
3.709

> <Coulomb>
19.380

> <VdW>
1.191

> <VdW6>
-8.093

> <VdW12>
9.284

> <Bond>
0.200

> <Angle>
1.161

> <Pdih>
2.348

> <Idih>
0.000

> <Tether>
0.000

$$$$
VeraChem MOL file


 29 28  0  0  0  0  0  0  0  0999 V2000     
   15.4850   20.7917   22.3744 C   0  0  0  0  0  0  0  0  0  0  0  0
   15.2147   20.9531   23.4261 H   0  0  0  0  0  0  0  0  0  0  0  0
   15.9060   21.7266   21.9820 H   0  0  0  0  0  0  0  0  0  0  0  0
   14.5629   20.5777   21.8184 H   0  0  0  0  0  0  0  0  0  0  0  0
   16.4893   19.6286   22.2321 C   0  0  0  0  0  0  0  0  0  0  0  0
   16.7142   19.4691   21.1682 H   0  0  0  0  0  0  0  0  0  0  0  0
   16.0284   18.7016   22.6012 H   0  0  0  0  0  0  0  0  0  0  0  0
   17.7973   19.9046   23.0060 C   0  0  0  0  0  0  0  0  0  0  0  0
   18.2532   20.8330   22.6351 H   0  0  0  0  0  0  0  0  0  0  0  0
   17.5671   20.0657   24.0683 H   0  0  0  0  0  0  0  0  0  0  0  0
   18.8055   18.7417   22.8661 C   0  0  0  0  0  0  0  0  0  0  0  0
   19.0343   18.5812   21.8034 H   0  0  0  0  0  0  0  0  0  0  0  0
   18.3484   17.8138   23.2369 H   0  0  0  0  0  0  0  0  0  0  0  0
   20.1140   19.0180   23.6406 C   0  0  0  0  0  0  0  0  0  0  0  0
   20.5645   19.9468   23.2665 H   0  0  0  0  0  0  0  0  0  0  0  0
   19.8745   19.1818   24.6995 H   0  0  0  0  0  0  0  0  0  0  0  0
   21.1200   17.8462   23.4991 C   0  0  0  0  0  0  0  0  0  0  0  0
   21.3113   17.6620   22.4338 H   0  0  0  0  0  0  0  0  0  0  0  0
   20.6625   16.9264   23.8871 H   0  0  0  0  0  0  0  0  0  0  0  0
   22.4775   18.0633   24.2086 C   0  0  2  0  0  0  0  0  0  0  0  0
   23.0955   17.1836   24.0041 H   0  0  0  0  0  0  0  0  0  0  0  0
   22.3213   18.1772   25.7350 C   0  0  0  0  0  0  0  0  0  0  0  0
   23.3046   18.1928   26.2208 H   0  0  0  0  0  0  0  0  0  0  0  0
   21.7920   19.0937   26.0215 H   0  0  0  0  0  0  0  0  0  0  0  0
   21.7663   17.3196   26.1352 H   0  0  0  0  0  0  0  0  0  0  0  0
   23.2323   19.2405   23.6552 N   0  3  0  0  0  0  0  0  0  0  0  0
   23.3796   19.1511   22.6458 H   0  0  0  0  0  0  0  0  0  0  0  0
   24.1538   19.3329   24.0922 H   0  0  0  0  0  0  0  0  0  0  0  0
   22.7266   20.1149   23.8170 H   0  0  0  0  0  0  0  0  0  0  0  0
  1  2  1  0  0  0  0
  1  3  1  0  0  0  0
  1  4  1  0  0  0  0
  1  5  1  0  0  0  0
  5  6  1  0  0  0  0
  5  7  1  0  0  0  0
  5  8  1  0  0  0  0
  8  9  1  0  0  0  0
  8 10  1  0  0  0  0
  8 11  1  0  0  0  0
 11 12  1  0  0  0  0
 11 13  1  0  0  0  0
 11 14  1  0  0  0  0
 14 15  1  0  0  0  0
 14 16  1  0  0  0  0
 14 17  1  0  0  0  0
 17 18  1  0  0  0  0
 17 19  1  0  0  0  0
 17 20  1  0  0  0  0
 20 21  1  0  0  0  0
 20 22  1  0  0  0  0
 22 23  1  0  0  0  0
 22 24  1  0  0  0  0
 22 25  1  0  0  0  0
 20 26  1  0  0  0  0
 26 27  1  0  0  0  0
 26 28  1  0  0  0  0
 26 29  1  0  0  0  0
M  END
> <VConfSearch Rank>
183

> <Conf_Id>
137

> <Delta U+W>
0.280

> <U+W>
-27.546

> <U>
24.513

> <W>
-52.059

> <W(PB)>
-54.556

> <W(SA)>
2.497

> <Valence>
3.677

> <Coulomb>
19.662

> <VdW>
1.174

> <VdW6>
-8.569

> <VdW12>
9.743

> <Bond>
0.224

> <Angle>
1.211

> <Pdih>
2.243

> <Idih>
0.000

> <Tether>
0.000

$$$$
VeraChem MOL file


 29 28  0  0  0  0  0  0  0  0999 V2000     
   22.9844   20.8780   26.0665 C   0  0  0  0  0  0  0  0  0  0  0  0
   23.0959   19.8309   26.3769 H   0  0  0  0  0  0  0  0  0  0  0  0
   23.6653   21.0595   25.2246 H   0  0  0  0  0  0  0  0  0  0  0  0
   23.3049   21.5133   26.9023 H   0  0  0  0  0  0  0  0  0  0  0  0
   21.5240   21.1881   25.6753 C   0  0  0  0  0  0  0  0  0  0  0  0
   21.4374   22.2495   25.4036 H   0  0  0  0  0  0  0  0  0  0  0  0
   20.8717   21.0291   26.5454 H   0  0  0  0  0  0  0  0  0  0  0  0
   21.0475   20.3072   24.4991 C   0  0  0  0  0  0  0  0  0  0  0  0
   21.7010   20.4716   23.6313 H   0  0  0  0  0  0  0  0  0  0  0  0
   21.1493   19.2513   24.7808 H   0  0  0  0  0  0  0  0  0  0  0  0
   19.5815   20.6150   24.1094 C   0  0  0  0  0  0  0  0  0  0  0  0
   19.4844   21.6921   23.9152 H   0  0  0  0  0  0  0  0  0  0  0  0
   18.9176   20.3939   24.9565 H   0  0  0  0  0  0  0  0  0  0  0  0
   19.0954   19.8480   22.8546 C   0  0  0  0  0  0  0  0  0  0  0  0
   18.1107   20.2464   22.5791 H   0  0  0  0  0  0  0  0  0  0  0  0
   19.7643   20.0634   22.0100 H   0  0  0  0  0  0  0  0  0  0  0  0
   18.9951   18.3146   23.0655 C   0  0  0  0  0  0  0  0  0  0  0  0
   18.3183   18.0989   23.9028 H   0  0  0  0  0  0  0  0  0  0  0  0
   19.9801   17.9281   23.3530 H   0  0  0  0  0  0  0  0  0  0  0  0
   18.5298   17.5427   21.8092 C   0  0  2  0  0  0  0  0  0  0  0  0
   19.1810   17.8204   20.9747 H   0  0  0  0  0  0  0  0  0  0  0  0
   17.0763   17.8742   21.4257 C   0  0  0  0  0  0  0  0  0  0  0  0
   16.3908   17.6760   22.2591 H   0  0  0  0  0  0  0  0  0  0  0  0
   16.9689   18.9251   21.1342 H   0  0  0  0  0  0  0  0  0  0  0  0
   16.7550   17.2675   20.5700 H   0  0  0  0  0  0  0  0  0  0  0  0
   18.6899   16.0593   21.9955 N   0  3  0  0  0  0  0  0  0  0  0  0
   19.6598   15.8080   22.2074 H   0  0  0  0  0  0  0  0  0  0  0  0
   18.4196   15.5453   21.1520 H   0  0  0  0  0  0  0  0  0  0  0  0
   18.1075   15.7139   22.7633 H   0  0  0  0  0  0  0  0  0  0  0  0
  1  2  1  0  0  0  0
  1  3  1  0  0  0  0
  1  4  1  0  0  0  0
  1  5  1  0  0  0  0
  5  6  1  0  0  0  0
  5  7  1  0  0  0  0
  5  8  1  0  0  0  0
  8  9  1  0  0  0  0
  8 10  1  0  0  0  0
  8 11  1  0  0  0  0
 11 12  1  0  0  0  0
 11 13  1  0  0  0  0
 11 14  1  0  0  0  0
 14 15  1  0  0  0  0
 14 16  1  0  0  0  0
 14 17  1  0  0  0  0
 17 18  1  0  0  0  0
 17 19  1  0  0  0  0
 17 20  1  0  0  0  0
 20 21  1  0  0  0  0
 20 22  1  0  0  0  0
 22 23  1  0  0  0  0
 22 24  1  0  0  0  0
 22 25  1  0  0  0  0
 20 26  1  0  0  0  0
 26 27  1  0  0  0  0
 26 28  1  0  0  0  0
 26 29  1  0  0  0  0
M  END
> <VConfSearch Rank>
184

> <Conf_Id>
40

> <Delta U+W>
1.128

> <U+W>
-26.698

> <U>
25.442

> <W>
-52.140

> <W(PB)>
-54.658

> <W(SA)>
2.519

> <Valence>
4.343

> <Coulomb>
19.740

> <VdW>
1.360

> <VdW6>
-8.739

> <VdW12>
10.099

> <Bond>
0.251

> <Angle>
1.483

> <Pdih>
2.608

> <Idih>
0.000

> <Tether>
0.000

$$$$
VeraChem MOL file


 29 28  0  0  0  0  0  0  0  0999 V2000     
   23.8871   20.5222   23.1808 C   0  0  0  0  0  0  0  0  0  0  0  0
   23.9853   19.4717   22.8810 H   0  0  0  0  0  0  0  0  0  0  0  0
   23.6772   21.1187   22.2835 H   0  0  0  0  0  0  0  0  0  0  0  0
   24.8590   20.8434   23.5773 H   0  0  0  0  0  0  0  0  0  0  0  0
   22.7813   20.7101   24.2443 C   0  0  0  0  0  0  0  0  0  0  0  0
   22.8111   21.7483   24.6035 H   0  0  0  0  0  0  0  0  0  0  0  0
   22.9951   20.0770   25.1167 H   0  0  0  0  0  0  0  0  0  0  0  0
   21.3576   20.4102   23.7157 C   0  0  0  0  0  0  0  0  0  0  0  0
   20.6406   20.7042   24.4926 H   0  0  0  0  0  0  0  0  0  0  0  0
   21.1491   21.0455   22.8440 H   0  0  0  0  0  0  0  0  0  0  0  0
   21.1393   18.9215   23.3429 C   0  0  0  0  0  0  0  0  0  0  0  0
   21.3421   18.2861   24.2160 H   0  0  0  0  0  0  0  0  0  0  0  0
   21.8656   18.6297   22.5736 H   0  0  0  0  0  0  0  0  0  0  0  0
   19.7215   18.6183   22.7980 C   0  0  0  0  0  0  0  0  0  0  0  0
   19.5122   19.2680   21.9369 H   0  0  0  0  0  0  0  0  0  0  0  0
   19.7200   17.5891   22.4157 H   0  0  0  0  0  0  0  0  0  0  0  0
   18.6008   18.7763   23.8580 C   0  0  0  0  0  0  0  0  0  0  0  0
   18.5847   19.8119   24.2189 H   0  0  0  0  0  0  0  0  0  0  0  0
   18.8199   18.1430   24.7279 H   0  0  0  0  0  0  0  0  0  0  0  0
   17.1993   18.4339   23.3073 C   0  0  2  0  0  0  0  0  0  0  0  0
   17.0190   19.0499   22.4209 H   0  0  0  0  0  0  0  0  0  0  0  0
   16.1200   18.7630   24.3512 C   0  0  0  0  0  0  0  0  0  0  0  0
   15.1190   18.5548   23.9537 H   0  0  0  0  0  0  0  0  0  0  0  0
   16.2561   18.1689   25.2636 H   0  0  0  0  0  0  0  0  0  0  0  0
   16.1542   19.8245   24.6263 H   0  0  0  0  0  0  0  0  0  0  0  0
   17.0853   16.9993   22.8689 N   0  3  0  0  0  0  0  0  0  0  0  0
   17.2464   16.3570   23.6493 H   0  0  0  0  0  0  0  0  0  0  0  0
   17.7673   16.7758   22.1392 H   0  0  0  0  0  0  0  0  0  0  0  0
   16.1553   16.7964   22.4913 H   0  0  0  0  0  0  0  0  0  0  0  0
  1  2  1  0  0  0  0
  1  3  1  0  0  0  0
  1  4  1  0  0  0  0
  1  5  1  0  0  0  0
  5  6  1  0  0  0  0
  5  7  1  0  0  0  0
  5  8  1  0  0  0  0
  8  9  1  0  0  0  0
  8 10  1  0  0  0  0
  8 11  1  0  0  0  0
 11 12  1  0  0  0  0
 11 13  1  0  0  0  0
 11 14  1  0  0  0  0
 14 15  1  0  0  0  0
 14 16  1  0  0  0  0
 14 17  1  0  0  0  0
 17 18  1  0  0  0  0
 17 19  1  0  0  0  0
 17 20  1  0  0  0  0
 20 21  1  0  0  0  0
 20 22  1  0  0  0  0
 22 23  1  0  0  0  0
 22 24  1  0  0  0  0
 22 25  1  0  0  0  0
 20 26  1  0  0  0  0
 26 27  1  0  0  0  0
 26 28  1  0  0  0  0
 26 29  1  0  0  0  0
M  END
> <VConfSearch Rank>
185

> <Conf_Id>
134

> <Delta U+W>
1.228

> <U+W>
-26.598

> <U>
25.451

> <W>
-52.048

> <W(PB)>
-54.539

> <W(SA)>
2.490

> <Valence>
4.319

> <Coulomb>
19.732

> <VdW>
1.400

> <VdW6>
-9.173

> <VdW12>
10.573

> <Bond>
0.281

> <Angle>
1.459

> <Pdih>
2.580

> <Idih>
0.000

> <Tether>
0.000

$$$$
VeraChem MOL file


 29 28  0  0  0  0  0  0  0  0999 V2000     
   21.9968   22.7485   22.8881 C   0  0  0  0  0  0  0  0  0  0  0  0
   21.7241   22.8855   23.9417 H   0  0  0  0  0  0  0  0  0  0  0  0
   22.9445   22.1963   22.8464 H   0  0  0  0  0  0  0  0  0  0  0  0
   22.1699   23.7448   22.4609 H   0  0  0  0  0  0  0  0  0  0  0  0
   20.8881   22.0099   22.1044 C   0  0  0  0  0  0  0  0  0  0  0  0
   21.1498   22.0126   21.0371 H   0  0  0  0  0  0  0  0  0  0  0  0
   19.9425   22.5633   22.1902 H   0  0  0  0  0  0  0  0  0  0  0  0
   20.6808   20.5450   22.5594 C   0  0  0  0  0  0  0  0  0  0  0  0
   19.9794   20.0698   21.8618 H   0  0  0  0  0  0  0  0  0  0  0  0
   21.6281   19.9958   22.4697 H   0  0  0  0  0  0  0  0  0  0  0  0
   20.1377   20.4195   24.0056 C   0  0  0  0  0  0  0  0  0  0  0  0
   19.1897   20.9675   24.0947 H   0  0  0  0  0  0  0  0  0  0  0  0
   20.8380   20.8986   24.7018 H   0  0  0  0  0  0  0  0  0  0  0  0
   19.9359   18.9540   24.4638 C   0  0  0  0  0  0  0  0  0  0  0  0
   20.8919   18.4196   24.3859 H   0  0  0  0  0  0  0  0  0  0  0  0
   19.6671   18.9570   25.5293 H   0  0  0  0  0  0  0  0  0  0  0  0
   18.8358   18.2032   23.6698 C   0  0  0  0  0  0  0  0  0  0  0  0
   19.1517   18.0607   22.6288 H   0  0  0  0  0  0  0  0  0  0  0  0
   17.9347   18.8299   23.6416 H   0  0  0  0  0  0  0  0  0  0  0  0
   18.4607   16.8333   24.2791 C   0  0  2  0  0  0  0  0  0  0  0  0
   18.1814   16.9881   25.3259 H   0  0  0  0  0  0  0  0  0  0  0  0
   19.6334   15.8376   24.2298 C   0  0  0  0  0  0  0  0  0  0  0  0
   19.9889   15.6938   23.2019 H   0  0  0  0  0  0  0  0  0  0  0  0
   20.4759   16.1837   24.8398 H   0  0  0  0  0  0  0  0  0  0  0  0
   19.3275   14.8606   24.6238 H   0  0  0  0  0  0  0  0  0  0  0  0
   17.2531   16.2495   23.5999 N   0  3  0  0  0  0  0  0  0  0  0  0
   16.4468   16.8782   23.6583 H   0  0  0  0  0  0  0  0  0  0  0  0
   16.9774   15.3604   24.0268 H   0  0  0  0  0  0  0  0  0  0  0  0
   17.4321   16.0696   22.6083 H   0  0  0  0  0  0  0  0  0  0  0  0
  1  2  1  0  0  0  0
  1  3  1  0  0  0  0
  1  4  1  0  0  0  0
  1  5  1  0  0  0  0
  5  6  1  0  0  0  0
  5  7  1  0  0  0  0
  5  8  1  0  0  0  0
  8  9  1  0  0  0  0
  8 10  1  0  0  0  0
  8 11  1  0  0  0  0
 11 12  1  0  0  0  0
 11 13  1  0  0  0  0
 11 14  1  0  0  0  0
 14 15  1  0  0  0  0
 14 16  1  0  0  0  0
 14 17  1  0  0  0  0
 17 18  1  0  0  0  0
 17 19  1  0  0  0  0
 17 20  1  0  0  0  0
 20 21  1  0  0  0  0
 20 22  1  0  0  0  0
 22 23  1  0  0  0  0
 22 24  1  0  0  0  0
 22 25  1  0  0  0  0
 20 26  1  0  0  0  0
 26 27  1  0  0  0  0
 26 28  1  0  0  0  0
 26 29  1  0  0  0  0
M  END
> <VConfSearch Rank>
186

> <Conf_Id>
73

> <Delta U+W>
1.580

> <U+W>
-26.246

> <U>
25.821

> <W>
-52.067

> <W(PB)>
-54.581

> <W(SA)>
2.514

> <Valence>
4.779

> <Coulomb>
19.614

> <VdW>
1.428

> <VdW6>
-9.390

> <VdW12>
10.818

> <Bond>
0.283

> <Angle>
1.640

> <Pdih>
2.856

> <Idih>
0.000

> <Tether>
0.000

$$$$
VeraChem MOL file


 29 28  0  0  0  0  0  0  0  0999 V2000     
   21.7142   22.3195   21.0913 C   0  0  0  0  0  0  0  0  0  0  0  0
   22.4817   22.2546   21.8736 H   0  0  0  0  0  0  0  0  0  0  0  0
   22.2018   22.6579   20.1679 H   0  0  0  0  0  0  0  0  0  0  0  0
   20.9866   23.0860   21.3887 H   0  0  0  0  0  0  0  0  0  0  0  0
   21.0255   20.9553   20.8754 C   0  0  0  0  0  0  0  0  0  0  0  0
   21.7715   20.2179   20.5474 H   0  0  0  0  0  0  0  0  0  0  0  0
   20.2889   21.0436   20.0645 H   0  0  0  0  0  0  0  0  0  0  0  0
   20.3297   20.4560   22.1610 C   0  0  0  0  0  0  0  0  0  0  0  0
   21.0745   20.3824   22.9639 H   0  0  0  0  0  0  0  0  0  0  0  0
   19.5833   21.1950   22.4833 H   0  0  0  0  0  0  0  0  0  0  0  0
   19.6430   19.0856   21.9465 C   0  0  0  0  0  0  0  0  0  0  0  0
   20.3960   18.3306   21.6817 H   0  0  0  0  0  0  0  0  0  0  0  0
   18.9643   19.1587   21.0854 H   0  0  0  0  0  0  0  0  0  0  0  0
   18.8281   18.5992   23.1703 C   0  0  0  0  0  0  0  0  0  0  0  0
   18.0734   19.3537   23.4323 H   0  0  0  0  0  0  0  0  0  0  0  0
   18.2748   17.6990   22.8725 H   0  0  0  0  0  0  0  0  0  0  0  0
   19.7031   18.2828   24.4106 C   0  0  0  0  0  0  0  0  0  0  0  0
   20.2346   19.1908   24.7210 H   0  0  0  0  0  0  0  0  0  0  0  0
   20.4706   17.5436   24.1454 H   0  0  0  0  0  0  0  0  0  0  0  0
   18.8804   17.7680   25.6118 C   0  0  2  0  0  0  0  0  0  0  0  0
   18.1005   18.5029   25.8337 H   0  0  0  0  0  0  0  0  0  0  0  0
   19.7772   17.6268   26.8522 C   0  0  0  0  0  0  0  0  0  0  0  0
   20.2387   18.5878   27.1115 H   0  0  0  0  0  0  0  0  0  0  0  0
   19.1921   17.2946   27.7187 H   0  0  0  0  0  0  0  0  0  0  0  0
   20.5791   16.8976   26.6813 H   0  0  0  0  0  0  0  0  0  0  0  0
   18.1812   16.4686   25.3188 N   0  3  0  0  0  0  0  0  0  0  0  0
   17.6277   16.1527   26.1203 H   0  0  0  0  0  0  0  0  0  0  0  0
   18.8506   15.7268   25.0968 H   0  0  0  0  0  0  0  0  0  0  0  0
   17.5440   16.5579   24.5228 H   0  0  0  0  0  0  0  0  0  0  0  0
  1  2  1  0  0  0  0
  1  3  1  0  0  0  0
  1  4  1  0  0  0  0
  1  5  1  0  0  0  0
  5  6  1  0  0  0  0
  5  7  1  0  0  0  0
  5  8  1  0  0  0  0
  8  9  1  0  0  0  0
  8 10  1  0  0  0  0
  8 11  1  0  0  0  0
 11 12  1  0  0  0  0
 11 13  1  0  0  0  0
 11 14  1  0  0  0  0
 14 15  1  0  0  0  0
 14 16  1  0  0  0  0
 14 17  1  0  0  0  0
 17 18  1  0  0  0  0
 17 19  1  0  0  0  0
 17 20  1  0  0  0  0
 20 21  1  0  0  0  0
 20 22  1  0  0  0  0
 22 23  1  0  0  0  0
 22 24  1  0  0  0  0
 22 25  1  0  0  0  0
 20 26  1  0  0  0  0
 26 27  1  0  0  0  0
 26 28  1  0  0  0  0
 26 29  1  0  0  0  0
M  END
> <VConfSearch Rank>
187

> <Conf_Id>
111

> <Delta U+W>
0.580

> <U+W>
-27.246

> <U>
24.710

> <W>
-51.957

> <W(PB)>
-54.511

> <W(SA)>
2.555

> <Valence>
3.735

> <Coulomb>
19.760

> <VdW>
1.216

> <VdW6>
-8.624

> <VdW12>
9.840

> <Bond>
0.236

> <Angle>
1.168

> <Pdih>
2.330

> <Idih>
0.000

> <Tether>
0.000

$$$$
VeraChem MOL file


 29 28  0  0  0  0  0  0  0  0999 V2000     
   16.7703   16.2169   22.0589 C   0  0  0  0  0  0  0  0  0  0  0  0
   15.9619   16.6826   22.6376 H   0  0  0  0  0  0  0  0  0  0  0  0
   16.9030   16.7915   21.1329 H   0  0  0  0  0  0  0  0  0  0  0  0
   16.4477   15.2042   21.7839 H   0  0  0  0  0  0  0  0  0  0  0  0
   18.0796   16.1689   22.8745 C   0  0  0  0  0  0  0  0  0  0  0  0
   18.8596   15.6689   22.2832 H   0  0  0  0  0  0  0  0  0  0  0  0
   17.9251   15.5594   23.7758 H   0  0  0  0  0  0  0  0  0  0  0  0
   18.5557   17.5826   23.2755 C   0  0  0  0  0  0  0  0  0  0  0  0
   18.6976   18.1834   22.3676 H   0  0  0  0  0  0  0  0  0  0  0  0
   17.7738   18.0777   23.8677 H   0  0  0  0  0  0  0  0  0  0  0  0
   19.8708   17.5361   24.0899 C   0  0  0  0  0  0  0  0  0  0  0  0
   20.6682   17.0884   23.4809 H   0  0  0  0  0  0  0  0  0  0  0  0
   19.7333   16.8717   24.9542 H   0  0  0  0  0  0  0  0  0  0  0  0
   20.3271   18.9231   24.6050 C   0  0  0  0  0  0  0  0  0  0  0  0
   19.5367   19.3477   25.2380 H   0  0  0  0  0  0  0  0  0  0  0  0
   21.2034   18.7834   25.2531 H   0  0  0  0  0  0  0  0  0  0  0  0
   20.6923   19.9125   23.4685 C   0  0  0  0  0  0  0  0  0  0  0  0
   19.7952   20.1732   22.8927 H   0  0  0  0  0  0  0  0  0  0  0  0
   21.3766   19.4094   22.7727 H   0  0  0  0  0  0  0  0  0  0  0  0
   21.3693   21.2080   23.9706 C   0  0  2  0  0  0  0  0  0  0  0  0
   22.2405   20.9293   24.5714 H   0  0  0  0  0  0  0  0  0  0  0  0
   20.4251   22.0531   24.8443 C   0  0  0  0  0  0  0  0  0  0  0  0
   19.5058   22.3086   24.3027 H   0  0  0  0  0  0  0  0  0  0  0  0
   20.1472   21.5206   25.7612 H   0  0  0  0  0  0  0  0  0  0  0  0
   20.9124   22.9880   25.1472 H   0  0  0  0  0  0  0  0  0  0  0  0
   21.8902   22.0280   22.8232 N   0  3  0  0  0  0  0  0  0  0  0  0
   22.5549   21.4981   22.2521 H   0  0  0  0  0  0  0  0  0  0  0  0
   22.3744   22.8678   23.1534 H   0  0  0  0  0  0  0  0  0  0  0  0
   21.1318   22.3348   22.2080 H   0  0  0  0  0  0  0  0  0  0  0  0
  1  2  1  0  0  0  0
  1  3  1  0  0  0  0
  1  4  1  0  0  0  0
  1  5  1  0  0  0  0
  5  6  1  0  0  0  0
  5  7  1  0  0  0  0
  5  8  1  0  0  0  0
  8  9  1  0  0  0  0
  8 10  1  0  0  0  0
  8 11  1  0  0  0  0
 11 12  1  0  0  0  0
 11 13  1  0  0  0  0
 11 14  1  0  0  0  0
 14 15  1  0  0  0  0
 14 16  1  0  0  0  0
 14 17  1  0  0  0  0
 17 18  1  0  0  0  0
 17 19  1  0  0  0  0
 17 20  1  0  0  0  0
 20 21  1  0  0  0  0
 20 22  1  0  0  0  0
 22 23  1  0  0  0  0
 22 24  1  0  0  0  0
 22 25  1  0  0  0  0
 20 26  1  0  0  0  0
 26 27  1  0  0  0  0
 26 28  1  0  0  0  0
 26 29  1  0  0  0  0
M  END
> <VConfSearch Rank>
188

> <Conf_Id>
39

> <Delta U+W>
0.965

> <U+W>
-26.861

> <U>
25.129

> <W>
-51.990

> <W(PB)>
-54.526

> <W(SA)>
2.536

> <Valence>
4.206

> <Coulomb>
19.678

> <VdW>
1.245

> <VdW6>
-8.834

> <VdW12>
10.079

> <Bond>
0.240

> <Angle>
1.353

> <Pdih>
2.613

> <Idih>
0.000

> <Tether>
0.000

$$$$
VeraChem MOL file


 29 28  0  0  0  0  0  0  0  0999 V2000     
   19.8555   19.5713   19.2825 C   0  0  0  0  0  0  0  0  0  0  0  0
   20.8582   19.1260   19.2447 H   0  0  0  0  0  0  0  0  0  0  0  0
   19.1247   18.7636   19.4120 H   0  0  0  0  0  0  0  0  0  0  0  0
   19.6594   20.0396   18.3093 H   0  0  0  0  0  0  0  0  0  0  0  0
   19.7545   20.6177   20.4156 C   0  0  0  0  0  0  0  0  0  0  0  0
   18.7337   21.0226   20.4558 H   0  0  0  0  0  0  0  0  0  0  0  0
   20.4115   21.4645   20.1723 H   0  0  0  0  0  0  0  0  0  0  0  0
   20.1539   20.0648   21.8051 C   0  0  0  0  0  0  0  0  0  0  0  0
   21.1751   19.6623   21.7597 H   0  0  0  0  0  0  0  0  0  0  0  0
   20.1833   20.9069   22.5082 H   0  0  0  0  0  0  0  0  0  0  0  0
   19.1858   18.9779   22.3378 C   0  0  0  0  0  0  0  0  0  0  0  0
   19.1521   18.1408   21.6288 H   0  0  0  0  0  0  0  0  0  0  0  0
   18.1654   19.3819   22.3875 H   0  0  0  0  0  0  0  0  0  0  0  0
   19.5894   18.4140   23.7226 C   0  0  0  0  0  0  0  0  0  0  0  0
   18.9326   17.5638   23.9479 H   0  0  0  0  0  0  0  0  0  0  0  0
   20.6090   18.0108   23.6621 H   0  0  0  0  0  0  0  0  0  0  0  0
   19.4939   19.4592   24.8677 C   0  0  0  0  0  0  0  0  0  0  0  0
   18.5047   19.9345   24.8420 H   0  0  0  0  0  0  0  0  0  0  0  0
   20.2217   20.2622   24.6980 H   0  0  0  0  0  0  0  0  0  0  0  0
   19.7268   18.8894   26.2869 C   0  0  2  0  0  0  0  0  0  0  0  0
   19.6242   19.7203   26.9917 H   0  0  0  0  0  0  0  0  0  0  0  0
   21.1429   18.3108   26.4516 C   0  0  0  0  0  0  0  0  0  0  0  0
   21.2873   17.4127   25.8393 H   0  0  0  0  0  0  0  0  0  0  0  0
   21.9015   19.0492   26.1638 H   0  0  0  0  0  0  0  0  0  0  0  0
   21.3259   18.0363   27.4977 H   0  0  0  0  0  0  0  0  0  0  0  0
   18.6833   17.8800   26.6800 N   0  3  0  0  0  0  0  0  0  0  0  0
   17.7392   18.2711   26.6141 H   0  0  0  0  0  0  0  0  0  0  0  0
   18.8161   17.5609   27.6439 H   0  0  0  0  0  0  0  0  0  0  0  0
   18.7183   17.0552   26.0760 H   0  0  0  0  0  0  0  0  0  0  0  0
  1  2  1  0  0  0  0
  1  3  1  0  0  0  0
  1  4  1  0  0  0  0
  1  5  1  0  0  0  0
  5  6  1  0  0  0  0
  5  7  1  0  0  0  0
  5  8  1  0  0  0  0
  8  9  1  0  0  0  0
  8 10  1  0  0  0  0
  8 11  1  0  0  0  0
 11 12  1  0  0  0  0
 11 13  1  0  0  0  0
 11 14  1  0  0  0  0
 14 15  1  0  0  0  0
 14 16  1  0  0  0  0
 14 17  1  0  0  0  0
 17 18  1  0  0  0  0
 17 19  1  0  0  0  0
 17 20  1  0  0  0  0
 20 21  1  0  0  0  0
 20 22  1  0  0  0  0
 22 23  1  0  0  0  0
 22 24  1  0  0  0  0
 22 25  1  0  0  0  0
 20 26  1  0  0  0  0
 26 27  1  0  0  0  0
 26 28  1  0  0  0  0
 26 29  1  0  0  0  0
M  END
> <VConfSearch Rank>
189

> <Conf_Id>
155

> <Delta U+W>
1.624

> <U+W>
-26.202

> <U>
25.894

> <W>
-52.096

> <W(PB)>
-54.602

> <W(SA)>
2.506

> <Valence>
4.779

> <Coulomb>
19.659

> <VdW>
1.456

> <VdW6>
-9.843

> <VdW12>
11.299

> <Bond>
0.315

> <Angle>
1.725

> <Pdih>
2.740

> <Idih>
0.000

> <Tether>
0.000

$$$$
VeraChem MOL file


 29 28  0  0  0  0  0  0  0  0999 V2000     
   20.9584   21.5789   20.5482 C   0  0  0  0  0  0  0  0  0  0  0  0
   19.9036   21.3857   20.3168 H   0  0  0  0  0  0  0  0  0  0  0  0
   21.0032   22.2572   21.4101 H   0  0  0  0  0  0  0  0  0  0  0  0
   21.3953   22.1008   19.6869 H   0  0  0  0  0  0  0  0  0  0  0  0
   21.7257   20.2679   20.8326 C   0  0  0  0  0  0  0  0  0  0  0  0
   22.7944   20.4991   20.9432 H   0  0  0  0  0  0  0  0  0  0  0  0
   21.6445   19.5968   19.9661 H   0  0  0  0  0  0  0  0  0  0  0  0
   21.2401   19.5380   22.1079 C   0  0  0  0  0  0  0  0  0  0  0  0
   21.8989   18.6778   22.2901 H   0  0  0  0  0  0  0  0  0  0  0  0
   21.3572   20.2084   22.9692 H   0  0  0  0  0  0  0  0  0  0  0  0
   19.7747   19.0433   22.0101 C   0  0  0  0  0  0  0  0  0  0  0  0
   19.6486   18.4880   21.0705 H   0  0  0  0  0  0  0  0  0  0  0  0
   19.0902   19.9003   21.9575 H   0  0  0  0  0  0  0  0  0  0  0  0
   19.3505   18.1239   23.1820 C   0  0  0  0  0  0  0  0  0  0  0  0
   18.3562   17.7216   22.9499 H   0  0  0  0  0  0  0  0  0  0  0  0
   20.0288   17.2613   23.2371 H   0  0  0  0  0  0  0  0  0  0  0  0
   19.3121   18.8482   24.5530 C   0  0  0  0  0  0  0  0  0  0  0  0
   18.6251   19.7032   24.5015 H   0  0  0  0  0  0  0  0  0  0  0  0
   20.3059   19.2591   24.7676 H   0  0  0  0  0  0  0  0  0  0  0  0
   18.9121   17.9302   25.7311 C   0  0  2  0  0  0  0  0  0  0  0  0
   19.5713   17.0566   25.7249 H   0  0  0  0  0  0  0  0  0  0  0  0
   17.4556   17.4437   25.6231 C   0  0  0  0  0  0  0  0  0  0  0  0
   16.7588   18.2886   25.5569 H   0  0  0  0  0  0  0  0  0  0  0  0
   17.3103   16.8079   24.7424 H   0  0  0  0  0  0  0  0  0  0  0  0
   17.1822   16.8460   26.5014 H   0  0  0  0  0  0  0  0  0  0  0  0
   19.1315   18.6168   27.0506 N   0  3  0  0  0  0  0  0  0  0  0  0
   20.1059   18.9103   27.1658 H   0  0  0  0  0  0  0  0  0  0  0  0
   18.9049   17.9993   27.8355 H   0  0  0  0  0  0  0  0  0  0  0  0
   18.5458   19.4515   27.1397 H   0  0  0  0  0  0  0  0  0  0  0  0
  1  2  1  0  0  0  0
  1  3  1  0  0  0  0
  1  4  1  0  0  0  0
  1  5  1  0  0  0  0
  5  6  1  0  0  0  0
  5  7  1  0  0  0  0
  5  8  1  0  0  0  0
  8  9  1  0  0  0  0
  8 10  1  0  0  0  0
  8 11  1  0  0  0  0
 11 12  1  0  0  0  0
 11 13  1  0  0  0  0
 11 14  1  0  0  0  0
 14 15  1  0  0  0  0
 14 16  1  0  0  0  0
 14 17  1  0  0  0  0
 17 18  1  0  0  0  0
 17 19  1  0  0  0  0
 17 20  1  0  0  0  0
 20 21  1  0  0  0  0
 20 22  1  0  0  0  0
 22 23  1  0  0  0  0
 22 24  1  0  0  0  0
 22 25  1  0  0  0  0
 20 26  1  0  0  0  0
 26 27  1  0  0  0  0
 26 28  1  0  0  0  0
 26 29  1  0  0  0  0
M  END
> <VConfSearch Rank>
190

> <Conf_Id>
135

> <Delta U+W>
1.581

> <U+W>
-26.245

> <U>
25.974

> <W>
-52.219

> <W(PB)>
-54.709

> <W(SA)>
2.490

> <Valence>
4.811

> <Coulomb>
19.700

> <VdW>
1.463

> <VdW6>
-9.391

> <VdW12>
10.854

> <Bond>
0.285

> <Angle>
1.671

> <Pdih>
2.855

> <Idih>
0.000

> <Tether>
0.000

$$$$
VeraChem MOL file


 29 28  0  0  0  0  0  0  0  0999 V2000     
   22.2469   17.8617   26.4737 C   0  0  0  0  0  0  0  0  0  0  0  0
   21.5105   18.4318   27.0549 H   0  0  0  0  0  0  0  0  0  0  0  0
   21.7841   16.9163   26.1647 H   0  0  0  0  0  0  0  0  0  0  0  0
   23.0843   17.6173   27.1400 H   0  0  0  0  0  0  0  0  0  0  0  0
   22.7435   18.6743   25.2565 C   0  0  0  0  0  0  0  0  0  0  0  0
   23.4583   18.0730   24.6775 H   0  0  0  0  0  0  0  0  0  0  0  0
   23.3003   19.5501   25.6180 H   0  0  0  0  0  0  0  0  0  0  0  0
   21.5989   19.1587   24.3345 C   0  0  0  0  0  0  0  0  0  0  0  0
   20.9081   19.7821   24.9175 H   0  0  0  0  0  0  0  0  0  0  0  0
   22.0265   19.8090   23.5590 H   0  0  0  0  0  0  0  0  0  0  0  0
   20.8264   18.0000   23.6550 C   0  0  0  0  0  0  0  0  0  0  0  0
   20.2940   17.4080   24.4111 H   0  0  0  0  0  0  0  0  0  0  0  0
   21.5460   17.3199   23.1789 H   0  0  0  0  0  0  0  0  0  0  0  0
   19.8189   18.4803   22.5820 C   0  0  0  0  0  0  0  0  0  0  0  0
   20.3603   19.0373   21.8060 H   0  0  0  0  0  0  0  0  0  0  0  0
   19.3875   17.5984   22.0885 H   0  0  0  0  0  0  0  0  0  0  0  0
   18.6716   19.3472   23.1617 C   0  0  0  0  0  0  0  0  0  0  0  0
   19.0710   20.2968   23.5397 H   0  0  0  0  0  0  0  0  0  0  0  0
   18.2388   18.8235   24.0243 H   0  0  0  0  0  0  0  0  0  0  0  0
   17.5422   19.6368   22.1472 C   0  0  2  0  0  0  0  0  0  0  0  0
   17.1805   18.6816   21.7542 H   0  0  0  0  0  0  0  0  0  0  0  0
   18.0306   20.4957   20.9671 C   0  0  0  0  0  0  0  0  0  0  0  0
   18.4587   21.4435   21.3166 H   0  0  0  0  0  0  0  0  0  0  0  0
   18.7925   19.9700   20.3800 H   0  0  0  0  0  0  0  0  0  0  0  0
   17.2006   20.7272   20.2882 H   0  0  0  0  0  0  0  0  0  0  0  0
   16.3664   20.2923   22.8166 N   0  3  0  0  0  0  0  0  0  0  0  0
   15.6001   20.4500   22.1557 H   0  0  0  0  0  0  0  0  0  0  0  0
   16.6203   21.2015   23.2124 H   0  0  0  0  0  0  0  0  0  0  0  0
   15.9973   19.7167   23.5790 H   0  0  0  0  0  0  0  0  0  0  0  0
  1  2  1  0  0  0  0
  1  3  1  0  0  0  0
  1  4  1  0  0  0  0
  1  5  1  0  0  0  0
  5  6  1  0  0  0  0
  5  7  1  0  0  0  0
  5  8  1  0  0  0  0
  8  9  1  0  0  0  0
  8 10  1  0  0  0  0
  8 11  1  0  0  0  0
 11 12  1  0  0  0  0
 11 13  1  0  0  0  0
 11 14  1  0  0  0  0
 14 15  1  0  0  0  0
 14 16  1  0  0  0  0
 14 17  1  0  0  0  0
 17 18  1  0  0  0  0
 17 19  1  0  0  0  0
 17 20  1  0  0  0  0
 20 21  1  0  0  0  0
 20 22  1  0  0  0  0
 22 23  1  0  0  0  0
 22 24  1  0  0  0  0
 22 25  1  0  0  0  0
 20 26  1  0  0  0  0
 26 27  1  0  0  0  0
 26 28  1  0  0  0  0
 26 29  1  0  0  0  0
M  END
> <VConfSearch Rank>
191

> <Conf_Id>
130

> <Delta U+W>
1.359

> <U+W>
-26.467

> <U>
25.687

> <W>
-52.154

> <W(PB)>
-54.643

> <W(SA)>
2.489

> <Valence>
4.682

> <Coulomb>
19.653

> <VdW>
1.352

> <VdW6>
-9.477

> <VdW12>
10.829

> <Bond>
0.274

> <Angle>
1.550

> <Pdih>
2.858

> <Idih>
0.000

> <Tether>
0.000

$$$$
VeraChem MOL file


 29 28  0  0  0  0  0  0  0  0999 V2000     
   17.2717   19.2639   20.2841 C   0  0  0  0  0  0  0  0  0  0  0  0
   16.9831   18.7873   19.3383 H   0  0  0  0  0  0  0  0  0  0  0  0
   16.4237   19.8709   20.6266 H   0  0  0  0  0  0  0  0  0  0  0  0
   18.1125   19.9356   20.0711 H   0  0  0  0  0  0  0  0  0  0  0  0
   17.6502   18.1952   21.3344 C   0  0  0  0  0  0  0  0  0  0  0  0
   18.5210   17.6240   20.9834 H   0  0  0  0  0  0  0  0  0  0  0  0
   16.8243   17.4752   21.4192 H   0  0  0  0  0  0  0  0  0  0  0  0
   17.9409   18.7834   22.7363 C   0  0  0  0  0  0  0  0  0  0  0  0
   17.0606   19.3376   23.0895 H   0  0  0  0  0  0  0  0  0  0  0  0
   18.0778   17.9486   23.4352 H   0  0  0  0  0  0  0  0  0  0  0  0
   19.1857   19.7067   22.7704 C   0  0  0  0  0  0  0  0  0  0  0  0
   19.0073   20.5721   22.1191 H   0  0  0  0  0  0  0  0  0  0  0  0
   20.0491   19.1775   22.3494 H   0  0  0  0  0  0  0  0  0  0  0  0
   19.5124   20.2359   24.1911 C   0  0  0  0  0  0  0  0  0  0  0  0
   20.1933   21.0951   24.1158 H   0  0  0  0  0  0  0  0  0  0  0  0
   18.5883   20.6340   24.6327 H   0  0  0  0  0  0  0  0  0  0  0  0
   20.1196   19.1798   25.1559 C   0  0  0  0  0  0  0  0  0  0  0  0
   19.7929   18.1683   24.8867 H   0  0  0  0  0  0  0  0  0  0  0  0
   19.7110   19.3688   26.1573 H   0  0  0  0  0  0  0  0  0  0  0  0
   21.6625   19.2197   25.2668 C   0  0  2  0  0  0  0  0  0  0  0  0
   21.9561   20.2277   25.5754 H   0  0  0  0  0  0  0  0  0  0  0  0
   22.3624   18.9020   23.9346 C   0  0  0  0  0  0  0  0  0  0  0  0
   22.1566   19.6771   23.1875 H   0  0  0  0  0  0  0  0  0  0  0  0
   23.4505   18.8637   24.0685 H   0  0  0  0  0  0  0  0  0  0  0  0
   22.0339   17.9350   23.5337 H   0  0  0  0  0  0  0  0  0  0  0  0
   22.1499   18.2904   26.3436 N   0  3  0  0  0  0  0  0  0  0  0  0
   21.7324   18.5135   27.2518 H   0  0  0  0  0  0  0  0  0  0  0  0
   23.1664   18.3465   26.4538 H   0  0  0  0  0  0  0  0  0  0  0  0
   21.9191   17.3165   26.1294 H   0  0  0  0  0  0  0  0  0  0  0  0
  1  2  1  0  0  0  0
  1  3  1  0  0  0  0
  1  4  1  0  0  0  0
  1  5  1  0  0  0  0
  5  6  1  0  0  0  0
  5  7  1  0  0  0  0
  5  8  1  0  0  0  0
  8  9  1  0  0  0  0
  8 10  1  0  0  0  0
  8 11  1  0  0  0  0
 11 12  1  0  0  0  0
 11 13  1  0  0  0  0
 11 14  1  0  0  0  0
 14 15  1  0  0  0  0
 14 16  1  0  0  0  0
 14 17  1  0  0  0  0
 17 18  1  0  0  0  0
 17 19  1  0  0  0  0
 17 20  1  0  0  0  0
 20 21  1  0  0  0  0
 20 22  1  0  0  0  0
 22 23  1  0  0  0  0
 22 24  1  0  0  0  0
 22 25  1  0  0  0  0
 20 26  1  0  0  0  0
 26 27  1  0  0  0  0
 26 28  1  0  0  0  0
 26 29  1  0  0  0  0
M  END
> <VConfSearch Rank>
192

> <Conf_Id>
157

> <Delta U+W>
4.354

> <U+W>
-23.472

> <U>
28.780

> <W>
-52.252

> <W(PB)>
-54.715

> <W(SA)>
2.462

> <Valence>
7.566

> <Coulomb>
19.822

> <VdW>
1.392

> <VdW6>
-10.248

> <VdW12>
11.641

> <Bond>
0.340

> <Angle>
2.096

> <Pdih>
5.129

> <Idih>
0.000

> <Tether>
0.000

$$$$
VeraChem MOL file


 29 28  0  0  0  0  0  0  0  0999 V2000     
   16.9196   18.2796   21.2894 C   0  0  0  0  0  0  0  0  0  0  0  0
   15.9923   18.6758   20.8558 H   0  0  0  0  0  0  0  0  0  0  0  0
   17.7168   19.0034   21.0872 H   0  0  0  0  0  0  0  0  0  0  0  0
   17.1650   17.3506   20.7586 H   0  0  0  0  0  0  0  0  0  0  0  0
   16.7404   18.0185   22.8032 C   0  0  0  0  0  0  0  0  0  0  0  0
   15.9172   17.3011   22.9276 H   0  0  0  0  0  0  0  0  0  0  0  0
   16.4202   18.9370   23.3144 H   0  0  0  0  0  0  0  0  0  0  0  0
   18.0084   17.4380   23.4805 C   0  0  0  0  0  0  0  0  0  0  0  0
   17.6874   16.7150   24.2431 H   0  0  0  0  0  0  0  0  0  0  0  0
   18.5961   16.8596   22.7544 H   0  0  0  0  0  0  0  0  0  0  0  0
   18.9107   18.4854   24.1828 C   0  0  0  0  0  0  0  0  0  0  0  0
   19.7249   17.9441   24.6817 H   0  0  0  0  0  0  0  0  0  0  0  0
   18.3398   18.9812   24.9799 H   0  0  0  0  0  0  0  0  0  0  0  0
   19.5016   19.5560   23.2327 C   0  0  0  0  0  0  0  0  0  0  0  0
   20.0023   19.0690   22.3856 H   0  0  0  0  0  0  0  0  0  0  0  0
   18.6827   20.1506   22.8081 H   0  0  0  0  0  0  0  0  0  0  0  0
   20.4772   20.5319   23.9397 C   0  0  0  0  0  0  0  0  0  0  0  0
   19.9320   21.0665   24.7290 H   0  0  0  0  0  0  0  0  0  0  0  0
   20.8004   21.2956   23.2199 H   0  0  0  0  0  0  0  0  0  0  0  0
   21.7224   19.8561   24.5569 C   0  0  2  0  0  0  0  0  0  0  0  0
   21.3874   19.1210   25.2943 H   0  0  0  0  0  0  0  0  0  0  0  0
   22.5914   20.8966   25.2809 C   0  0  0  0  0  0  0  0  0  0  0  0
   22.9626   21.6584   24.5840 H   0  0  0  0  0  0  0  0  0  0  0  0
   22.0183   21.4031   26.0675 H   0  0  0  0  0  0  0  0  0  0  0  0
   23.4564   20.4172   25.7557 H   0  0  0  0  0  0  0  0  0  0  0  0
   22.5335   19.1065   23.5362 N   0  3  0  0  0  0  0  0  0  0  0  0
   21.9730   18.3844   23.0753 H   0  0  0  0  0  0  0  0  0  0  0  0
   23.3404   18.6439   23.9647 H   0  0  0  0  0  0  0  0  0  0  0  0
   22.8887   19.7332   22.8092 H   0  0  0  0  0  0  0  0  0  0  0  0
  1  2  1  0  0  0  0
  1  3  1  0  0  0  0
  1  4  1  0  0  0  0
  1  5  1  0  0  0  0
  5  6  1  0  0  0  0
  5  7  1  0  0  0  0
  5  8  1  0  0  0  0
  8  9  1  0  0  0  0
  8 10  1  0  0  0  0
  8 11  1  0  0  0  0
 11 12  1  0  0  0  0
 11 13  1  0  0  0  0
 11 14  1  0  0  0  0
 14 15  1  0  0  0  0
 14 16  1  0  0  0  0
 14 17  1  0  0  0  0
 17 18  1  0  0  0  0
 17 19  1  0  0  0  0
 17 20  1  0  0  0  0
 20 21  1  0  0  0  0
 20 22  1  0  0  0  0
 22 23  1  0  0  0  0
 22 24  1  0  0  0  0
 22 25  1  0  0  0  0
 20 26  1  0  0  0  0
 26 27  1  0  0  0  0
 26 28  1  0  0  0  0
 26 29  1  0  0  0  0
M  END
> <VConfSearch Rank>
193

> <Conf_Id>
158

> <Delta U+W>
3.648

> <U+W>
-24.178

> <U>
28.057

> <W>
-52.235

> <W(PB)>
-54.696

> <W(SA)>
2.460

> <Valence>
6.543

> <Coulomb>
20.387

> <VdW>
1.127

> <VdW6>
-10.342

> <VdW12>
11.469

> <Bond>
0.308

> <Angle>
1.938

> <Pdih>
4.297

> <Idih>
0.000

> <Tether>
0.000

$$$$
VeraChem MOL file


 29 28  0  0  0  0  0  0  0  0999 V2000     
   16.8595   20.1818   25.4229 C   0  0  0  0  0  0  0  0  0  0  0  0
   16.2331   19.8907   24.5697 H   0  0  0  0  0  0  0  0  0  0  0  0
   17.4459   19.3083   25.7335 H   0  0  0  0  0  0  0  0  0  0  0  0
   16.1929   20.4439   26.2547 H   0  0  0  0  0  0  0  0  0  0  0  0
   17.7692   21.3780   25.0619 C   0  0  0  0  0  0  0  0  0  0  0  0
   18.4082   21.6288   25.9200 H   0  0  0  0  0  0  0  0  0  0  0  0
   17.1388   22.2596   24.8799 H   0  0  0  0  0  0  0  0  0  0  0  0
   18.6462   21.1286   23.8112 C   0  0  0  0  0  0  0  0  0  0  0  0
   18.0017   20.8960   22.9523 H   0  0  0  0  0  0  0  0  0  0  0  0
   19.1702   22.0614   23.5609 H   0  0  0  0  0  0  0  0  0  0  0  0
   19.6871   20.0000   24.0031 C   0  0  0  0  0  0  0  0  0  0  0  0
   19.1723   19.0533   24.2002 H   0  0  0  0  0  0  0  0  0  0  0  0
   20.2984   20.2155   24.8903 H   0  0  0  0  0  0  0  0  0  0  0  0
   20.6095   19.8567   22.7677 C   0  0  0  0  0  0  0  0  0  0  0  0
   20.0123   19.7160   21.8561 H   0  0  0  0  0  0  0  0  0  0  0  0
   21.1494   20.8042   22.6324 H   0  0  0  0  0  0  0  0  0  0  0  0
   21.6497   18.7134   22.9047 C   0  0  0  0  0  0  0  0  0  0  0  0
   21.8838   18.5358   23.9628 H   0  0  0  0  0  0  0  0  0  0  0  0
   22.5862   19.0563   22.4453 H   0  0  0  0  0  0  0  0  0  0  0  0
   21.2523   17.3861   22.2148 C   0  0  2  0  0  0  0  0  0  0  0  0
   21.0757   17.5934   21.1549 H   0  0  0  0  0  0  0  0  0  0  0  0
   19.9728   16.7664   22.8013 C   0  0  0  0  0  0  0  0  0  0  0  0
   20.0606   16.6238   23.8855 H   0  0  0  0  0  0  0  0  0  0  0  0
   19.1015   17.4008   22.6016 H   0  0  0  0  0  0  0  0  0  0  0  0
   19.7713   15.7897   22.3444 H   0  0  0  0  0  0  0  0  0  0  0  0
   22.3805   16.3937   22.2675 N   0  3  0  0  0  0  0  0  0  0  0  0
   23.2318   16.7671   21.8378 H   0  0  0  0  0  0  0  0  0  0  0  0
   22.1424   15.5302   21.7711 H   0  0  0  0  0  0  0  0  0  0  0  0
   22.6090   16.1385   23.2320 H   0  0  0  0  0  0  0  0  0  0  0  0
  1  2  1  0  0  0  0
  1  3  1  0  0  0  0
  1  4  1  0  0  0  0
  1  5  1  0  0  0  0
  5  6  1  0  0  0  0
  5  7  1  0  0  0  0
  5  8  1  0  0  0  0
  8  9  1  0  0  0  0
  8 10  1  0  0  0  0
  8 11  1  0  0  0  0
 11 12  1  0  0  0  0
 11 13  1  0  0  0  0
 11 14  1  0  0  0  0
 14 15  1  0  0  0  0
 14 16  1  0  0  0  0
 14 17  1  0  0  0  0
 17 18  1  0  0  0  0
 17 19  1  0  0  0  0
 17 20  1  0  0  0  0
 20 21  1  0  0  0  0
 20 22  1  0  0  0  0
 22 23  1  0  0  0  0
 22 24  1  0  0  0  0
 22 25  1  0  0  0  0
 20 26  1  0  0  0  0
 26 27  1  0  0  0  0
 26 28  1  0  0  0  0
 26 29  1  0  0  0  0
M  END
> <VConfSearch Rank>
194

> <Conf_Id>
156

> <Delta U+W>
3.393

> <U+W>
-24.433

> <U>
27.713

> <W>
-52.146

> <W(PB)>
-54.603

> <W(SA)>
2.458

> <Valence>
6.758

> <Coulomb>
19.720

> <VdW>
1.235

> <VdW6>
-9.782

> <VdW12>
11.017

> <Bond>
0.287

> <Angle>
1.880

> <Pdih>
4.591

> <Idih>
0.000

> <Tether>
0.000

$$$$
VeraChem MOL file


 29 28  0  0  0  0  0  0  0  0999 V2000     
   17.0596   21.9282   22.9305 C   0  0  0  0  0  0  0  0  0  0  0  0
   17.8286   22.6385   23.2612 H   0  0  0  0  0  0  0  0  0  0  0  0
   16.6851   22.2598   21.9533 H   0  0  0  0  0  0  0  0  0  0  0  0
   16.2270   21.9762   23.6443 H   0  0  0  0  0  0  0  0  0  0  0  0
   17.6267   20.4951   22.8505 C   0  0  0  0  0  0  0  0  0  0  0  0
   16.8289   19.8033   22.5464 H   0  0  0  0  0  0  0  0  0  0  0  0
   17.9534   20.1854   23.8520 H   0  0  0  0  0  0  0  0  0  0  0  0
   18.8054   20.4033   21.8532 C   0  0  0  0  0  0  0  0  0  0  0  0
   18.4780   20.7900   20.8783 H   0  0  0  0  0  0  0  0  0  0  0  0
   19.6200   21.0634   22.1789 H   0  0  0  0  0  0  0  0  0  0  0  0
   19.3377   18.9610   21.6501 C   0  0  0  0  0  0  0  0  0  0  0  0
   20.1519   18.9864   20.9129 H   0  0  0  0  0  0  0  0  0  0  0  0
   18.5435   18.3509   21.1981 H   0  0  0  0  0  0  0  0  0  0  0  0
   19.8421   18.2480   22.9316 C   0  0  0  0  0  0  0  0  0  0  0  0
   19.0061   18.1073   23.6282 H   0  0  0  0  0  0  0  0  0  0  0  0
   20.1708   17.2407   22.6456 H   0  0  0  0  0  0  0  0  0  0  0  0
   21.0079   18.9952   23.6350 C   0  0  0  0  0  0  0  0  0  0  0  0
   20.6703   19.9912   23.9466 H   0  0  0  0  0  0  0  0  0  0  0  0
   21.8201   19.1611   22.9150 H   0  0  0  0  0  0  0  0  0  0  0  0
   21.5834   18.2788   24.8795 C   0  0  2  0  0  0  0  0  0  0  0  0
   22.3519   18.9326   25.3034 H   0  0  0  0  0  0  0  0  0  0  0  0
   22.2580   16.9430   24.5215 C   0  0  0  0  0  0  0  0  0  0  0  0
   22.7787   16.5311   25.3947 H   0  0  0  0  0  0  0  0  0  0  0  0
   21.5293   16.1965   24.1847 H   0  0  0  0  0  0  0  0  0  0  0  0
   23.0013   17.0821   23.7267 H   0  0  0  0  0  0  0  0  0  0  0  0
   20.5543   18.0904   25.9599 N   0  3  0  0  0  0  0  0  0  0  0  0
   20.1345   18.9820   26.2378 H   0  0  0  0  0  0  0  0  0  0  0  0
   20.9656   17.6706   26.7985 H   0  0  0  0  0  0  0  0  0  0  0  0
   19.7982   17.4760   25.6481 H   0  0  0  0  0  0  0  0  0  0  0  0
  1  2  1  0  0  0  0
  1  3  1  0  0  0  0
  1  4  1  0  0  0  0
  1  5  1  0  0  0  0
  5  6  1  0  0  0  0
  5  7  1  0  0  0  0
  5  8  1  0  0  0  0
  8  9  1  0  0  0  0
  8 10  1  0  0  0  0
  8 11  1  0  0  0  0
 11 12  1  0  0  0  0
 11 13  1  0  0  0  0
 11 14  1  0  0  0  0
 14 15  1  0  0  0  0
 14 16  1  0  0  0  0
 14 17  1  0  0  0  0
 17 18  1  0  0  0  0
 17 19  1  0  0  0  0
 17 20  1  0  0  0  0
 20 21  1  0  0  0  0
 20 22  1  0  0  0  0
 22 23  1  0  0  0  0
 22 24  1  0  0  0  0
 22 25  1  0  0  0  0
 20 26  1  0  0  0  0
 26 27  1  0  0  0  0
 26 28  1  0  0  0  0
 26 29  1  0  0  0  0
M  END
> <VConfSearch Rank>
195

> <Conf_Id>
78

> <Delta U+W>
1.477

> <U+W>
-26.349

> <U>
26.385

> <W>
-52.734

> <W(PB)>
-55.179

> <W(SA)>
2.445

> <Valence>
4.726

> <Coulomb>
20.482

> <VdW>
1.177

> <VdW6>
-10.349

> <VdW12>
11.526

> <Bond>
0.319

> <Angle>
1.933

> <Pdih>
2.474

> <Idih>
0.000

> <Tether>
0.000

$$$$
VeraChem MOL file


 29 28  0  0  0  0  0  0  0  0999 V2000     
   18.1000   22.2464   22.6422 C   0  0  0  0  0  0  0  0  0  0  0  0
   17.1798   22.0162   22.0896 H   0  0  0  0  0  0  0  0  0  0  0  0
   18.0491   21.7334   23.6089 H   0  0  0  0  0  0  0  0  0  0  0  0
   18.1091   23.3263   22.8382 H   0  0  0  0  0  0  0  0  0  0  0  0
   19.3489   21.8336   21.8289 C   0  0  0  0  0  0  0  0  0  0  0  0
   20.2650   22.1379   22.3540 H   0  0  0  0  0  0  0  0  0  0  0  0
   19.3401   22.3974   20.8856 H   0  0  0  0  0  0  0  0  0  0  0  0
   19.3938   20.3193   21.4994 C   0  0  0  0  0  0  0  0  0  0  0  0
   18.3747   19.9131   21.4384 H   0  0  0  0  0  0  0  0  0  0  0  0
   19.8192   20.2012   20.4932 H   0  0  0  0  0  0  0  0  0  0  0  0
   20.2498   19.4653   22.4700 C   0  0  0  0  0  0  0  0  0  0  0  0
   21.2914   19.8135   22.4397 H   0  0  0  0  0  0  0  0  0  0  0  0
   20.2595   18.4359   22.0889 H   0  0  0  0  0  0  0  0  0  0  0  0
   19.7481   19.4715   23.9349 C   0  0  0  0  0  0  0  0  0  0  0  0
   19.8200   20.4907   24.3353 H   0  0  0  0  0  0  0  0  0  0  0  0
   18.6843   19.2022   23.9676 H   0  0  0  0  0  0  0  0  0  0  0  0
   20.5648   18.5394   24.8673 C   0  0  0  0  0  0  0  0  0  0  0  0
   20.1755   18.6308   25.8900 H   0  0  0  0  0  0  0  0  0  0  0  0
   21.5997   18.9048   24.9024 H   0  0  0  0  0  0  0  0  0  0  0  0
   20.5799   17.0463   24.4621 C   0  0  2  0  0  0  0  0  0  0  0  0
   20.9867   16.9660   23.4500 H   0  0  0  0  0  0  0  0  0  0  0  0
   19.1701   16.4293   24.4706 C   0  0  0  0  0  0  0  0  0  0  0  0
   19.2147   15.3598   24.2310 H   0  0  0  0  0  0  0  0  0  0  0  0
   18.6950   16.5388   25.4534 H   0  0  0  0  0  0  0  0  0  0  0  0
   18.5247   16.9028   23.7216 H   0  0  0  0  0  0  0  0  0  0  0  0
   21.5006   16.2547   25.3486 N   0  3  0  0  0  0  0  0  0  0  0  0
   21.1879   16.2725   26.3231 H   0  0  0  0  0  0  0  0  0  0  0  0
   22.4558   16.6232   25.3251 H   0  0  0  0  0  0  0  0  0  0  0  0
   21.5454   15.2732   25.0600 H   0  0  0  0  0  0  0  0  0  0  0  0
  1  2  1  0  0  0  0
  1  3  1  0  0  0  0
  1  4  1  0  0  0  0
  1  5  1  0  0  0  0
  5  6  1  0  0  0  0
  5  7  1  0  0  0  0
  5  8  1  0  0  0  0
  8  9  1  0  0  0  0
  8 10  1  0  0  0  0
  8 11  1  0  0  0  0
 11 12  1  0  0  0  0
 11 13  1  0  0  0  0
 11 14  1  0  0  0  0
 14 15  1  0  0  0  0
 14 16  1  0  0  0  0
 14 17  1  0  0  0  0
 17 18  1  0  0  0  0
 17 19  1  0  0  0  0
 17 20  1  0  0  0  0
 20 21  1  0  0  0  0
 20 22  1  0  0  0  0
 22 23  1  0  0  0  0
 22 24  1  0  0  0  0
 22 25  1  0  0  0  0
 20 26  1  0  0  0  0
 26 27  1  0  0  0  0
 26 28  1  0  0  0  0
 26 29  1  0  0  0  0
M  END
> <VConfSearch Rank>
196

> <Conf_Id>
145

> <Delta U+W>
3.784

> <U+W>
-24.042

> <U>
28.220

> <W>
-52.262

> <W(PB)>
-54.724

> <W(SA)>
2.462

> <Valence>
7.040

> <Coulomb>
19.984

> <VdW>
1.197

> <VdW6>
-10.566

> <VdW12>
11.763

> <Bond>
0.320

> <Angle>
2.280

> <Pdih>
4.439

> <Idih>
0.000

> <Tether>
0.000

$$$$
VeraChem MOL file


 29 28  0  0  0  0  0  0  0  0999 V2000     
   19.6276   21.3611   26.7978 C   0  0  0  0  0  0  0  0  0  0  0  0
   18.9207   21.1943   27.6211 H   0  0  0  0  0  0  0  0  0  0  0  0
   20.5402   20.7889   27.0094 H   0  0  0  0  0  0  0  0  0  0  0  0
   19.8917   22.4266   26.7911 H   0  0  0  0  0  0  0  0  0  0  0  0
   19.0127   20.9435   25.4454 C   0  0  0  0  0  0  0  0  0  0  0  0
   19.7267   21.1635   24.6426 H   0  0  0  0  0  0  0  0  0  0  0  0
   18.1228   21.5572   25.2477 H   0  0  0  0  0  0  0  0  0  0  0  0
   18.6210   19.4462   25.4354 C   0  0  0  0  0  0  0  0  0  0  0  0
   19.4853   18.8214   25.6992 H   0  0  0  0  0  0  0  0  0  0  0  0
   17.8772   19.2832   26.2276 H   0  0  0  0  0  0  0  0  0  0  0  0
   18.0138   18.9768   24.0876 C   0  0  0  0  0  0  0  0  0  0  0  0
   17.5225   19.8166   23.5771 H   0  0  0  0  0  0  0  0  0  0  0  0
   17.2138   18.2559   24.3061 H   0  0  0  0  0  0  0  0  0  0  0  0
   19.0167   18.2836   23.1295 C   0  0  0  0  0  0  0  0  0  0  0  0
   19.4152   17.3849   23.6188 H   0  0  0  0  0  0  0  0  0  0  0  0
   18.4546   17.9340   22.2543 H   0  0  0  0  0  0  0  0  0  0  0  0
   20.1868   19.1935   22.6692 C   0  0  0  0  0  0  0  0  0  0  0  0
   20.7960   19.4658   23.5395 H   0  0  0  0  0  0  0  0  0  0  0  0
   19.7837   20.1325   22.2675 H   0  0  0  0  0  0  0  0  0  0  0  0
   21.1270   18.5627   21.6149 C   0  0  2  0  0  0  0  0  0  0  0  0
   21.9403   19.2737   21.4394 H   0  0  0  0  0  0  0  0  0  0  0  0
   20.4186   18.3299   20.2688 C   0  0  0  0  0  0  0  0  0  0  0  0
   21.1417   18.0194   19.5047 H   0  0  0  0  0  0  0  0  0  0  0  0
   19.6532   17.5484   20.3408 H   0  0  0  0  0  0  0  0  0  0  0  0
   19.9381   19.2511   19.9164 H   0  0  0  0  0  0  0  0  0  0  0  0
   21.7769   17.2993   22.1078 N   0  3  0  0  0  0  0  0  0  0  0  0
   21.0813   16.5709   22.2874 H   0  0  0  0  0  0  0  0  0  0  0  0
   22.2914   17.4570   22.9791 H   0  0  0  0  0  0  0  0  0  0  0  0
   22.4411   16.9282   21.4224 H   0  0  0  0  0  0  0  0  0  0  0  0
  1  2  1  0  0  0  0
  1  3  1  0  0  0  0
  1  4  1  0  0  0  0
  1  5  1  0  0  0  0
  5  6  1  0  0  0  0
  5  7  1  0  0  0  0
  5  8  1  0  0  0  0
  8  9  1  0  0  0  0
  8 10  1  0  0  0  0
  8 11  1  0  0  0  0
 11 12  1  0  0  0  0
 11 13  1  0  0  0  0
 11 14  1  0  0  0  0
 14 15  1  0  0  0  0
 14 16  1  0  0  0  0
 14 17  1  0  0  0  0
 17 18  1  0  0  0  0
 17 19  1  0  0  0  0
 17 20  1  0  0  0  0
 20 21  1  0  0  0  0
 20 22  1  0  0  0  0
 22 23  1  0  0  0  0
 22 24  1  0  0  0  0
 22 25  1  0  0  0  0
 20 26  1  0  0  0  0
 26 27  1  0  0  0  0
 26 28  1  0  0  0  0
 26 29  1  0  0  0  0
M  END
> <VConfSearch Rank>
197

> <Conf_Id>
71

> <Delta U+W>
3.542

> <U+W>
-24.284

> <U>
28.217

> <W>
-52.501

> <W(PB)>
-54.947

> <W(SA)>
2.446

> <Valence>
6.821

> <Coulomb>
20.147

> <VdW>
1.249

> <VdW6>
-10.237

> <VdW12>
11.486

> <Bond>
0.317

> <Angle>
1.990

> <Pdih>
4.515

> <Idih>
0.000

> <Tether>
0.000

$$$$
VeraChem MOL file


 29 28  0  0  0  0  0  0  0  0999 V2000     
   15.9653   18.7893   24.2330 C   0  0  0  0  0  0  0  0  0  0  0  0
   15.9335   18.8269   23.1363 H   0  0  0  0  0  0  0  0  0  0  0  0
   15.4713   17.8643   24.5580 H   0  0  0  0  0  0  0  0  0  0  0  0
   15.3812   19.6360   24.6164 H   0  0  0  0  0  0  0  0  0  0  0  0
   17.4189   18.8525   24.7476 C   0  0  0  0  0  0  0  0  0  0  0  0
   17.4141   18.8474   25.8465 H   0  0  0  0  0  0  0  0  0  0  0  0
   17.8663   19.8059   24.4426 H   0  0  0  0  0  0  0  0  0  0  0  0
   18.2594   17.6612   24.2282 C   0  0  0  0  0  0  0  0  0  0  0  0
   17.7914   16.7331   24.5847 H   0  0  0  0  0  0  0  0  0  0  0  0
   18.2237   17.6159   23.1311 H   0  0  0  0  0  0  0  0  0  0  0  0
   19.7323   17.6852   24.7138 C   0  0  0  0  0  0  0  0  0  0  0  0
   20.0479   16.6488   24.8974 H   0  0  0  0  0  0  0  0  0  0  0  0
   19.8059   18.1924   25.6857 H   0  0  0  0  0  0  0  0  0  0  0  0
   20.7367   18.3065   23.7092 C   0  0  0  0  0  0  0  0  0  0  0  0
   21.7459   18.1916   24.1254 H   0  0  0  0  0  0  0  0  0  0  0  0
   20.7184   17.7208   22.7805 H   0  0  0  0  0  0  0  0  0  0  0  0
   20.4737   19.8026   23.3923 C   0  0  0  0  0  0  0  0  0  0  0  0
   20.3559   20.3574   24.3322 H   0  0  0  0  0  0  0  0  0  0  0  0
   19.5224   19.8986   22.8544 H   0  0  0  0  0  0  0  0  0  0  0  0
   21.5737   20.4913   22.5505 C   0  0  2  0  0  0  0  0  0  0  0  0
   21.2661   21.5311   22.4019 H   0  0  0  0  0  0  0  0  0  0  0  0
   21.7258   19.8473   21.1615 C   0  0  0  0  0  0  0  0  0  0  0  0
   20.7604   19.8085   20.6420 H   0  0  0  0  0  0  0  0  0  0  0  0
   22.4146   20.4329   20.5404 H   0  0  0  0  0  0  0  0  0  0  0  0
   22.1211   18.8267   21.2295 H   0  0  0  0  0  0  0  0  0  0  0  0
   22.8952   20.5473   23.2662 N   0  3  0  0  0  0  0  0  0  0  0  0
   22.8110   21.0134   24.1742 H   0  0  0  0  0  0  0  0  0  0  0  0
   23.5939   21.0612   22.7218 H   0  0  0  0  0  0  0  0  0  0  0  0
   23.2666   19.6091   23.4344 H   0  0  0  0  0  0  0  0  0  0  0  0
  1  2  1  0  0  0  0
  1  3  1  0  0  0  0
  1  4  1  0  0  0  0
  1  5  1  0  0  0  0
  5  6  1  0  0  0  0
  5  7  1  0  0  0  0
  5  8  1  0  0  0  0
  8  9  1  0  0  0  0
  8 10  1  0  0  0  0
  8 11  1  0  0  0  0
 11 12  1  0  0  0  0
 11 13  1  0  0  0  0
 11 14  1  0  0  0  0
 14 15  1  0  0  0  0
 14 16  1  0  0  0  0
 14 17  1  0  0  0  0
 17 18  1  0  0  0  0
 17 19  1  0  0  0  0
 17 20  1  0  0  0  0
 20 21  1  0  0  0  0
 20 22  1  0  0  0  0
 22 23  1  0  0  0  0
 22 24  1  0  0  0  0
 22 25  1  0  0  0  0
 20 26  1  0  0  0  0
 26 27  1  0  0  0  0
 26 28  1  0  0  0  0
 26 29  1  0  0  0  0
M  END
> <VConfSearch Rank>
198

> <Conf_Id>
163

> <Delta U+W>
3.309

> <U+W>
-24.517

> <U>
27.916

> <W>
-52.433

> <W(PB)>
-54.866

> <W(SA)>
2.433

> <Valence>
6.693

> <Coulomb>
20.015

> <VdW>
1.208

> <VdW6>
-10.294

> <VdW12>
11.503

> <Bond>
0.312

> <Angle>
1.939

> <Pdih>
4.441

> <Idih>
0.000

> <Tether>
0.000

$$$$
VeraChem MOL file


 29 28  0  0  0  0  0  0  0  0999 V2000     
   21.9453   16.2055   25.1293 C   0  0  0  0  0  0  0  0  0  0  0  0
   21.9683   15.4458   24.3372 H   0  0  0  0  0  0  0  0  0  0  0  0
   22.7250   16.9475   24.9177 H   0  0  0  0  0  0  0  0  0  0  0  0
   22.2078   15.7128   26.0744 H   0  0  0  0  0  0  0  0  0  0  0  0
   20.5490   16.8601   25.2311 C   0  0  0  0  0  0  0  0  0  0  0  0
   20.5612   17.6400   26.0052 H   0  0  0  0  0  0  0  0  0  0  0  0
   19.8286   16.1024   25.5697 H   0  0  0  0  0  0  0  0  0  0  0  0
   20.0473   17.4571   23.8940 C   0  0  0  0  0  0  0  0  0  0  0  0
   20.0329   16.6731   23.1244 H   0  0  0  0  0  0  0  0  0  0  0  0
   19.0057   17.7732   24.0348 H   0  0  0  0  0  0  0  0  0  0  0  0
   20.8916   18.6592   23.4004 C   0  0  0  0  0  0  0  0  0  0  0  0
   21.9327   18.3410   23.2614 H   0  0  0  0  0  0  0  0  0  0  0  0
   20.9134   19.4377   24.1744 H   0  0  0  0  0  0  0  0  0  0  0  0
   20.3942   19.2554   22.0577 C   0  0  0  0  0  0  0  0  0  0  0  0
   21.0778   20.0590   21.7526 H   0  0  0  0  0  0  0  0  0  0  0  0
   20.4728   18.4880   21.2753 H   0  0  0  0  0  0  0  0  0  0  0  0
   18.9405   19.7991   22.0779 C   0  0  0  0  0  0  0  0  0  0  0  0
   18.2423   18.9591   22.1845 H   0  0  0  0  0  0  0  0  0  0  0  0
   18.7163   20.2519   21.1030 H   0  0  0  0  0  0  0  0  0  0  0  0
   18.6678   20.8308   23.1947 C   0  0  2  0  0  0  0  0  0  0  0  0
   18.8928   20.3626   24.1577 H   0  0  0  0  0  0  0  0  0  0  0  0
   17.1870   21.2415   23.1953 C   0  0  0  0  0  0  0  0  0  0  0  0
   16.9799   21.9458   24.0104 H   0  0  0  0  0  0  0  0  0  0  0  0
   16.9077   21.7217   22.2491 H   0  0  0  0  0  0  0  0  0  0  0  0
   16.5404   20.3669   23.3387 H   0  0  0  0  0  0  0  0  0  0  0  0
   19.5541   22.0407   23.0826 N   0  3  0  0  0  0  0  0  0  0  0  0
   20.5434   21.7793   23.1116 H   0  0  0  0  0  0  0  0  0  0  0  0
   19.3863   22.7009   23.8471 H   0  0  0  0  0  0  0  0  0  0  0  0
   19.3926   22.5402   22.2041 H   0  0  0  0  0  0  0  0  0  0  0  0
  1  2  1  0  0  0  0
  1  3  1  0  0  0  0
  1  4  1  0  0  0  0
  1  5  1  0  0  0  0
  5  6  1  0  0  0  0
  5  7  1  0  0  0  0
  5  8  1  0  0  0  0
  8  9  1  0  0  0  0
  8 10  1  0  0  0  0
  8 11  1  0  0  0  0
 11 12  1  0  0  0  0
 11 13  1  0  0  0  0
 11 14  1  0  0  0  0
 14 15  1  0  0  0  0
 14 16  1  0  0  0  0
 14 17  1  0  0  0  0
 17 18  1  0  0  0  0
 17 19  1  0  0  0  0
 17 20  1  0  0  0  0
 20 21  1  0  0  0  0
 20 22  1  0  0  0  0
 22 23  1  0  0  0  0
 22 24  1  0  0  0  0
 22 25  1  0  0  0  0
 20 26  1  0  0  0  0
 26 27  1  0  0  0  0
 26 28  1  0  0  0  0
 26 29  1  0  0  0  0
M  END
> <VConfSearch Rank>
199

> <Conf_Id>
173

> <Delta U+W>
1.363

> <U+W>
-26.462

> <U>
25.816

> <W>
-52.279

> <W(PB)>
-54.727

> <W(SA)>
2.449

> <Valence>
4.504

> <Coulomb>
20.342

> <VdW>
0.971

> <VdW6>
-10.532

> <VdW12>
11.503

> <Bond>
0.307

> <Angle>
1.715

> <Pdih>
2.481

> <Idih>
0.000

> <Tether>
0.000

$$$$
VeraChem MOL file


 29 28  0  0  0  0  0  0  0  0999 V2000     
   18.8049   22.1279   21.4007 C   0  0  0  0  0  0  0  0  0  0  0  0
   17.8576   21.7492   20.9951 H   0  0  0  0  0  0  0  0  0  0  0  0
   18.6238   23.1279   21.8160 H   0  0  0  0  0  0  0  0  0  0  0  0
   19.5110   22.2325   20.5667 H   0  0  0  0  0  0  0  0  0  0  0  0
   19.3684   21.1741   22.4752 C   0  0  0  0  0  0  0  0  0  0  0  0
   20.3275   21.5649   22.8424 H   0  0  0  0  0  0  0  0  0  0  0  0
   19.5703   20.1994   22.0117 H   0  0  0  0  0  0  0  0  0  0  0  0
   18.3863   21.0021   23.6563 C   0  0  0  0  0  0  0  0  0  0  0  0
   18.1020   21.9949   24.0314 H   0  0  0  0  0  0  0  0  0  0  0  0
   17.4596   20.5359   23.2944 H   0  0  0  0  0  0  0  0  0  0  0  0
   18.9481   20.1768   24.8428 C   0  0  0  0  0  0  0  0  0  0  0  0
   18.1785   20.1602   25.6269 H   0  0  0  0  0  0  0  0  0  0  0  0
   19.8106   20.6927   25.2867 H   0  0  0  0  0  0  0  0  0  0  0  0
   19.3159   18.7108   24.4948 C   0  0  0  0  0  0  0  0  0  0  0  0
   19.0560   18.0799   25.3551 H   0  0  0  0  0  0  0  0  0  0  0  0
   18.6906   18.3637   23.6622 H   0  0  0  0  0  0  0  0  0  0  0  0
   20.8253   18.5189   24.1787 C   0  0  0  0  0  0  0  0  0  0  0  0
   21.4133   18.8262   25.0534 H   0  0  0  0  0  0  0  0  0  0  0  0
   21.1321   19.1878   23.3669 H   0  0  0  0  0  0  0  0  0  0  0  0
   21.2324   17.0747   23.8031 C   0  0  2  0  0  0  0  0  0  0  0  0
   22.3186   17.0679   23.6695 H   0  0  0  0  0  0  0  0  0  0  0  0
   20.5992   16.6238   22.4752 C   0  0  0  0  0  0  0  0  0  0  0  0
   20.8095   17.3468   21.6773 H   0  0  0  0  0  0  0  0  0  0  0  0
   21.0112   15.6561   22.1636 H   0  0  0  0  0  0  0  0  0  0  0  0
   19.5119   16.5121   22.5601 H   0  0  0  0  0  0  0  0  0  0  0  0
   20.9415   16.0898   24.9016 N   0  3  0  0  0  0  0  0  0  0  0  0
   21.3971   16.3597   25.7781 H   0  0  0  0  0  0  0  0  0  0  0  0
   21.2730   15.1514   24.6603 H   0  0  0  0  0  0  0  0  0  0  0  0
   19.9370   16.0235   25.0836 H   0  0  0  0  0  0  0  0  0  0  0  0
  1  2  1  0  0  0  0
  1  3  1  0  0  0  0
  1  4  1  0  0  0  0
  1  5  1  0  0  0  0
  5  6  1  0  0  0  0
  5  7  1  0  0  0  0
  5  8  1  0  0  0  0
  8  9  1  0  0  0  0
  8 10  1  0  0  0  0
  8 11  1  0  0  0  0
 11 12  1  0  0  0  0
 11 13  1  0  0  0  0
 11 14  1  0  0  0  0
 14 15  1  0  0  0  0
 14 16  1  0  0  0  0
 14 17  1  0  0  0  0
 17 18  1  0  0  0  0
 17 19  1  0  0  0  0
 17 20  1  0  0  0  0
 20 21  1  0  0  0  0
 20 22  1  0  0  0  0
 22 23  1  0  0  0  0
 22 24  1  0  0  0  0
 22 25  1  0  0  0  0
 20 26  1  0  0  0  0
 26 27  1  0  0  0  0
 26 28  1  0  0  0  0
 26 29  1  0  0  0  0
M  END
> <VConfSearch Rank>
200

> <Conf_Id>
117

> <Delta U+W>
3.377

> <U+W>
-24.449

> <U>
27.947

> <W>
-52.396

> <W(PB)>
-54.842

> <W(SA)>
2.447

> <Valence>
6.731

> <Coulomb>
20.067

> <VdW>
1.149

> <VdW6>
-10.427

> <VdW12>
11.575

> <Bond>
0.324

> <Angle>
1.943

> <Pdih>
4.465

> <Idih>
0.000

> <Tether>
0.000

$$$$
VeraChem MOL file


 29 28  0  0  0  0  0  0  0  0999 V2000     
   24.2051   18.5282   25.3370 C   0  0  0  0  0  0  0  0  0  0  0  0
   24.6198   19.3645   24.7592 H   0  0  0  0  0  0  0  0  0  0  0  0
   23.9499   18.8979   26.3388 H   0  0  0  0  0  0  0  0  0  0  0  0
   24.9925   17.7714   25.4475 H   0  0  0  0  0  0  0  0  0  0  0  0
   22.9680   17.9289   24.6354 C   0  0  0  0  0  0  0  0  0  0  0  0
   22.5963   17.0747   25.2184 H   0  0  0  0  0  0  0  0  0  0  0  0
   23.2610   17.5376   23.6510 H   0  0  0  0  0  0  0  0  0  0  0  0
   21.8434   18.9745   24.4673 C   0  0  0  0  0  0  0  0  0  0  0  0
   21.5555   19.3643   25.4535 H   0  0  0  0  0  0  0  0  0  0  0  0
   22.2204   19.8273   23.8860 H   0  0  0  0  0  0  0  0  0  0  0  0
   20.6028   18.3780   23.7651 C   0  0  0  0  0  0  0  0  0  0  0  0
   20.2278   17.5244   24.3467 H   0  0  0  0  0  0  0  0  0  0  0  0
   20.8915   17.9886   22.7789 H   0  0  0  0  0  0  0  0  0  0  0  0
   19.4777   19.4241   23.5978 C   0  0  0  0  0  0  0  0  0  0  0  0
   19.1872   19.8103   24.5847 H   0  0  0  0  0  0  0  0  0  0  0  0
   19.8619   20.2762   23.0214 H   0  0  0  0  0  0  0  0  0  0  0  0
   18.2368   18.8243   22.8930 C   0  0  0  0  0  0  0  0  0  0  0  0
   17.9016   17.9421   23.4547 H   0  0  0  0  0  0  0  0  0  0  0  0
   18.5132   18.4713   21.8905 H   0  0  0  0  0  0  0  0  0  0  0  0
   17.0632   19.8220   22.7870 C   0  0  2  0  0  0  0  0  0  0  0  0
   16.8226   20.1769   23.7939 H   0  0  0  0  0  0  0  0  0  0  0  0
   15.8200   19.1255   22.2109 C   0  0  0  0  0  0  0  0  0  0  0  0
   14.9716   19.8194   22.1668 H   0  0  0  0  0  0  0  0  0  0  0  0
   16.0088   18.7513   21.1968 H   0  0  0  0  0  0  0  0  0  0  0  0
   15.5229   18.2762   22.8387 H   0  0  0  0  0  0  0  0  0  0  0  0
   17.4121   21.0368   21.9713 N   0  3  0  0  0  0  0  0  0  0  0  0
   18.2120   21.5366   22.3688 H   0  0  0  0  0  0  0  0  0  0  0  0
   16.6295   21.6958   21.9282 H   0  0  0  0  0  0  0  0  0  0  0  0
   17.6531   20.7834   21.0094 H   0  0  0  0  0  0  0  0  0  0  0  0
  1  2  1  0  0  0  0
  1  3  1  0  0  0  0
  1  4  1  0  0  0  0
  1  5  1  0  0  0  0
  5  6  1  0  0  0  0
  5  7  1  0  0  0  0
  5  8  1  0  0  0  0
  8  9  1  0  0  0  0
  8 10  1  0  0  0  0
  8 11  1  0  0  0  0
 11 12  1  0  0  0  0
 11 13  1  0  0  0  0
 11 14  1  0  0  0  0
 14 15  1  0  0  0  0
 14 16  1  0  0  0  0
 14 17  1  0  0  0  0
 17 18  1  0  0  0  0
 17 19  1  0  0  0  0
 17 20  1  0  0  0  0
 20 21  1  0  0  0  0
 20 22  1  0  0  0  0
 22 23  1  0  0  0  0
 22 24  1  0  0  0  0
 22 25  1  0  0  0  0
 20 26  1  0  0  0  0
 26 27  1  0  0  0  0
 26 28  1  0  0  0  0
 26 29  1  0  0  0  0
M  END
> <VConfSearch Rank>
201

> <Conf_Id>
164

> <Delta U+W>
0.000

> <U+W>
-27.826

> <U>
23.963

> <W>
-51.789

> <W(PB)>
-54.342

> <W(SA)>
2.554

> <Valence>
3.166

> <Coulomb>
19.734

> <VdW>
1.062

> <VdW6>
-7.938

> <VdW12>
9.001

> <Bond>
0.188

> <Angle>
0.880

> <Pdih>
2.098

> <Idih>
0.000

> <Tether>
0.000

$$$$
VeraChem MOL file


 29 28  0  0  0  0  0  0  0  0999 V2000     
   20.9529   15.6105   26.6726 C   0  0  0  0  0  0  0  0  0  0  0  0
   21.2490   16.3009   27.4732 H   0  0  0  0  0  0  0  0  0  0  0  0
   19.9037   15.3303   26.8334 H   0  0  0  0  0  0  0  0  0  0  0  0
   21.5627   14.7027   26.7678 H   0  0  0  0  0  0  0  0  0  0  0  0
   21.1483   16.2550   25.2840 C   0  0  0  0  0  0  0  0  0  0  0  0
   20.8763   15.5300   24.5040 H   0  0  0  0  0  0  0  0  0  0  0  0
   22.2113   16.4931   25.1389 H   0  0  0  0  0  0  0  0  0  0  0  0
   20.3002   17.5361   25.1237 C   0  0  0  0  0  0  0  0  0  0  0  0
   19.2389   17.2934   25.2721 H   0  0  0  0  0  0  0  0  0  0  0  0
   20.5740   18.2568   25.9067 H   0  0  0  0  0  0  0  0  0  0  0  0
   20.4932   18.1843   23.7343 C   0  0  0  0  0  0  0  0  0  0  0  0
   20.2189   17.4632   22.9518 H   0  0  0  0  0  0  0  0  0  0  0  0
   21.5551   18.4251   23.5870 H   0  0  0  0  0  0  0  0  0  0  0  0
   19.6449   19.4663   23.5746 C   0  0  0  0  0  0  0  0  0  0  0  0
   18.5875   19.2164   23.7320 H   0  0  0  0  0  0  0  0  0  0  0  0
   19.9229   20.1893   24.3540 H   0  0  0  0  0  0  0  0  0  0  0  0
   19.8364   20.1112   22.1799 C   0  0  0  0  0  0  0  0  0  0  0  0
   19.4980   19.4156   21.4004 H   0  0  0  0  0  0  0  0  0  0  0  0
   20.9102   20.2680   22.0120 H   0  0  0  0  0  0  0  0  0  0  0  0
   19.1133   21.4675   22.0160 C   0  0  2  0  0  0  0  0  0  0  0  0
   19.4348   22.1282   22.8270 H   0  0  0  0  0  0  0  0  0  0  0  0
   17.5825   21.3214   22.0843 C   0  0  0  0  0  0  0  0  0  0  0  0
   17.2171   20.6158   21.3277 H   0  0  0  0  0  0  0  0  0  0  0  0
   17.2590   20.9673   23.0698 H   0  0  0  0  0  0  0  0  0  0  0  0
   17.0942   22.2884   21.9114 H   0  0  0  0  0  0  0  0  0  0  0  0
   19.5139   22.1437   20.7343 N   0  3  0  0  0  0  0  0  0  0  0  0
   19.0678   23.0606   20.6399 H   0  0  0  0  0  0  0  0  0  0  0  0
   19.2448   21.5876   19.9181 H   0  0  0  0  0  0  0  0  0  0  0  0
   20.5262   22.2913   20.6862 H   0  0  0  0  0  0  0  0  0  0  0  0
  1  2  1  0  0  0  0
  1  3  1  0  0  0  0
  1  4  1  0  0  0  0
  1  5  1  0  0  0  0
  5  6  1  0  0  0  0
  5  7  1  0  0  0  0
  5  8  1  0  0  0  0
  8  9  1  0  0  0  0
  8 10  1  0  0  0  0
  8 11  1  0  0  0  0
 11 12  1  0  0  0  0
 11 13  1  0  0  0  0
 11 14  1  0  0  0  0
 14 15  1  0  0  0  0
 14 16  1  0  0  0  0
 14 17  1  0  0  0  0
 17 18  1  0  0  0  0
 17 19  1  0  0  0  0
 17 20  1  0  0  0  0
 20 21  1  0  0  0  0
 20 22  1  0  0  0  0
 22 23  1  0  0  0  0
 22 24  1  0  0  0  0
 22 25  1  0  0  0  0
 20 26  1  0  0  0  0
 26 27  1  0  0  0  0
 26 28  1  0  0  0  0
 26 29  1  0  0  0  0
M  END
> <VConfSearch Rank>
202

> <Conf_Id>
58

> <Delta U+W>
0.412

> <U+W>
-27.414

> <U>
24.279

> <W>
-51.694

> <W(PB)>
-54.271

> <W(SA)>
2.577

> <Valence>
3.709

> <Coulomb>
19.380

> <VdW>
1.191

> <VdW6>
-8.093

> <VdW12>
9.284

> <Bond>
0.200

> <Angle>
1.161

> <Pdih>
2.348

> <Idih>
0.000

> <Tether>
0.000

$$$$
VeraChem MOL file


 29 28  0  0  0  0  0  0  0  0999 V2000     
   15.7581   16.9609   24.7857 C   0  0  0  0  0  0  0  0  0  0  0  0
   15.1606   17.8732   24.6593 H   0  0  0  0  0  0  0  0  0  0  0  0
   15.7079   16.3870   23.8511 H   0  0  0  0  0  0  0  0  0  0  0  0
   15.2913   16.3591   25.5763 H   0  0  0  0  0  0  0  0  0  0  0  0
   17.2188   17.3006   25.1500 C   0  0  0  0  0  0  0  0  0  0  0  0
   17.7824   16.3696   25.3031 H   0  0  0  0  0  0  0  0  0  0  0  0
   17.2393   17.8444   26.1049 H   0  0  0  0  0  0  0  0  0  0  0  0
   17.8996   18.1480   24.0526 C   0  0  0  0  0  0  0  0  0  0  0  0
   17.8748   17.6013   23.0998 H   0  0  0  0  0  0  0  0  0  0  0  0
   17.3314   19.0763   23.9015 H   0  0  0  0  0  0  0  0  0  0  0  0
   19.3626   18.4905   24.4142 C   0  0  0  0  0  0  0  0  0  0  0  0
   19.9295   17.5614   24.5657 H   0  0  0  0  0  0  0  0  0  0  0  0
   19.3862   19.0366   25.3674 H   0  0  0  0  0  0  0  0  0  0  0  0
   20.0435   19.3384   23.3162 C   0  0  0  0  0  0  0  0  0  0  0  0
   20.0151   18.7878   22.3666 H   0  0  0  0  0  0  0  0  0  0  0  0
   19.4673   20.2613   23.1689 H   0  0  0  0  0  0  0  0  0  0  0  0
   21.5099   19.6816   23.6864 C   0  0  0  0  0  0  0  0  0  0  0  0
   22.0602   18.7512   23.8790 H   0  0  0  0  0  0  0  0  0  0  0  0
   21.5242   20.2417   24.6307 H   0  0  0  0  0  0  0  0  0  0  0  0
   22.2797   20.4916   22.6167 C   0  0  2  0  0  0  0  0  0  0  0  0
   23.2987   20.6360   22.9891 H   0  0  0  0  0  0  0  0  0  0  0  0
   21.6652   21.8841   22.3918 C   0  0  0  0  0  0  0  0  0  0  0  0
   22.3061   22.4842   21.7342 H   0  0  0  0  0  0  0  0  0  0  0  0
   20.6747   21.8202   21.9260 H   0  0  0  0  0  0  0  0  0  0  0  0
   21.5651   22.4241   23.3415 H   0  0  0  0  0  0  0  0  0  0  0  0
   22.4128   19.7456   21.3176 N   0  3  0  0  0  0  0  0  0  0  0  0
   22.8619   18.8351   21.4520 H   0  0  0  0  0  0  0  0  0  0  0  0
   22.9772   20.2687   20.6420 H   0  0  0  0  0  0  0  0  0  0  0  0
   21.4985   19.5787   20.8902 H   0  0  0  0  0  0  0  0  0  0  0  0
  1  2  1  0  0  0  0
  1  3  1  0  0  0  0
  1  4  1  0  0  0  0
  1  5  1  0  0  0  0
  5  6  1  0  0  0  0
  5  7  1  0  0  0  0
  5  8  1  0  0  0  0
  8  9  1  0  0  0  0
  8 10  1  0  0  0  0
  8 11  1  0  0  0  0
 11 12  1  0  0  0  0
 11 13  1  0  0  0  0
 11 14  1  0  0  0  0
 14 15  1  0  0  0  0
 14 16  1  0  0  0  0
 14 17  1  0  0  0  0
 17 18  1  0  0  0  0
 17 19  1  0  0  0  0
 17 20  1  0  0  0  0
 20 21  1  0  0  0  0
 20 22  1  0  0  0  0
 22 23  1  0  0  0  0
 22 24  1  0  0  0  0
 22 25  1  0  0  0  0
 20 26  1  0  0  0  0
 26 27  1  0  0  0  0
 26 28  1  0  0  0  0
 26 29  1  0  0  0  0
M  END
> <VConfSearch Rank>
203

> <Conf_Id>
137

> <Delta U+W>
0.280

> <U+W>
-27.546

> <U>
24.513

> <W>
-52.059

> <W(PB)>
-54.556

> <W(SA)>
2.497

> <Valence>
3.677

> <Coulomb>
19.662

> <VdW>
1.174

> <VdW6>
-8.569

> <VdW12>
9.743

> <Bond>
0.224

> <Angle>
1.211

> <Pdih>
2.243

> <Idih>
0.000

> <Tether>
0.000

$$$$
VeraChem MOL file


 29 28  0  0  0  0  0  0  0  0999 V2000     
   17.5996   20.8778   27.0278 C   0  0  0  0  0  0  0  0  0  0  0  0
   17.1299   21.4904   26.2473 H   0  0  0  0  0  0  0  0  0  0  0  0
   16.9739   19.9903   27.1889 H   0  0  0  0  0  0  0  0  0  0  0  0
   17.6029   21.4612   27.9577 H   0  0  0  0  0  0  0  0  0  0  0  0
   19.0364   20.4786   26.6301 C   0  0  0  0  0  0  0  0  0  0  0  0
   19.4913   19.8972   27.4443 H   0  0  0  0  0  0  0  0  0  0  0  0
   19.6463   21.3847   26.5082 H   0  0  0  0  0  0  0  0  0  0  0  0
   19.0603   19.6548   25.3235 C   0  0  0  0  0  0  0  0  0  0  0  0
   18.4514   18.7492   25.4514 H   0  0  0  0  0  0  0  0  0  0  0  0
   18.5941   20.2433   24.5229 H   0  0  0  0  0  0  0  0  0  0  0  0
   20.5015   19.2579   24.9220 C   0  0  0  0  0  0  0  0  0  0  0  0
   20.9778   18.7459   25.7696 H   0  0  0  0  0  0  0  0  0  0  0  0
   21.0972   20.1619   24.7344 H   0  0  0  0  0  0  0  0  0  0  0  0
   20.5706   18.3249   23.6877 C   0  0  0  0  0  0  0  0  0  0  0  0
   21.6091   17.9861   23.5817 H   0  0  0  0  0  0  0  0  0  0  0  0
   19.9684   17.4247   23.8731 H   0  0  0  0  0  0  0  0  0  0  0  0
   20.1082   19.0026   22.3715 C   0  0  0  0  0  0  0  0  0  0  0  0
   20.7171   19.8963   22.1807 H   0  0  0  0  0  0  0  0  0  0  0  0
   19.0748   19.3492   22.4916 H   0  0  0  0  0  0  0  0  0  0  0  0
   20.1562   18.0687   21.1402 C   0  0  2  0  0  0  0  0  0  0  0  0
   19.5943   17.1598   21.3765 H   0  0  0  0  0  0  0  0  0  0  0  0
   21.5952   17.6697   20.7661 C   0  0  0  0  0  0  0  0  0  0  0  0
   22.2183   18.5547   20.5862 H   0  0  0  0  0  0  0  0  0  0  0  0
   22.0639   17.0738   21.5574 H   0  0  0  0  0  0  0  0  0  0  0  0
   21.6018   17.0588   19.8550 H   0  0  0  0  0  0  0  0  0  0  0  0
   19.4697   18.6956   19.9585 N   0  3  0  0  0  0  0  0  0  0  0  0
   18.4949   18.9292   20.1685 H   0  0  0  0  0  0  0  0  0  0  0  0
   19.4645   18.0652   19.1515 H   0  0  0  0  0  0  0  0  0  0  0  0
   19.9377   19.5587   19.6688 H   0  0  0  0  0  0  0  0  0  0  0  0
  1  2  1  0  0  0  0
  1  3  1  0  0  0  0
  1  4  1  0  0  0  0
  1  5  1  0  0  0  0
  5  6  1  0  0  0  0
  5  7  1  0  0  0  0
  5  8  1  0  0  0  0
  8  9  1  0  0  0  0
  8 10  1  0  0  0  0
  8 11  1  0  0  0  0
 11 12  1  0  0  0  0
 11 13  1  0  0  0  0
 11 14  1  0  0  0  0
 14 15  1  0  0  0  0
 14 16  1  0  0  0  0
 14 17  1  0  0  0  0
 17 18  1  0  0  0  0
 17 19  1  0  0  0  0
 17 20  1  0  0  0  0
 20 21  1  0  0  0  0
 20 22  1  0  0  0  0
 22 23  1  0  0  0  0
 22 24  1  0  0  0  0
 22 25  1  0  0  0  0
 20 26  1  0  0  0  0
 26 27  1  0  0  0  0
 26 28  1  0  0  0  0
 26 29  1  0  0  0  0
M  END
> <VConfSearch Rank>
204

> <Conf_Id>
40

> <Delta U+W>
1.128

> <U+W>
-26.698

> <U>
25.442

> <W>
-52.140

> <W(PB)>
-54.658

> <W(SA)>
2.519

> <Valence>
4.343

> <Coulomb>
19.740

> <VdW>
1.360

> <VdW6>
-8.739

> <VdW12>
10.099

> <Bond>
0.251

> <Angle>
1.483

> <Pdih>
2.608

> <Idih>
0.000

> <Tether>
0.000

$$$$
VeraChem MOL file


 29 28  0  0  0  0  0  0  0  0999 V2000     
   21.1159   21.8402   26.6462 C   0  0  0  0  0  0  0  0  0  0  0  0
   21.3010   20.8627   27.1081 H   0  0  0  0  0  0  0  0  0  0  0  0
   22.0166   22.1360   26.0928 H   0  0  0  0  0  0  0  0  0  0  0  0
   20.9677   22.5646   27.4575 H   0  0  0  0  0  0  0  0  0  0  0  0
   19.8796   21.8073   25.7192 C   0  0  0  0  0  0  0  0  0  0  0  0
   19.6616   22.8318   25.3868 H   0  0  0  0  0  0  0  0  0  0  0  0
   18.9995   21.4748   26.2872 H   0  0  0  0  0  0  0  0  0  0  0  0
   20.0665   20.9113   24.4707 C   0  0  0  0  0  0  0  0  0  0  0  0
   19.2008   21.0634   23.8139 H   0  0  0  0  0  0  0  0  0  0  0  0
   20.9472   21.2480   23.9068 H   0  0  0  0  0  0  0  0  0  0  0  0
   20.2052   19.4048   24.8082 C   0  0  0  0  0  0  0  0  0  0  0  0
   19.3220   19.0663   25.3672 H   0  0  0  0  0  0  0  0  0  0  0  0
   21.0658   19.2596   25.4737 H   0  0  0  0  0  0  0  0  0  0  0  0
   20.4088   18.5049   23.5642 C   0  0  0  0  0  0  0  0  0  0  0  0
   21.2808   18.8564   22.9953 H   0  0  0  0  0  0  0  0  0  0  0  0
   20.6561   17.4946   23.9154 H   0  0  0  0  0  0  0  0  0  0  0  0
   19.1692   18.4387   22.6349 C   0  0  0  0  0  0  0  0  0  0  0  0
   18.9397   19.4443   22.2620 H   0  0  0  0  0  0  0  0  0  0  0  0
   18.2927   18.1074   23.2073 H   0  0  0  0  0  0  0  0  0  0  0  0
   19.3770   17.5079   21.4202 C   0  0  2  0  0  0  0  0  0  0  0  0
   20.2754   17.8346   20.8874 H   0  0  0  0  0  0  0  0  0  0  0  0
   18.1821   17.6097   20.4586 C   0  0  0  0  0  0  0  0  0  0  0  0
   18.3389   16.9772   19.5761 H   0  0  0  0  0  0  0  0  0  0  0  0
   17.2520   17.2918   20.9463 H   0  0  0  0  0  0  0  0  0  0  0  0
   18.0493   18.6411   20.1090 H   0  0  0  0  0  0  0  0  0  0  0  0
   19.6072   16.0765   21.8217 N   0  3  0  0  0  0  0  0  0  0  0  0
   18.8046   15.6988   22.3324 H   0  0  0  0  0  0  0  0  0  0  0  0
   20.4284   15.9848   22.4256 H   0  0  0  0  0  0  0  0  0  0  0  0
   19.7598   15.4787   21.0044 H   0  0  0  0  0  0  0  0  0  0  0  0
  1  2  1  0  0  0  0
  1  3  1  0  0  0  0
  1  4  1  0  0  0  0
  1  5  1  0  0  0  0
  5  6  1  0  0  0  0
  5  7  1  0  0  0  0
  5  8  1  0  0  0  0
  8  9  1  0  0  0  0
  8 10  1  0  0  0  0
  8 11  1  0  0  0  0
 11 12  1  0  0  0  0
 11 13  1  0  0  0  0
 11 14  1  0  0  0  0
 14 15  1  0  0  0  0
 14 16  1  0  0  0  0
 14 17  1  0  0  0  0
 17 18  1  0  0  0  0
 17 19  1  0  0  0  0
 17 20  1  0  0  0  0
 20 21  1  0  0  0  0
 20 22  1  0  0  0  0
 22 23  1  0  0  0  0
 22 24  1  0  0  0  0
 22 25  1  0  0  0  0
 20 26  1  0  0  0  0
 26 27  1  0  0  0  0
 26 28  1  0  0  0  0
 26 29  1  0  0  0  0
M  END
> <VConfSearch Rank>
205

> <Conf_Id>
134

> <Delta U+W>
1.228

> <U+W>
-26.598

> <U>
25.451

> <W>
-52.048

> <W(PB)>
-54.539

> <W(SA)>
2.490

> <Valence>
4.319

> <Coulomb>
19.732

> <VdW>
1.400

> <VdW6>
-9.173

> <VdW12>
10.573

> <Bond>
0.281

> <Angle>
1.459

> <Pdih>
2.580

> <Idih>
0.000

> <Tether>
0.000

$$$$
VeraChem MOL file


 29 28  0  0  0  0  0  0  0  0999 V2000     
   21.0971   18.0125   27.4922 C   0  0  0  0  0  0  0  0  0  0  0  0
   20.5436   18.9290   27.7305 H   0  0  0  0  0  0  0  0  0  0  0  0
   20.3953   17.1689   27.5199 H   0  0  0  0  0  0  0  0  0  0  0  0
   21.8376   17.8590   28.2880 H   0  0  0  0  0  0  0  0  0  0  0  0
   21.7950   18.1100   26.1166 C   0  0  0  0  0  0  0  0  0  0  0  0
   22.4359   17.2273   25.9834 H   0  0  0  0  0  0  0  0  0  0  0  0
   22.4650   18.9811   26.1022 H   0  0  0  0  0  0  0  0  0  0  0  0
   20.8078   18.1889   24.9270 C   0  0  0  0  0  0  0  0  0  0  0  0
   21.3894   18.1170   23.9990 H   0  0  0  0  0  0  0  0  0  0  0  0
   20.1419   17.3151   24.9447 H   0  0  0  0  0  0  0  0  0  0  0  0
   19.9647   19.4893   24.9104 C   0  0  0  0  0  0  0  0  0  0  0  0
   20.6307   20.3628   24.8912 H   0  0  0  0  0  0  0  0  0  0  0  0
   19.3868   19.5620   25.8406 H   0  0  0  0  0  0  0  0  0  0  0  0
   18.9724   19.5661   23.7240 C   0  0  0  0  0  0  0  0  0  0  0  0
   18.3017   18.6975   23.7612 H   0  0  0  0  0  0  0  0  0  0  0  0
   18.3391   20.4541   23.8577 H   0  0  0  0  0  0  0  0  0  0  0  0
   19.6673   19.6479   22.3402 C   0  0  0  0  0  0  0  0  0  0  0  0
   20.1886   18.7071   22.1229 H   0  0  0  0  0  0  0  0  0  0  0  0
   20.4358   20.4310   22.3798 H   0  0  0  0  0  0  0  0  0  0  0  0
   18.6979   19.9711   21.1806 C   0  0  2  0  0  0  0  0  0  0  0  0
   18.1616   20.8923   21.4283 H   0  0  0  0  0  0  0  0  0  0  0  0
   17.6658   18.8508   20.9600 C   0  0  0  0  0  0  0  0  0  0  0  0
   18.1585   17.8900   20.7655 H   0  0  0  0  0  0  0  0  0  0  0  0
   17.0137   18.7322   21.8331 H   0  0  0  0  0  0  0  0  0  0  0  0
   17.0215   19.0823   20.1030 H   0  0  0  0  0  0  0  0  0  0  0  0
   19.4478   20.2463   19.9070 N   0  3  0  0  0  0  0  0  0  0  0  0
   20.1110   21.0186   20.0192 H   0  0  0  0  0  0  0  0  0  0  0  0
   18.8114   20.4998   19.1457 H   0  0  0  0  0  0  0  0  0  0  0  0
   19.9789   19.4265   19.6009 H   0  0  0  0  0  0  0  0  0  0  0  0
  1  2  1  0  0  0  0
  1  3  1  0  0  0  0
  1  4  1  0  0  0  0
  1  5  1  0  0  0  0
  5  6  1  0  0  0  0
  5  7  1  0  0  0  0
  5  8  1  0  0  0  0
  8  9  1  0  0  0  0
  8 10  1  0  0  0  0
  8 11  1  0  0  0  0
 11 12  1  0  0  0  0
 11 13  1  0  0  0  0
 11 14  1  0  0  0  0
 14 15  1  0  0  0  0
 14 16  1  0  0  0  0
 14 17  1  0  0  0  0
 17 18  1  0  0  0  0
 17 19  1  0  0  0  0
 17 20  1  0  0  0  0
 20 21  1  0  0  0  0
 20 22  1  0  0  0  0
 22 23  1  0  0  0  0
 22 24  1  0  0  0  0
 22 25  1  0  0  0  0
 20 26  1  0  0  0  0
 26 27  1  0  0  0  0
 26 28  1  0  0  0  0
 26 29  1  0  0  0  0
M  END
> <VConfSearch Rank>
206

> <Conf_Id>
73

> <Delta U+W>
1.580

> <U+W>
-26.246

> <U>
25.821

> <W>
-52.067

> <W(PB)>
-54.581

> <W(SA)>
2.514

> <Valence>
4.779

> <Coulomb>
19.614

> <VdW>
1.428

> <VdW6>
-9.390

> <VdW12>
10.818

> <Bond>
0.283

> <Angle>
1.640

> <Pdih>
2.856

> <Idih>
0.000

> <Tether>
0.000

$$$$
VeraChem MOL file


 29 28  0  0  0  0  0  0  0  0999 V2000     
   19.5979   14.7778   22.3639 C   0  0  0  0  0  0  0  0  0  0  0  0
   18.6362   15.0955   21.9404 H   0  0  0  0  0  0  0  0  0  0  0  0
   19.9629   13.9286   21.7717 H   0  0  0  0  0  0  0  0  0  0  0  0
   19.4204   14.4233   23.3876 H   0  0  0  0  0  0  0  0  0  0  0  0
   20.6206   15.9335   22.3468 C   0  0  0  0  0  0  0  0  0  0  0  0
   20.8022   16.2444   21.3084 H   0  0  0  0  0  0  0  0  0  0  0  0
   21.5810   15.5757   22.7434 H   0  0  0  0  0  0  0  0  0  0  0  0
   20.1314   17.1425   23.1746 C   0  0  0  0  0  0  0  0  0  0  0  0
   19.1676   17.4823   22.7741 H   0  0  0  0  0  0  0  0  0  0  0  0
   19.9538   16.8272   24.2121 H   0  0  0  0  0  0  0  0  0  0  0  0
   21.1544   18.3037   23.1539 C   0  0  0  0  0  0  0  0  0  0  0  0
   21.2895   18.6608   22.1236 H   0  0  0  0  0  0  0  0  0  0  0  0
   22.1325   17.9221   23.4782 H   0  0  0  0  0  0  0  0  0  0  0  0
   20.7663   19.4917   24.0683 C   0  0  0  0  0  0  0  0  0  0  0  0
   20.6343   19.1340   25.0989 H   0  0  0  0  0  0  0  0  0  0  0  0
   21.6113   20.1923   24.0902 H   0  0  0  0  0  0  0  0  0  0  0  0
   19.4875   20.2368   23.6062 C   0  0  0  0  0  0  0  0  0  0  0  0
   18.6401   19.5402   23.6104 H   0  0  0  0  0  0  0  0  0  0  0  0
   19.6099   20.5778   22.5696 H   0  0  0  0  0  0  0  0  0  0  0  0
   19.1318   21.4384   24.5087 C   0  0  2  0  0  0  0  0  0  0  0  0
   19.0512   21.0808   25.5399 H   0  0  0  0  0  0  0  0  0  0  0  0
   17.7756   22.0329   24.0968 C   0  0  0  0  0  0  0  0  0  0  0  0
   16.9819   21.2784   24.1647 H   0  0  0  0  0  0  0  0  0  0  0  0
   17.5001   22.8653   24.7561 H   0  0  0  0  0  0  0  0  0  0  0  0
   17.8032   22.4079   23.0659 H   0  0  0  0  0  0  0  0  0  0  0  0
   20.1956   22.5020   24.5004 N   0  3  0  0  0  0  0  0  0  0  0  0
   19.9500   23.2815   25.1174 H   0  0  0  0  0  0  0  0  0  0  0  0
   20.3322   22.8855   23.5613 H   0  0  0  0  0  0  0  0  0  0  0  0
   21.0962   22.1329   24.8172 H   0  0  0  0  0  0  0  0  0  0  0  0
  1  2  1  0  0  0  0
  1  3  1  0  0  0  0
  1  4  1  0  0  0  0
  1  5  1  0  0  0  0
  5  6  1  0  0  0  0
  5  7  1  0  0  0  0
  5  8  1  0  0  0  0
  8  9  1  0  0  0  0
  8 10  1  0  0  0  0
  8 11  1  0  0  0  0
 11 12  1  0  0  0  0
 11 13  1  0  0  0  0
 11 14  1  0  0  0  0
 14 15  1  0  0  0  0
 14 16  1  0  0  0  0
 14 17  1  0  0  0  0
 17 18  1  0  0  0  0
 17 19  1  0  0  0  0
 17 20  1  0  0  0  0
 20 21  1  0  0  0  0
 20 22  1  0  0  0  0
 22 23  1  0  0  0  0
 22 24  1  0  0  0  0
 22 25  1  0  0  0  0
 20 26  1  0  0  0  0
 26 27  1  0  0  0  0
 26 28  1  0  0  0  0
 26 29  1  0  0  0  0
M  END
> <VConfSearch Rank>
207

> <Conf_Id>
111

> <Delta U+W>
0.580

> <U+W>
-27.246

> <U>
24.710

> <W>
-51.957

> <W(PB)>
-54.511

> <W(SA)>
2.555

> <Valence>
3.735

> <Coulomb>
19.760

> <VdW>
1.216

> <VdW6>
-8.624

> <VdW12>
9.840

> <Bond>
0.236

> <Angle>
1.168

> <Pdih>
2.330

> <Idih>
0.000

> <Tether>
0.000

$$$$
VeraChem MOL file


 29 28  0  0  0  0  0  0  0  0999 V2000     
   23.7940   19.9664   22.2048 C   0  0  0  0  0  0  0  0  0  0  0  0
   23.4441   20.6267   21.4005 H   0  0  0  0  0  0  0  0  0  0  0  0
   23.7998   20.5407   23.1405 H   0  0  0  0  0  0  0  0  0  0  0  0
   24.8292   19.6794   21.9790 H   0  0  0  0  0  0  0  0  0  0  0  0
   22.8963   18.7169   22.3263 C   0  0  0  0  0  0  0  0  0  0  0  0
   23.2896   18.0606   23.1153 H   0  0  0  0  0  0  0  0  0  0  0  0
   22.9384   18.1456   21.3883 H   0  0  0  0  0  0  0  0  0  0  0  0
   21.4321   19.0932   22.6433 C   0  0  0  0  0  0  0  0  0  0  0  0
   21.4050   19.6705   23.5767 H   0  0  0  0  0  0  0  0  0  0  0  0
   21.0429   19.7475   21.8511 H   0  0  0  0  0  0  0  0  0  0  0  0
   20.5319   17.8408   22.7694 C   0  0  0  0  0  0  0  0  0  0  0  0
   20.8882   17.2098   23.5953 H   0  0  0  0  0  0  0  0  0  0  0  0
   20.6285   17.2370   21.8565 H   0  0  0  0  0  0  0  0  0  0  0  0
   19.0348   18.1755   22.9800 C   0  0  0  0  0  0  0  0  0  0  0  0
   18.6806   18.7791   22.1340 H   0  0  0  0  0  0  0  0  0  0  0  0
   18.4613   17.2385   22.9557 H   0  0  0  0  0  0  0  0  0  0  0  0
   18.7496   18.9075   24.3167 C   0  0  0  0  0  0  0  0  0  0  0  0
   19.2013   19.9075   24.3029 H   0  0  0  0  0  0  0  0  0  0  0  0
   19.2373   18.3541   25.1300 H   0  0  0  0  0  0  0  0  0  0  0  0
   17.2442   19.0333   24.6435 C   0  0  2  0  0  0  0  0  0  0  0  0
   16.8028   18.0322   24.6185 H   0  0  0  0  0  0  0  0  0  0  0  0
   16.5030   19.9183   23.6254 C   0  0  0  0  0  0  0  0  0  0  0  0
   16.9490   20.9192   23.5709 H   0  0  0  0  0  0  0  0  0  0  0  0
   16.5258   19.4766   22.6225 H   0  0  0  0  0  0  0  0  0  0  0  0
   15.4487   20.0305   23.9066 H   0  0  0  0  0  0  0  0  0  0  0  0
   17.0333   19.5550   26.0376 N   0  3  0  0  0  0  0  0  0  0  0  0
   17.4826   18.9561   26.7364 H   0  0  0  0  0  0  0  0  0  0  0  0
   16.0376   19.6023   26.2724 H   0  0  0  0  0  0  0  0  0  0  0  0
   17.4179   20.4973   26.1467 H   0  0  0  0  0  0  0  0  0  0  0  0
  1  2  1  0  0  0  0
  1  3  1  0  0  0  0
  1  4  1  0  0  0  0
  1  5  1  0  0  0  0
  5  6  1  0  0  0  0
  5  7  1  0  0  0  0
  5  8  1  0  0  0  0
  8  9  1  0  0  0  0
  8 10  1  0  0  0  0
  8 11  1  0  0  0  0
 11 12  1  0  0  0  0
 11 13  1  0  0  0  0
 11 14  1  0  0  0  0
 14 15  1  0  0  0  0
 14 16  1  0  0  0  0
 14 17  1  0  0  0  0
 17 18  1  0  0  0  0
 17 19  1  0  0  0  0
 17 20  1  0  0  0  0
 20 21  1  0  0  0  0
 20 22  1  0  0  0  0
 22 23  1  0  0  0  0
 22 24  1  0  0  0  0
 22 25  1  0  0  0  0
 20 26  1  0  0  0  0
 26 27  1  0  0  0  0
 26 28  1  0  0  0  0
 26 29  1  0  0  0  0
M  END
> <VConfSearch Rank>
208

> <Conf_Id>
39

> <Delta U+W>
0.965

> <U+W>
-26.861

> <U>
25.129

> <W>
-51.990

> <W(PB)>
-54.526

> <W(SA)>
2.536

> <Valence>
4.206

> <Coulomb>
19.678

> <VdW>
1.245

> <VdW6>
-8.834

> <VdW12>
10.079

> <Bond>
0.240

> <Angle>
1.353

> <Pdih>
2.613

> <Idih>
0.000

> <Tether>
0.000

$$$$
VeraChem MOL file


 29 28  0  0  0  0  0  0  0  0999 V2000     
   23.7158   18.6078   22.0487 C   0  0  0  0  0  0  0  0  0  0  0  0
   24.0782   19.3738   22.7465 H   0  0  0  0  0  0  0  0  0  0  0  0
   23.5539   17.6795   22.6101 H   0  0  0  0  0  0  0  0  0  0  0  0
   24.5121   18.4158   21.3181 H   0  0  0  0  0  0  0  0  0  0  0  0
   22.4270   19.0727   21.3333 C   0  0  0  0  0  0  0  0  0  0  0  0
   22.0649   18.2765   20.6680 H   0  0  0  0  0  0  0  0  0  0  0  0
   22.6721   19.9262   20.6859 H   0  0  0  0  0  0  0  0  0  0  0  0
   21.2991   19.4967   22.3050 C   0  0  0  0  0  0  0  0  0  0  0  0
   21.6658   20.2931   22.9670 H   0  0  0  0  0  0  0  0  0  0  0  0
   20.4882   19.9362   21.7104 H   0  0  0  0  0  0  0  0  0  0  0  0
   20.7435   18.3247   23.1537 C   0  0  0  0  0  0  0  0  0  0  0  0
   21.5582   17.8819   23.7410 H   0  0  0  0  0  0  0  0  0  0  0  0
   20.3727   17.5302   22.4917 H   0  0  0  0  0  0  0  0  0  0  0  0
   19.6232   18.7479   24.1357 C   0  0  0  0  0  0  0  0  0  0  0  0
   19.3958   17.8901   24.7819 H   0  0  0  0  0  0  0  0  0  0  0  0
   20.0040   19.5399   24.7940 H   0  0  0  0  0  0  0  0  0  0  0  0
   18.3245   19.2196   23.4260 C   0  0  0  0  0  0  0  0  0  0  0  0
   18.0206   18.4651   22.6887 H   0  0  0  0  0  0  0  0  0  0  0  0
   18.5248   20.1364   22.8580 H   0  0  0  0  0  0  0  0  0  0  0  0
   17.1301   19.4893   24.3715 C   0  0  2  0  0  0  0  0  0  0  0  0
   16.2869   19.8035   23.7486 H   0  0  0  0  0  0  0  0  0  0  0  0
   17.4252   20.6269   25.3645 C   0  0  0  0  0  0  0  0  0  0  0  0
   18.2025   20.3446   26.0846 H   0  0  0  0  0  0  0  0  0  0  0  0
   17.7571   21.5292   24.8360 H   0  0  0  0  0  0  0  0  0  0  0  0
   16.5221   20.8860   25.9304 H   0  0  0  0  0  0  0  0  0  0  0  0
   16.6753   18.2498   25.0918 N   0  3  0  0  0  0  0  0  0  0  0  0
   16.4357   17.5010   24.4356 H   0  0  0  0  0  0  0  0  0  0  0  0
   15.8459   18.4328   25.6638 H   0  0  0  0  0  0  0  0  0  0  0  0
   17.4047   17.8931   25.7140 H   0  0  0  0  0  0  0  0  0  0  0  0
  1  2  1  0  0  0  0
  1  3  1  0  0  0  0
  1  4  1  0  0  0  0
  1  5  1  0  0  0  0
  5  6  1  0  0  0  0
  5  7  1  0  0  0  0
  5  8  1  0  0  0  0
  8  9  1  0  0  0  0
  8 10  1  0  0  0  0
  8 11  1  0  0  0  0
 11 12  1  0  0  0  0
 11 13  1  0  0  0  0
 11 14  1  0  0  0  0
 14 15  1  0  0  0  0
 14 16  1  0  0  0  0
 14 17  1  0  0  0  0
 17 18  1  0  0  0  0
 17 19  1  0  0  0  0
 17 20  1  0  0  0  0
 20 21  1  0  0  0  0
 20 22  1  0  0  0  0
 22 23  1  0  0  0  0
 22 24  1  0  0  0  0
 22 25  1  0  0  0  0
 20 26  1  0  0  0  0
 26 27  1  0  0  0  0
 26 28  1  0  0  0  0
 26 29  1  0  0  0  0
M  END
> <VConfSearch Rank>
209

> <Conf_Id>
155

> <Delta U+W>
1.624

> <U+W>
-26.202

> <U>
25.894

> <W>
-52.096

> <W(PB)>
-54.602

> <W(SA)>
2.506

> <Valence>
4.779

> <Coulomb>
19.659

> <VdW>
1.456

> <VdW6>
-9.843

> <VdW12>
11.299

> <Bond>
0.315

> <Angle>
1.725

> <Pdih>
2.740

> <Idih>
0.000

> <Tether>
0.000

$$$$
VeraChem MOL file


 29 28  0  0  0  0  0  0  0  0999 V2000     
   20.8002   17.6589   19.8768 C   0  0  0  0  0  0  0  0  0  0  0  0
   21.7561   17.9107   20.3524 H   0  0  0  0  0  0  0  0  0  0  0  0
   20.4100   16.7480   20.3491 H   0  0  0  0  0  0  0  0  0  0  0  0
   21.0058   17.4293   18.8232 H   0  0  0  0  0  0  0  0  0  0  0  0
   19.7873   18.8207   19.9896 C   0  0  0  0  0  0  0  0  0  0  0  0
   18.8928   18.5700   19.4025 H   0  0  0  0  0  0  0  0  0  0  0  0
   20.2111   19.7260   19.5329 H   0  0  0  0  0  0  0  0  0  0  0  0
   19.3583   19.1204   21.4461 C   0  0  0  0  0  0  0  0  0  0  0  0
   18.5692   19.8845   21.4274 H   0  0  0  0  0  0  0  0  0  0  0  0
   18.9080   18.2175   21.8784 H   0  0  0  0  0  0  0  0  0  0  0  0
   20.5243   19.6166   22.3383 C   0  0  0  0  0  0  0  0  0  0  0  0
   21.0451   20.4341   21.8210 H   0  0  0  0  0  0  0  0  0  0  0  0
   21.2630   18.8155   22.4734 H   0  0  0  0  0  0  0  0  0  0  0  0
   20.0686   20.1286   23.7271 C   0  0  0  0  0  0  0  0  0  0  0  0
   20.9388   20.5799   24.2205 H   0  0  0  0  0  0  0  0  0  0  0  0
   19.3326   20.9343   23.5988 H   0  0  0  0  0  0  0  0  0  0  0  0
   19.4757   19.0169   24.6315 C   0  0  0  0  0  0  0  0  0  0  0  0
   20.2154   18.2173   24.7694 H   0  0  0  0  0  0  0  0  0  0  0  0
   18.6169   18.5628   24.1226 H   0  0  0  0  0  0  0  0  0  0  0  0
   18.9970   19.5257   26.0108 C   0  0  2  0  0  0  0  0  0  0  0  0
   18.3084   20.3607   25.8488 H   0  0  0  0  0  0  0  0  0  0  0  0
   20.1627   20.0173   26.8879 C   0  0  0  0  0  0  0  0  0  0  0  0
   20.9168   19.2318   27.0225 H   0  0  0  0  0  0  0  0  0  0  0  0
   20.6528   20.8932   26.4480 H   0  0  0  0  0  0  0  0  0  0  0  0
   19.8007   20.3143   27.8799 H   0  0  0  0  0  0  0  0  0  0  0  0
   18.2147   18.4665   26.7366 N   0  3  0  0  0  0  0  0  0  0  0  0
   17.4058   18.1547   26.1913 H   0  0  0  0  0  0  0  0  0  0  0  0
   17.8622   18.8112   27.6341 H   0  0  0  0  0  0  0  0  0  0  0  0
   18.7911   17.6431   26.9308 H   0  0  0  0  0  0  0  0  0  0  0  0
  1  2  1  0  0  0  0
  1  3  1  0  0  0  0
  1  4  1  0  0  0  0
  1  5  1  0  0  0  0
  5  6  1  0  0  0  0
  5  7  1  0  0  0  0
  5  8  1  0  0  0  0
  8  9  1  0  0  0  0
  8 10  1  0  0  0  0
  8 11  1  0  0  0  0
 11 12  1  0  0  0  0
 11 13  1  0  0  0  0
 11 14  1  0  0  0  0
 14 15  1  0  0  0  0
 14 16  1  0  0  0  0
 14 17  1  0  0  0  0
 17 18  1  0  0  0  0
 17 19  1  0  0  0  0
 17 20  1  0  0  0  0
 20 21  1  0  0  0  0
 20 22  1  0  0  0  0
 22 23  1  0  0  0  0
 22 24  1  0  0  0  0
 22 25  1  0  0  0  0
 20 26  1  0  0  0  0
 26 27  1  0  0  0  0
 26 28  1  0  0  0  0
 26 29  1  0  0  0  0
M  END
> <VConfSearch Rank>
210

> <Conf_Id>
135

> <Delta U+W>
1.581

> <U+W>
-26.245

> <U>
25.974

> <W>
-52.219

> <W(PB)>
-54.709

> <W(SA)>
2.490

> <Valence>
4.811

> <Coulomb>
19.700

> <VdW>
1.463

> <VdW6>
-9.391

> <VdW12>
10.854

> <Bond>
0.285

> <Angle>
1.671

> <Pdih>
2.855

> <Idih>
0.000

> <Tether>
0.000

$$$$
VeraChem MOL file


 29 28  0  0  0  0  0  0  0  0999 V2000     
   20.7852   20.1948   19.7396 C   0  0  0  0  0  0  0  0  0  0  0  0
   21.7584   20.2440   20.2451 H   0  0  0  0  0  0  0  0  0  0  0  0
   20.5228   19.1387   19.6001 H   0  0  0  0  0  0  0  0  0  0  0  0
   20.9012   20.6406   18.7432 H   0  0  0  0  0  0  0  0  0  0  0  0
   19.7018   20.9464   20.5457 C   0  0  0  0  0  0  0  0  0  0  0  0
   18.7335   20.8602   20.0333 H   0  0  0  0  0  0  0  0  0  0  0  0
   19.9485   22.0173   20.5587 H   0  0  0  0  0  0  0  0  0  0  0  0
   19.5682   20.4492   22.0051 C   0  0  0  0  0  0  0  0  0  0  0  0
   20.5336   20.5680   22.5143 H   0  0  0  0  0  0  0  0  0  0  0  0
   18.8561   21.0992   22.5318 H   0  0  0  0  0  0  0  0  0  0  0  0
   19.0874   18.9799   22.1110 C   0  0  0  0  0  0  0  0  0  0  0  0
   19.8459   18.3045   21.6937 H   0  0  0  0  0  0  0  0  0  0  0  0
   18.1863   18.8522   21.4956 H   0  0  0  0  0  0  0  0  0  0  0  0
   18.7597   18.5444   23.5602 C   0  0  0  0  0  0  0  0  0  0  0  0
   17.9719   19.1962   23.9605 H   0  0  0  0  0  0  0  0  0  0  0  0
   18.3400   17.5293   23.5332 H   0  0  0  0  0  0  0  0  0  0  0  0
   19.9937   18.5568   24.4987 C   0  0  0  0  0  0  0  0  0  0  0  0
   20.3457   19.5860   24.6447 H   0  0  0  0  0  0  0  0  0  0  0  0
   20.8116   18.0123   24.0087 H   0  0  0  0  0  0  0  0  0  0  0  0
   19.7293   17.9081   25.8763 C   0  0  2  0  0  0  0  0  0  0  0  0
   19.3455   16.8966   25.7114 H   0  0  0  0  0  0  0  0  0  0  0  0
   18.6920   18.6951   26.6971 C   0  0  0  0  0  0  0  0  0  0  0  0
   19.0058   19.7368   26.8388 H   0  0  0  0  0  0  0  0  0  0  0  0
   17.7120   18.6949   26.2061 H   0  0  0  0  0  0  0  0  0  0  0  0
   18.5588   18.2422   27.6873 H   0  0  0  0  0  0  0  0  0  0  0  0
   21.0045   17.7555   26.6580 N   0  3  0  0  0  0  0  0  0  0  0  0
   20.8396   17.2900   27.5551 H   0  0  0  0  0  0  0  0  0  0  0  0
   21.4309   18.6641   26.8592 H   0  0  0  0  0  0  0  0  0  0  0  0
   21.6951   17.1973   26.1478 H   0  0  0  0  0  0  0  0  0  0  0  0
  1  2  1  0  0  0  0
  1  3  1  0  0  0  0
  1  4  1  0  0  0  0
  1  5  1  0  0  0  0
  5  6  1  0  0  0  0
  5  7  1  0  0  0  0
  5  8  1  0  0  0  0
  8  9  1  0  0  0  0
  8 10  1  0  0  0  0
  8 11  1  0  0  0  0
 11 12  1  0  0  0  0
 11 13  1  0  0  0  0
 11 14  1  0  0  0  0
 14 15  1  0  0  0  0
 14 16  1  0  0  0  0
 14 17  1  0  0  0  0
 17 18  1  0  0  0  0
 17 19  1  0  0  0  0
 17 20  1  0  0  0  0
 20 21  1  0  0  0  0
 20 22  1  0  0  0  0
 22 23  1  0  0  0  0
 22 24  1  0  0  0  0
 22 25  1  0  0  0  0
 20 26  1  0  0  0  0
 26 27  1  0  0  0  0
 26 28  1  0  0  0  0
 26 29  1  0  0  0  0
M  END
> <VConfSearch Rank>
211

> <Conf_Id>
130

> <Delta U+W>
1.359

> <U+W>
-26.467

> <U>
25.687

> <W>
-52.154

> <W(PB)>
-54.643

> <W(SA)>
2.489

> <Valence>
4.682

> <Coulomb>
19.653

> <VdW>
1.352

> <VdW6>
-9.477

> <VdW12>
10.829

> <Bond>
0.274

> <Angle>
1.550

> <Pdih>
2.858

> <Idih>
0.000

> <Tether>
0.000

$$$$
VeraChem MOL file


 29 28  0  0  0  0  0  0  0  0999 V2000     
   15.9401   18.0426   24.4414 C   0  0  0  0  0  0  0  0  0  0  0  0
   15.2506   17.8020   25.2609 H   0  0  0  0  0  0  0  0  0  0  0  0
   15.3404   18.3821   23.5869 H   0  0  0  0  0  0  0  0  0  0  0  0
   16.4502   17.1140   24.1570 H   0  0  0  0  0  0  0  0  0  0  0  0
   16.9449   19.1309   24.8825 C   0  0  0  0  0  0  0  0  0  0  0  0
   17.5547   18.7550   25.7159 H   0  0  0  0  0  0  0  0  0  0  0  0
   16.3845   19.9908   25.2752 H   0  0  0  0  0  0  0  0  0  0  0  0
   17.8664   19.6201   23.7391 C   0  0  0  0  0  0  0  0  0  0  0  0
   17.2517   20.0114   22.9168 H   0  0  0  0  0  0  0  0  0  0  0  0
   18.4535   20.4683   24.1129 H   0  0  0  0  0  0  0  0  0  0  0  0
   18.8166   18.5198   23.2009 C   0  0  0  0  0  0  0  0  0  0  0  0
   18.2164   17.7086   22.7689 H   0  0  0  0  0  0  0  0  0  0  0  0
   19.3780   18.0779   24.0329 H   0  0  0  0  0  0  0  0  0  0  0  0
   19.7853   19.0349   22.1046 C   0  0  0  0  0  0  0  0  0  0  0  0
   20.2127   18.1810   21.5610 H   0  0  0  0  0  0  0  0  0  0  0  0
   19.1998   19.5914   21.3597 H   0  0  0  0  0  0  0  0  0  0  0  0
   20.9344   19.9424   22.6250 C   0  0  0  0  0  0  0  0  0  0  0  0
   20.6379   20.4642   23.5427 H   0  0  0  0  0  0  0  0  0  0  0  0
   21.1042   20.7277   21.8768 H   0  0  0  0  0  0  0  0  0  0  0  0
   22.2807   19.2130   22.8490 C   0  0  2  0  0  0  0  0  0  0  0  0
   22.5709   18.7366   21.9076 H   0  0  0  0  0  0  0  0  0  0  0  0
   22.1936   18.1242   23.9318 C   0  0  0  0  0  0  0  0  0  0  0  0
   21.5301   17.3100   23.6184 H   0  0  0  0  0  0  0  0  0  0  0  0
   23.1805   17.6829   24.1172 H   0  0  0  0  0  0  0  0  0  0  0  0
   21.8199   18.5339   24.8784 H   0  0  0  0  0  0  0  0  0  0  0  0
   23.3742   20.1897   23.1820 N   0  3  0  0  0  0  0  0  0  0  0  0
   23.4827   20.8983   22.4506 H   0  0  0  0  0  0  0  0  0  0  0  0
   24.2774   19.7184   23.2858 H   0  0  0  0  0  0  0  0  0  0  0  0
   23.1828   20.6800   24.0599 H   0  0  0  0  0  0  0  0  0  0  0  0
  1  2  1  0  0  0  0
  1  3  1  0  0  0  0
  1  4  1  0  0  0  0
  1  5  1  0  0  0  0
  5  6  1  0  0  0  0
  5  7  1  0  0  0  0
  5  8  1  0  0  0  0
  8  9  1  0  0  0  0
  8 10  1  0  0  0  0
  8 11  1  0  0  0  0
 11 12  1  0  0  0  0
 11 13  1  0  0  0  0
 11 14  1  0  0  0  0
 14 15  1  0  0  0  0
 14 16  1  0  0  0  0
 14 17  1  0  0  0  0
 17 18  1  0  0  0  0
 17 19  1  0  0  0  0
 17 20  1  0  0  0  0
 20 21  1  0  0  0  0
 20 22  1  0  0  0  0
 22 23  1  0  0  0  0
 22 24  1  0  0  0  0
 22 25  1  0  0  0  0
 20 26  1  0  0  0  0
 26 27  1  0  0  0  0
 26 28  1  0  0  0  0
 26 29  1  0  0  0  0
M  END
> <VConfSearch Rank>
212

> <Conf_Id>
157

> <Delta U+W>
4.354

> <U+W>
-23.472

> <U>
28.780

> <W>
-52.252

> <W(PB)>
-54.715

> <W(SA)>
2.462

> <Valence>
7.566

> <Coulomb>
19.822

> <VdW>
1.392

> <VdW6>
-10.248

> <VdW12>
11.641

> <Bond>
0.340

> <Angle>
2.096

> <Pdih>
5.129

> <Idih>
0.000

> <Tether>
0.000

$$$$
VeraChem MOL file


 29 28  0  0  0  0  0  0  0  0999 V2000     
   17.3246   17.6859   21.1280 C   0  0  0  0  0  0  0  0  0  0  0  0
   16.6074   17.9487   20.3397 H   0  0  0  0  0  0  0  0  0  0  0  0
   18.2778   18.1677   20.8840 H   0  0  0  0  0  0  0  0  0  0  0  0
   17.4767   16.5994   21.0909 H   0  0  0  0  0  0  0  0  0  0  0  0
   16.7899   18.1205   22.5125 C   0  0  0  0  0  0  0  0  0  0  0  0
   15.8290   17.6136   22.6784 H   0  0  0  0  0  0  0  0  0  0  0  0
   16.5680   19.1967   22.5162 H   0  0  0  0  0  0  0  0  0  0  0  0
   17.7455   17.7626   23.6798 C   0  0  0  0  0  0  0  0  0  0  0  0
   17.1336   17.4742   24.5456 H   0  0  0  0  0  0  0  0  0  0  0  0
   18.3373   16.8721   23.4270 H   0  0  0  0  0  0  0  0  0  0  0  0
   18.6810   18.9130   24.1334 C   0  0  0  0  0  0  0  0  0  0  0  0
   19.2468   18.5595   25.0050 H   0  0  0  0  0  0  0  0  0  0  0  0
   18.0737   19.7583   24.4854 H   0  0  0  0  0  0  0  0  0  0  0  0
   19.6610   19.4053   23.0402 C   0  0  0  0  0  0  0  0  0  0  0  0
   20.2132   18.5536   22.6217 H   0  0  0  0  0  0  0  0  0  0  0  0
   19.0865   19.8391   22.2118 H   0  0  0  0  0  0  0  0  0  0  0  0
   20.6511   20.4862   23.5459 C   0  0  0  0  0  0  0  0  0  0  0  0
   20.0780   21.3602   23.8829 H   0  0  0  0  0  0  0  0  0  0  0  0
   21.2647   20.8292   22.7023 H   0  0  0  0  0  0  0  0  0  0  0  0
   21.5775   20.0193   24.6913 C   0  0  2  0  0  0  0  0  0  0  0  0
   20.9548   19.7106   25.5359 H   0  0  0  0  0  0  0  0  0  0  0  0
   22.4753   21.1761   25.1577 C   0  0  0  0  0  0  0  0  0  0  0  0
   23.1297   21.5225   24.3480 H   0  0  0  0  0  0  0  0  0  0  0  0
   21.8703   22.0267   25.4956 H   0  0  0  0  0  0  0  0  0  0  0  0
   23.1074   20.8626   25.9976 H   0  0  0  0  0  0  0  0  0  0  0  0
   22.4081   18.8258   24.3070 N   0  3  0  0  0  0  0  0  0  0  0  0
   21.8172   18.0366   24.0315 H   0  0  0  0  0  0  0  0  0  0  0  0
   22.9974   18.5134   25.0839 H   0  0  0  0  0  0  0  0  0  0  0  0
   23.0256   19.0397   23.5194 H   0  0  0  0  0  0  0  0  0  0  0  0
  1  2  1  0  0  0  0
  1  3  1  0  0  0  0
  1  4  1  0  0  0  0
  1  5  1  0  0  0  0
  5  6  1  0  0  0  0
  5  7  1  0  0  0  0
  5  8  1  0  0  0  0
  8  9  1  0  0  0  0
  8 10  1  0  0  0  0
  8 11  1  0  0  0  0
 11 12  1  0  0  0  0
 11 13  1  0  0  0  0
 11 14  1  0  0  0  0
 14 15  1  0  0  0  0
 14 16  1  0  0  0  0
 14 17  1  0  0  0  0
 17 18  1  0  0  0  0
 17 19  1  0  0  0  0
 17 20  1  0  0  0  0
 20 21  1  0  0  0  0
 20 22  1  0  0  0  0
 22 23  1  0  0  0  0
 22 24  1  0  0  0  0
 22 25  1  0  0  0  0
 20 26  1  0  0  0  0
 26 27  1  0  0  0  0
 26 28  1  0  0  0  0
 26 29  1  0  0  0  0
M  END
> <VConfSearch Rank>
213

> <Conf_Id>
158

> <Delta U+W>
3.648

> <U+W>
-24.178

> <U>
28.057

> <W>
-52.235

> <W(PB)>
-54.696

> <W(SA)>
2.460

> <Valence>
6.543

> <Coulomb>
20.387

> <VdW>
1.127

> <VdW6>
-10.342

> <VdW12>
11.469

> <Bond>
0.308

> <Angle>
1.938

> <Pdih>
4.297

> <Idih>
0.000

> <Tether>
0.000

$$$$
VeraChem MOL file


 29 28  0  0  0  0  0  0  0  0999 V2000     
   23.0056   17.1478   23.5155 C   0  0  0  0  0  0  0  0  0  0  0  0
   23.4097   17.9011   24.2042 H   0  0  0  0  0  0  0  0  0  0  0  0
   22.0894   16.7350   23.9555 H   0  0  0  0  0  0  0  0  0  0  0  0
   23.7352   16.3305   23.4464 H   0  0  0  0  0  0  0  0  0  0  0  0
   22.7416   17.7560   22.1194 C   0  0  0  0  0  0  0  0  0  0  0  0
   22.3080   16.9919   21.4592 H   0  0  0  0  0  0  0  0  0  0  0  0
   23.7032   18.0408   21.6700 H   0  0  0  0  0  0  0  0  0  0  0  0
   21.8224   19.0007   22.1543 C   0  0  0  0  0  0  0  0  0  0  0  0
   22.2693   19.7681   22.8012 H   0  0  0  0  0  0  0  0  0  0  0  0
   21.7817   19.4328   21.1448 H   0  0  0  0  0  0  0  0  0  0  0  0
   20.3830   18.6910   22.6299 C   0  0  0  0  0  0  0  0  0  0  0  0
   20.4079   18.3097   23.6566 H   0  0  0  0  0  0  0  0  0  0  0  0
   19.9583   17.8910   22.0081 H   0  0  0  0  0  0  0  0  0  0  0  0
   19.4726   19.9410   22.5488 C   0  0  0  0  0  0  0  0  0  0  0  0
   19.9188   20.7783   23.1032 H   0  0  0  0  0  0  0  0  0  0  0  0
   19.4270   20.2632   21.4992 H   0  0  0  0  0  0  0  0  0  0  0  0
   18.0259   19.6829   23.0471 C   0  0  0  0  0  0  0  0  0  0  0  0
   17.7585   18.6266   22.9108 H   0  0  0  0  0  0  0  0  0  0  0  0
   17.3431   20.2496   22.4003 H   0  0  0  0  0  0  0  0  0  0  0  0
   17.7529   20.1196   24.5067 C   0  0  2  0  0  0  0  0  0  0  0  0
   17.9830   21.1862   24.5912 H   0  0  0  0  0  0  0  0  0  0  0  0
   18.6153   19.3611   25.5296 C   0  0  0  0  0  0  0  0  0  0  0  0
   18.4943   18.2757   25.4250 H   0  0  0  0  0  0  0  0  0  0  0  0
   19.6765   19.6079   25.4090 H   0  0  0  0  0  0  0  0  0  0  0  0
   18.3348   19.6381   26.5533 H   0  0  0  0  0  0  0  0  0  0  0  0
   16.2959   19.9748   24.8479 N   0  3  0  0  0  0  0  0  0  0  0  0
   15.7034   20.5119   24.2082 H   0  0  0  0  0  0  0  0  0  0  0  0
   16.0992   20.3069   25.7965 H   0  0  0  0  0  0  0  0  0  0  0  0
   15.9957   18.9975   24.7981 H   0  0  0  0  0  0  0  0  0  0  0  0
  1  2  1  0  0  0  0
  1  3  1  0  0  0  0
  1  4  1  0  0  0  0
  1  5  1  0  0  0  0
  5  6  1  0  0  0  0
  5  7  1  0  0  0  0
  5  8  1  0  0  0  0
  8  9  1  0  0  0  0
  8 10  1  0  0  0  0
  8 11  1  0  0  0  0
 11 12  1  0  0  0  0
 11 13  1  0  0  0  0
 11 14  1  0  0  0  0
 14 15  1  0  0  0  0
 14 16  1  0  0  0  0
 14 17  1  0  0  0  0
 17 18  1  0  0  0  0
 17 19  1  0  0  0  0
 17 20  1  0  0  0  0
 20 21  1  0  0  0  0
 20 22  1  0  0  0  0
 22 23  1  0  0  0  0
 22 24  1  0  0  0  0
 22 25  1  0  0  0  0
 20 26  1  0  0  0  0
 26 27  1  0  0  0  0
 26 28  1  0  0  0  0
 26 29  1  0  0  0  0
M  END
> <VConfSearch Rank>
214

> <Conf_Id>
156

> <Delta U+W>
3.393

> <U+W>
-24.433

> <U>
27.713

> <W>
-52.146

> <W(PB)>
-54.603

> <W(SA)>
2.458

> <Valence>
6.758

> <Coulomb>
19.720

> <VdW>
1.235

> <VdW6>
-9.782

> <VdW12>
11.017

> <Bond>
0.287

> <Angle>
1.880

> <Pdih>
4.591

> <Idih>
0.000

> <Tether>
0.000

$$$$
VeraChem MOL file


 29 28  0  0  0  0  0  0  0  0999 V2000     
   21.8743   20.9052   26.2830 C   0  0  0  0  0  0  0  0  0  0  0  0
   22.2593   19.9026   26.5105 H   0  0  0  0  0  0  0  0  0  0  0  0
   22.7310   21.5692   26.1087 H   0  0  0  0  0  0  0  0  0  0  0  0
   21.3400   21.2705   27.1696 H   0  0  0  0  0  0  0  0  0  0  0  0
   20.9377   20.8740   25.0569 C   0  0  0  0  0  0  0  0  0  0  0  0
   20.5453   21.8836   24.8715 H   0  0  0  0  0  0  0  0  0  0  0  0
   20.0755   20.2331   25.2840 H   0  0  0  0  0  0  0  0  0  0  0  0
   21.6677   20.3578   23.7948 C   0  0  0  0  0  0  0  0  0  0  0  0
   22.5686   20.9652   23.6309 H   0  0  0  0  0  0  0  0  0  0  0  0
   22.0242   19.3334   23.9645 H   0  0  0  0  0  0  0  0  0  0  0  0
   20.8029   20.4145   22.5088 C   0  0  0  0  0  0  0  0  0  0  0  0
   21.4048   20.0543   21.6632 H   0  0  0  0  0  0  0  0  0  0  0  0
   20.5700   21.4646   22.2847 H   0  0  0  0  0  0  0  0  0  0  0  0
   19.4766   19.6123   22.5593 C   0  0  0  0  0  0  0  0  0  0  0  0
   18.8148   20.0423   23.3216 H   0  0  0  0  0  0  0  0  0  0  0  0
   18.9644   19.7535   21.5990 H   0  0  0  0  0  0  0  0  0  0  0  0
   19.6828   18.0952   22.8204 C   0  0  0  0  0  0  0  0  0  0  0  0
   20.1686   17.9531   23.7935 H   0  0  0  0  0  0  0  0  0  0  0  0
   20.3762   17.6887   22.0724 H   0  0  0  0  0  0  0  0  0  0  0  0
   18.3866   17.2509   22.8098 C   0  0  2  0  0  0  0  0  0  0  0  0
   18.6676   16.2226   23.0577 H   0  0  0  0  0  0  0  0  0  0  0  0
   17.7194   17.2270   21.4236 C   0  0  0  0  0  0  0  0  0  0  0  0
   16.8895   16.5099   21.4106 H   0  0  0  0  0  0  0  0  0  0  0  0
   17.3164   18.2089   21.1490 H   0  0  0  0  0  0  0  0  0  0  0  0
   18.4356   16.9203   20.6512 H   0  0  0  0  0  0  0  0  0  0  0  0
   17.4116   17.6834   23.8699 N   0  3  0  0  0  0  0  0  0  0  0  0
   17.8342   17.6560   24.8022 H   0  0  0  0  0  0  0  0  0  0  0  0
   16.5870   17.0765   23.8892 H   0  0  0  0  0  0  0  0  0  0  0  0
   17.0858   18.6392   23.7057 H   0  0  0  0  0  0  0  0  0  0  0  0
  1  2  1  0  0  0  0
  1  3  1  0  0  0  0
  1  4  1  0  0  0  0
  1  5  1  0  0  0  0
  5  6  1  0  0  0  0
  5  7  1  0  0  0  0
  5  8  1  0  0  0  0
  8  9  1  0  0  0  0
  8 10  1  0  0  0  0
  8 11  1  0  0  0  0
 11 12  1  0  0  0  0
 11 13  1  0  0  0  0
 11 14  1  0  0  0  0
 14 15  1  0  0  0  0
 14 16  1  0  0  0  0
 14 17  1  0  0  0  0
 17 18  1  0  0  0  0
 17 19  1  0  0  0  0
 17 20  1  0  0  0  0
 20 21  1  0  0  0  0
 20 22  1  0  0  0  0
 22 23  1  0  0  0  0
 22 24  1  0  0  0  0
 22 25  1  0  0  0  0
 20 26  1  0  0  0  0
 26 27  1  0  0  0  0
 26 28  1  0  0  0  0
 26 29  1  0  0  0  0
M  END
> <VConfSearch Rank>
215

> <Conf_Id>
78

> <Delta U+W>
1.477

> <U+W>
-26.349

> <U>
26.385

> <W>
-52.734

> <W(PB)>
-55.179

> <W(SA)>
2.445

> <Valence>
4.726

> <Coulomb>
20.482

> <VdW>
1.177

> <VdW6>
-10.349

> <VdW12>
11.526

> <Bond>
0.319

> <Angle>
1.933

> <Pdih>
2.474

> <Idih>
0.000

> <Tether>
0.000

$$$$
VeraChem MOL file


 29 28  0  0  0  0  0  0  0  0999 V2000     
   20.1406   16.4255   20.9279 C   0  0  0  0  0  0  0  0  0  0  0  0
   19.4391   16.6399   20.1112 H   0  0  0  0  0  0  0  0  0  0  0  0
   20.7891   17.2997   21.0526 H   0  0  0  0  0  0  0  0  0  0  0  0
   20.7719   15.5848   20.6123 H   0  0  0  0  0  0  0  0  0  0  0  0
   19.3812   16.0735   22.2283 C   0  0  0  0  0  0  0  0  0  0  0  0
   20.0887   15.7848   23.0181 H   0  0  0  0  0  0  0  0  0  0  0  0
   18.7682   15.1827   22.0317 H   0  0  0  0  0  0  0  0  0  0  0  0
   18.4537   17.2123   22.7248 C   0  0  0  0  0  0  0  0  0  0  0  0
   18.1091   17.8192   21.8761 H   0  0  0  0  0  0  0  0  0  0  0  0
   17.5483   16.7554   23.1477 H   0  0  0  0  0  0  0  0  0  0  0  0
   19.0683   18.1252   23.8170 C   0  0  0  0  0  0  0  0  0  0  0  0
   19.3091   17.5218   24.7030 H   0  0  0  0  0  0  0  0  0  0  0  0
   18.2940   18.8367   24.1318 H   0  0  0  0  0  0  0  0  0  0  0  0
   20.3306   18.8990   23.3636 C   0  0  0  0  0  0  0  0  0  0  0  0
   21.1275   18.1817   23.1300 H   0  0  0  0  0  0  0  0  0  0  0  0
   20.1226   19.4422   22.4325 H   0  0  0  0  0  0  0  0  0  0  0  0
   20.8735   19.8731   24.4414 C   0  0  0  0  0  0  0  0  0  0  0  0
   21.7867   20.3499   24.0612 H   0  0  0  0  0  0  0  0  0  0  0  0
   21.1794   19.2854   25.3170 H   0  0  0  0  0  0  0  0  0  0  0  0
   19.8833   20.9692   24.9017 C   0  0  2  0  0  0  0  0  0  0  0  0
   18.9862   20.4826   25.2954 H   0  0  0  0  0  0  0  0  0  0  0  0
   19.4669   21.8963   23.7461 C   0  0  0  0  0  0  0  0  0  0  0  0
   18.8071   22.6940   24.1089 H   0  0  0  0  0  0  0  0  0  0  0  0
   20.3418   22.3644   23.2780 H   0  0  0  0  0  0  0  0  0  0  0  0
   18.9164   21.3462   22.9740 H   0  0  0  0  0  0  0  0  0  0  0  0
   20.4560   21.7739   26.0350 N   0  3  0  0  0  0  0  0  0  0  0  0
   21.3038   22.2712   25.7494 H   0  0  0  0  0  0  0  0  0  0  0  0
   20.7012   21.1804   26.8328 H   0  0  0  0  0  0  0  0  0  0  0  0
   19.7891   22.4750   26.3705 H   0  0  0  0  0  0  0  0  0  0  0  0
  1  2  1  0  0  0  0
  1  3  1  0  0  0  0
  1  4  1  0  0  0  0
  1  5  1  0  0  0  0
  5  6  1  0  0  0  0
  5  7  1  0  0  0  0
  5  8  1  0  0  0  0
  8  9  1  0  0  0  0
  8 10  1  0  0  0  0
  8 11  1  0  0  0  0
 11 12  1  0  0  0  0
 11 13  1  0  0  0  0
 11 14  1  0  0  0  0
 14 15  1  0  0  0  0
 14 16  1  0  0  0  0
 14 17  1  0  0  0  0
 17 18  1  0  0  0  0
 17 19  1  0  0  0  0
 17 20  1  0  0  0  0
 20 21  1  0  0  0  0
 20 22  1  0  0  0  0
 22 23  1  0  0  0  0
 22 24  1  0  0  0  0
 22 25  1  0  0  0  0
 20 26  1  0  0  0  0
 26 27  1  0  0  0  0
 26 28  1  0  0  0  0
 26 29  1  0  0  0  0
M  END
> <VConfSearch Rank>
216

> <Conf_Id>
145

> <Delta U+W>
3.784

> <U+W>
-24.042

> <U>
28.220

> <W>
-52.262

> <W(PB)>
-54.724

> <W(SA)>
2.462

> <Valence>
7.040

> <Coulomb>
19.984

> <VdW>
1.197

> <VdW6>
-10.566

> <VdW12>
11.763

> <Bond>
0.320

> <Angle>
2.280

> <Pdih>
4.439

> <Idih>
0.000

> <Tether>
0.000

$$$$
VeraChem MOL file


 29 28  0  0  0  0  0  0  0  0999 V2000     
   21.1510   22.7649   22.6620 C   0  0  0  0  0  0  0  0  0  0  0  0
   20.8310   23.6850   23.1681 H   0  0  0  0  0  0  0  0  0  0  0  0
   22.0225   22.3656   23.1972 H   0  0  0  0  0  0  0  0  0  0  0  0
   21.4724   23.0328   21.6471 H   0  0  0  0  0  0  0  0  0  0  0  0
   20.0071   21.7301   22.6161 C   0  0  0  0  0  0  0  0  0  0  0  0
   20.3462   20.8433   22.0673 H   0  0  0  0  0  0  0  0  0  0  0  0
   19.1652   22.1466   22.0455 H   0  0  0  0  0  0  0  0  0  0  0  0
   19.5288   21.3457   24.0370 C   0  0  0  0  0  0  0  0  0  0  0  0
   20.3734   20.9913   24.6437 H   0  0  0  0  0  0  0  0  0  0  0  0
   19.1627   22.2562   24.5314 H   0  0  0  0  0  0  0  0  0  0  0  0
   18.3896   20.2932   24.0404 C   0  0  0  0  0  0  0  0  0  0  0  0
   17.8005   20.3652   23.1157 H   0  0  0  0  0  0  0  0  0  0  0  0
   17.6944   20.5451   24.8532 H   0  0  0  0  0  0  0  0  0  0  0  0
   18.8563   18.8313   24.2627 C   0  0  0  0  0  0  0  0  0  0  0  0
   19.3476   18.7583   25.2420 H   0  0  0  0  0  0  0  0  0  0  0  0
   17.9603   18.2003   24.3199 H   0  0  0  0  0  0  0  0  0  0  0  0
   19.8043   18.2930   23.1579 C   0  0  0  0  0  0  0  0  0  0  0  0
   20.7350   18.8731   23.1671 H   0  0  0  0  0  0  0  0  0  0  0  0
   19.3476   18.4560   22.1729 H   0  0  0  0  0  0  0  0  0  0  0  0
   20.1796   16.7983   23.2928 C   0  0  2  0  0  0  0  0  0  0  0  0
   20.9037   16.5736   22.5035 H   0  0  0  0  0  0  0  0  0  0  0  0
   18.9677   15.8732   23.0847 C   0  0  0  0  0  0  0  0  0  0  0  0
   19.2891   14.8253   23.0426 H   0  0  0  0  0  0  0  0  0  0  0  0
   18.2394   15.9662   23.8988 H   0  0  0  0  0  0  0  0  0  0  0  0
   18.4593   16.1027   22.1400 H   0  0  0  0  0  0  0  0  0  0  0  0
   20.8724   16.4952   24.5927 N   0  3  0  0  0  0  0  0  0  0  0  0
   20.2557   16.6691   25.3903 H   0  0  0  0  0  0  0  0  0  0  0  0
   21.7083   17.0737   24.7164 H   0  0  0  0  0  0  0  0  0  0  0  0
   21.1676   15.5158   24.6399 H   0  0  0  0  0  0  0  0  0  0  0  0
  1  2  1  0  0  0  0
  1  3  1  0  0  0  0
  1  4  1  0  0  0  0
  1  5  1  0  0  0  0
  5  6  1  0  0  0  0
  5  7  1  0  0  0  0
  5  8  1  0  0  0  0
  8  9  1  0  0  0  0
  8 10  1  0  0  0  0
  8 11  1  0  0  0  0
 11 12  1  0  0  0  0
 11 13  1  0  0  0  0
 11 14  1  0  0  0  0
 14 15  1  0  0  0  0
 14 16  1  0  0  0  0
 14 17  1  0  0  0  0
 17 18  1  0  0  0  0
 17 19  1  0  0  0  0
 17 20  1  0  0  0  0
 20 21  1  0  0  0  0
 20 22  1  0  0  0  0
 22 23  1  0  0  0  0
 22 24  1  0  0  0  0
 22 25  1  0  0  0  0
 20 26  1  0  0  0  0
 26 27  1  0  0  0  0
 26 28  1  0  0  0  0
 26 29  1  0  0  0  0
M  END
> <VConfSearch Rank>
217

> <Conf_Id>
71

> <Delta U+W>
3.542

> <U+W>
-24.284

> <U>
28.217

> <W>
-52.501

> <W(PB)>
-54.947

> <W(SA)>
2.446

> <Valence>
6.821

> <Coulomb>
20.147

> <VdW>
1.249

> <VdW6>
-10.237

> <VdW12>
11.486

> <Bond>
0.317

> <Angle>
1.990

> <Pdih>
4.515

> <Idih>
0.000

> <Tether>
0.000

$$$$
VeraChem MOL file


 29 28  0  0  0  0  0  0  0  0999 V2000     
   16.3372   17.5820   24.5123 C   0  0  0  0  0  0  0  0  0  0  0  0
   16.2106   17.6030   23.4220 H   0  0  0  0  0  0  0  0  0  0  0  0
   16.1878   16.5495   24.8542 H   0  0  0  0  0  0  0  0  0  0  0  0
   15.5467   18.2014   24.9555 H   0  0  0  0  0  0  0  0  0  0  0  0
   17.7313   18.1048   24.9185 C   0  0  0  0  0  0  0  0  0  0  0  0
   17.8131   18.1030   26.0144 H   0  0  0  0  0  0  0  0  0  0  0  0
   17.8292   19.1497   24.6007 H   0  0  0  0  0  0  0  0  0  0  0  0
   18.8628   17.2393   24.3136 C   0  0  0  0  0  0  0  0  0  0  0  0
   18.7414   16.2122   24.6847 H   0  0  0  0  0  0  0  0  0  0  0  0
   18.7587   17.1805   23.2214 H   0  0  0  0  0  0  0  0  0  0  0  0
   20.2853   17.7309   24.6886 C   0  0  0  0  0  0  0  0  0  0  0  0
   20.9257   16.8488   24.8268 H   0  0  0  0  0  0  0  0  0  0  0  0
   20.2694   18.2394   25.6624 H   0  0  0  0  0  0  0  0  0  0  0  0
   20.9609   18.6345   23.6249 C   0  0  0  0  0  0  0  0  0  0  0  0
   21.9835   18.8471   23.9624 H   0  0  0  0  0  0  0  0  0  0  0  0
   21.0572   18.0693   22.6884 H   0  0  0  0  0  0  0  0  0  0  0  0
   20.2144   19.9687   23.3593 C   0  0  0  0  0  0  0  0  0  0  0  0
   20.0001   20.4614   24.3165 H   0  0  0  0  0  0  0  0  0  0  0  0
   19.2431   19.7559   22.8957 H   0  0  0  0  0  0  0  0  0  0  0  0
   20.9716   20.9671   22.4522 C   0  0  2  0  0  0  0  0  0  0  0  0
   20.3405   21.8551   22.3483 H   0  0  0  0  0  0  0  0  0  0  0  0
   21.2122   20.3988   21.0428 C   0  0  0  0  0  0  0  0  0  0  0  0
   20.2715   20.0538   20.5959 H   0  0  0  0  0  0  0  0  0  0  0  0
   21.6302   21.1700   20.3843 H   0  0  0  0  0  0  0  0  0  0  0  0
   21.9140   19.5564   21.0602 H   0  0  0  0  0  0  0  0  0  0  0  0
   22.2587   21.4421   23.0686 N   0  3  0  0  0  0  0  0  0  0  0  0
   22.1016   21.8612   23.9896 H   0  0  0  0  0  0  0  0  0  0  0  0
   22.7147   22.1488   22.4843 H   0  0  0  0  0  0  0  0  0  0  0  0
   22.9196   20.6707   23.1894 H   0  0  0  0  0  0  0  0  0  0  0  0
  1  2  1  0  0  0  0
  1  3  1  0  0  0  0
  1  4  1  0  0  0  0
  1  5  1  0  0  0  0
  5  6  1  0  0  0  0
  5  7  1  0  0  0  0
  5  8  1  0  0  0  0
  8  9  1  0  0  0  0
  8 10  1  0  0  0  0
  8 11  1  0  0  0  0
 11 12  1  0  0  0  0
 11 13  1  0  0  0  0
 11 14  1  0  0  0  0
 14 15  1  0  0  0  0
 14 16  1  0  0  0  0
 14 17  1  0  0  0  0
 17 18  1  0  0  0  0
 17 19  1  0  0  0  0
 17 20  1  0  0  0  0
 20 21  1  0  0  0  0
 20 22  1  0  0  0  0
 22 23  1  0  0  0  0
 22 24  1  0  0  0  0
 22 25  1  0  0  0  0
 20 26  1  0  0  0  0
 26 27  1  0  0  0  0
 26 28  1  0  0  0  0
 26 29  1  0  0  0  0
M  END
> <VConfSearch Rank>
218

> <Conf_Id>
163

> <Delta U+W>
3.309

> <U+W>
-24.517

> <U>
27.916

> <W>
-52.433

> <W(PB)>
-54.866

> <W(SA)>
2.433

> <Valence>
6.693

> <Coulomb>
20.015

> <VdW>
1.208

> <VdW6>
-10.294

> <VdW12>
11.503

> <Bond>
0.312

> <Angle>
1.939

> <Pdih>
4.441

> <Idih>
0.000

> <Tether>
0.000

$$$$
VeraChem MOL file


 29 28  0  0  0  0  0  0  0  0999 V2000     
   18.4077   15.6792   24.8600 C   0  0  0  0  0  0  0  0  0  0  0  0
   18.7593   15.6468   25.8994 H   0  0  0  0  0  0  0  0  0  0  0  0
   17.4931   16.2837   24.8244 H   0  0  0  0  0  0  0  0  0  0  0  0
   18.1381   14.6569   24.5650 H   0  0  0  0  0  0  0  0  0  0  0  0
   19.4991   16.2422   23.9215 C   0  0  0  0  0  0  0  0  0  0  0  0
   19.1117   16.2977   22.8946 H   0  0  0  0  0  0  0  0  0  0  0  0
   20.3398   15.5349   23.8948 H   0  0  0  0  0  0  0  0  0  0  0  0
   20.0325   17.6287   24.3559 C   0  0  0  0  0  0  0  0  0  0  0  0
   20.4223   17.5674   25.3812 H   0  0  0  0  0  0  0  0  0  0  0  0
   20.8866   17.8786   23.7134 H   0  0  0  0  0  0  0  0  0  0  0  0
   18.9703   18.7535   24.2665 C   0  0  0  0  0  0  0  0  0  0  0  0
   18.1169   18.5010   24.9088 H   0  0  0  0  0  0  0  0  0  0  0  0
   18.5743   18.8071   23.2438 H   0  0  0  0  0  0  0  0  0  0  0  0
   19.5010   20.1427   24.7068 C   0  0  0  0  0  0  0  0  0  0  0  0
   18.6748   20.8654   24.6692 H   0  0  0  0  0  0  0  0  0  0  0  0
   19.8010   20.0923   25.7625 H   0  0  0  0  0  0  0  0  0  0  0  0
   20.6943   20.6848   23.8751 C   0  0  0  0  0  0  0  0  0  0  0  0
   21.5813   20.0697   24.0732 H   0  0  0  0  0  0  0  0  0  0  0  0
   20.9455   21.6935   24.2287 H   0  0  0  0  0  0  0  0  0  0  0  0
   20.4353   20.7271   22.3529 C   0  0  2  0  0  0  0  0  0  0  0  0
   20.1902   19.7149   22.0176 H   0  0  0  0  0  0  0  0  0  0  0  0
   21.6975   21.1872   21.6070 C   0  0  0  0  0  0  0  0  0  0  0  0
   21.5308   21.1832   20.5228 H   0  0  0  0  0  0  0  0  0  0  0  0
   21.9868   22.2028   21.9048 H   0  0  0  0  0  0  0  0  0  0  0  0
   22.5401   20.5164   21.8167 H   0  0  0  0  0  0  0  0  0  0  0  0
   19.2618   21.5982   21.9979 N   0  3  0  0  0  0  0  0  0  0  0  0
   18.4093   21.2808   22.4671 H   0  0  0  0  0  0  0  0  0  0  0  0
   19.0808   21.5913   20.9900 H   0  0  0  0  0  0  0  0  0  0  0  0
   19.4227   22.5703   22.2746 H   0  0  0  0  0  0  0  0  0  0  0  0
  1  2  1  0  0  0  0
  1  3  1  0  0  0  0
  1  4  1  0  0  0  0
  1  5  1  0  0  0  0
  5  6  1  0  0  0  0
  5  7  1  0  0  0  0
  5  8  1  0  0  0  0
  8  9  1  0  0  0  0
  8 10  1  0  0  0  0
  8 11  1  0  0  0  0
 11 12  1  0  0  0  0
 11 13  1  0  0  0  0
 11 14  1  0  0  0  0
 14 15  1  0  0  0  0
 14 16  1  0  0  0  0
 14 17  1  0  0  0  0
 17 18  1  0  0  0  0
 17 19  1  0  0  0  0
 17 20  1  0  0  0  0
 20 21  1  0  0  0  0
 20 22  1  0  0  0  0
 22 23  1  0  0  0  0
 22 24  1  0  0  0  0
 22 25  1  0  0  0  0
 20 26  1  0  0  0  0
 26 27  1  0  0  0  0
 26 28  1  0  0  0  0
 26 29  1  0  0  0  0
M  END
> <VConfSearch Rank>
219

> <Conf_Id>
173

> <Delta U+W>
1.363

> <U+W>
-26.462

> <U>
25.816

> <W>
-52.279

> <W(PB)>
-54.727

> <W(SA)>
2.449

> <Valence>
4.504

> <Coulomb>
20.342

> <VdW>
0.971

> <VdW6>
-10.532

> <VdW12>
11.503

> <Bond>
0.307

> <Angle>
1.715

> <Pdih>
2.481

> <Idih>
0.000

> <Tether>
0.000

$$$$
VeraChem MOL file


 29 28  0  0  0  0  0  0  0  0999 V2000     
   18.7874   17.6911   20.0340 C   0  0  0  0  0  0  0  0  0  0  0  0
   19.7064   17.1398   19.7958 H   0  0  0  0  0  0  0  0  0  0  0  0
   17.9331   17.0247   19.8572 H   0  0  0  0  0  0  0  0  0  0  0  0
   18.7082   18.5330   19.3340 H   0  0  0  0  0  0  0  0  0  0  0  0
   18.8059   18.1953   21.4925 C   0  0  0  0  0  0  0  0  0  0  0  0
   17.8877   18.7646   21.6929 H   0  0  0  0  0  0  0  0  0  0  0  0
   19.6505   18.8857   21.6171 H   0  0  0  0  0  0  0  0  0  0  0  0
   18.9278   17.0275   22.4978 C   0  0  0  0  0  0  0  0  0  0  0  0
   18.1457   16.2868   22.2809 H   0  0  0  0  0  0  0  0  0  0  0  0
   19.8863   16.5130   22.3437 H   0  0  0  0  0  0  0  0  0  0  0  0
   18.8019   17.4460   23.9856 C   0  0  0  0  0  0  0  0  0  0  0  0
   18.8647   16.5318   24.5920 H   0  0  0  0  0  0  0  0  0  0  0  0
   17.8024   17.8597   24.1781 H   0  0  0  0  0  0  0  0  0  0  0  0
   19.8971   18.4283   24.4766 C   0  0  0  0  0  0  0  0  0  0  0  0
   20.1546   18.1638   25.5107 H   0  0  0  0  0  0  0  0  0  0  0  0
   20.8116   18.2819   23.8876 H   0  0  0  0  0  0  0  0  0  0  0  0
   19.4428   19.9142   24.4445 C   0  0  0  0  0  0  0  0  0  0  0  0
   18.5597   20.0296   25.0864 H   0  0  0  0  0  0  0  0  0  0  0  0
   19.1132   20.1897   23.4365 H   0  0  0  0  0  0  0  0  0  0  0  0
   20.5135   20.9314   24.9043 C   0  0  2  0  0  0  0  0  0  0  0  0
   20.0467   21.9212   24.8938 H   0  0  0  0  0  0  0  0  0  0  0  0
   21.7163   20.9759   23.9457 C   0  0  0  0  0  0  0  0  0  0  0  0
   21.3860   21.1426   22.9129 H   0  0  0  0  0  0  0  0  0  0  0  0
   22.3908   21.7977   24.2155 H   0  0  0  0  0  0  0  0  0  0  0  0
   22.2950   20.0452   23.9756 H   0  0  0  0  0  0  0  0  0  0  0  0
   20.9607   20.6966   26.3208 N   0  3  0  0  0  0  0  0  0  0  0  0
   20.1699   20.7104   26.9713 H   0  0  0  0  0  0  0  0  0  0  0  0
   21.6228   21.4149   26.6281 H   0  0  0  0  0  0  0  0  0  0  0  0
   21.4243   19.7898   26.4177 H   0  0  0  0  0  0  0  0  0  0  0  0
  1  2  1  0  0  0  0
  1  3  1  0  0  0  0
  1  4  1  0  0  0  0
  1  5  1  0  0  0  0
  5  6  1  0  0  0  0
  5  7  1  0  0  0  0
  5  8  1  0  0  0  0
  8  9  1  0  0  0  0
  8 10  1  0  0  0  0
  8 11  1  0  0  0  0
 11 12  1  0  0  0  0
 11 13  1  0  0  0  0
 11 14  1  0  0  0  0
 14 15  1  0  0  0  0
 14 16  1  0  0  0  0
 14 17  1  0  0  0  0
 17 18  1  0  0  0  0
 17 19  1  0  0  0  0
 17 20  1  0  0  0  0
 20 21  1  0  0  0  0
 20 22  1  0  0  0  0
 22 23  1  0  0  0  0
 22 24  1  0  0  0  0
 22 25  1  0  0  0  0
 20 26  1  0  0  0  0
 26 27  1  0  0  0  0
 26 28  1  0  0  0  0
 26 29  1  0  0  0  0
M  END
> <VConfSearch Rank>
220

> <Conf_Id>
117

> <Delta U+W>
3.377

> <U+W>
-24.449

> <U>
27.947

> <W>
-52.396

> <W(PB)>
-54.842

> <W(SA)>
2.447

> <Valence>
6.731

> <Coulomb>
20.067

> <VdW>
1.149

> <VdW6>
-10.427

> <VdW12>
11.575

> <Bond>
0.324

> <Angle>
1.943

> <Pdih>
4.465

> <Idih>
0.000

> <Tether>
0.000

$$$$
VeraChem MOL file


 29 28  0  0  0  0  0  0  0  0999 V2000     
   23.8301   16.7146   24.5263 C   0  0  0  0  0  0  0  0  0  0  0  0
   23.5820   16.6308   25.5925 H   0  0  0  0  0  0  0  0  0  0  0  0
   23.5183   15.7870   24.0287 H   0  0  0  0  0  0  0  0  0  0  0  0
   24.9216   16.7932   24.4394 H   0  0  0  0  0  0  0  0  0  0  0  0
   23.1431   17.9423   23.8918 C   0  0  0  0  0  0  0  0  0  0  0  0
   23.4367   18.0189   22.8354 H   0  0  0  0  0  0  0  0  0  0  0  0
   23.4998   18.8562   24.3871 H   0  0  0  0  0  0  0  0  0  0  0  0
   21.6047   17.8565   24.0007 C   0  0  0  0  0  0  0  0  0  0  0  0
   21.2531   16.9404   23.5062 H   0  0  0  0  0  0  0  0  0  0  0  0
   21.3164   17.7778   25.0580 H   0  0  0  0  0  0  0  0  0  0  0  0
   20.9132   19.0843   23.3662 C   0  0  0  0  0  0  0  0  0  0  0  0
   21.2035   19.1625   22.3093 H   0  0  0  0  0  0  0  0  0  0  0  0
   21.2651   20.0000   23.8614 H   0  0  0  0  0  0  0  0  0  0  0  0
   19.3741   18.9978   23.4747 C   0  0  0  0  0  0  0  0  0  0  0  0
   19.0227   18.0836   22.9761 H   0  0  0  0  0  0  0  0  0  0  0  0
   19.0924   18.9134   24.5327 H   0  0  0  0  0  0  0  0  0  0  0  0
   18.6840   20.2294   22.8395 C   0  0  0  0  0  0  0  0  0  0  0  0
   19.0208   20.3273   21.7988 H   0  0  0  0  0  0  0  0  0  0  0  0
   19.0024   21.1428   23.3593 H   0  0  0  0  0  0  0  0  0  0  0  0
   17.1432   20.1322   22.8567 C   0  0  2  0  0  0  0  0  0  0  0  0
   16.8524   19.2039   22.3552 H   0  0  0  0  0  0  0  0  0  0  0  0
   16.5248   21.3105   22.0876 C   0  0  0  0  0  0  0  0  0  0  0  0
   15.4311   21.2281   22.0646 H   0  0  0  0  0  0  0  0  0  0  0  0
   16.7858   22.2692   22.5531 H   0  0  0  0  0  0  0  0  0  0  0  0
   16.8789   21.3272   21.0493 H   0  0  0  0  0  0  0  0  0  0  0  0
   16.5861   20.0634   24.2523 N   0  3  0  0  0  0  0  0  0  0  0  0
   16.9556   19.2569   24.7628 H   0  0  0  0  0  0  0  0  0  0  0  0
   15.5655   19.9796   24.2440 H   0  0  0  0  0  0  0  0  0  0  0  0
   16.8206   20.9027   24.7892 H   0  0  0  0  0  0  0  0  0  0  0  0
  1  2  1  0  0  0  0
  1  3  1  0  0  0  0
  1  4  1  0  0  0  0
  1  5  1  0  0  0  0
  5  6  1  0  0  0  0
  5  7  1  0  0  0  0
  5  8  1  0  0  0  0
  8  9  1  0  0  0  0
  8 10  1  0  0  0  0
  8 11  1  0  0  0  0
 11 12  1  0  0  0  0
 11 13  1  0  0  0  0
 11 14  1  0  0  0  0
 14 15  1  0  0  0  0
 14 16  1  0  0  0  0
 14 17  1  0  0  0  0
 17 18  1  0  0  0  0
 17 19  1  0  0  0  0
 17 20  1  0  0  0  0
 20 21  1  0  0  0  0
 20 22  1  0  0  0  0
 22 23  1  0  0  0  0
 22 24  1  0  0  0  0
 22 25  1  0  0  0  0
 20 26  1  0  0  0  0
 26 27  1  0  0  0  0
 26 28  1  0  0  0  0
 26 29  1  0  0  0  0
M  END
> <VConfSearch Rank>
221

> <Conf_Id>
164

> <Delta U+W>
0.000

> <U+W>
-27.826

> <U>
23.963

> <W>
-51.789

> <W(PB)>
-54.342

> <W(SA)>
2.554

> <Valence>
3.166

> <Coulomb>
19.734

> <VdW>
1.062

> <VdW6>
-7.938

> <VdW12>
9.001

> <Bond>
0.188

> <Angle>
0.880

> <Pdih>
2.098

> <Idih>
0.000

> <Tether>
0.000

$$$$
VeraChem MOL file


 29 28  0  0  0  0  0  0  0  0999 V2000     
   21.5854   23.3539   25.0158 C   0  0  0  0  0  0  0  0  0  0  0  0
   21.5662   23.8221   24.0230 H   0  0  0  0  0  0  0  0  0  0  0  0
   20.6586   23.6232   25.5389 H   0  0  0  0  0  0  0  0  0  0  0  0
   22.4258   23.7847   25.5755 H   0  0  0  0  0  0  0  0  0  0  0  0
   21.7339   21.8218   24.9036 C   0  0  0  0  0  0  0  0  0  0  0  0
   21.7841   21.3856   25.9112 H   0  0  0  0  0  0  0  0  0  0  0  0
   22.6847   21.5830   24.4069 H   0  0  0  0  0  0  0  0  0  0  0  0
   20.5627   21.1897   24.1195 C   0  0  0  0  0  0  0  0  0  0  0  0
   19.6145   21.4331   24.6184 H   0  0  0  0  0  0  0  0  0  0  0  0
   20.5152   21.6303   23.1140 H   0  0  0  0  0  0  0  0  0  0  0  0
   20.7079   19.6554   24.0051 C   0  0  0  0  0  0  0  0  0  0  0  0
   20.7550   19.2155   25.0109 H   0  0  0  0  0  0  0  0  0  0  0  0
   21.6572   19.4137   23.5073 H   0  0  0  0  0  0  0  0  0  0  0  0
   19.5362   19.0235   23.2200 C   0  0  0  0  0  0  0  0  0  0  0  0
   18.5928   19.2781   23.7206 H   0  0  0  0  0  0  0  0  0  0  0  0
   19.4924   19.4599   22.2125 H   0  0  0  0  0  0  0  0  0  0  0  0
   19.6816   17.4857   23.1109 C   0  0  0  0  0  0  0  0  0  0  0  0
   19.6600   17.0395   24.1141 H   0  0  0  0  0  0  0  0  0  0  0  0
   20.6697   17.2573   22.6901 H   0  0  0  0  0  0  0  0  0  0  0  0
   18.6064   16.8197   22.2223 C   0  0  2  0  0  0  0  0  0  0  0  0
   18.6190   17.3088   21.2433 H   0  0  0  0  0  0  0  0  0  0  0  0
   17.1938   16.9578   22.8179 C   0  0  0  0  0  0  0  0  0  0  0  0
   17.1470   16.5368   23.8300 H   0  0  0  0  0  0  0  0  0  0  0  0
   16.8822   18.0075   22.8671 H   0  0  0  0  0  0  0  0  0  0  0  0
   16.4594   16.4309   22.1962 H   0  0  0  0  0  0  0  0  0  0  0  0
   18.9274   15.3716   21.9768 N   0  3  0  0  0  0  0  0  0  0  0  0
   18.2391   14.9360   21.3562 H   0  0  0  0  0  0  0  0  0  0  0  0
   18.9335   14.8367   22.8496 H   0  0  0  0  0  0  0  0  0  0  0  0
   19.8466   15.2579   21.5396 H   0  0  0  0  0  0  0  0  0  0  0  0
  1  2  1  0  0  0  0
  1  3  1  0  0  0  0
  1  4  1  0  0  0  0
  1  5  1  0  0  0  0
  5  6  1  0  0  0  0
  5  7  1  0  0  0  0
  5  8  1  0  0  0  0
  8  9  1  0  0  0  0
  8 10  1  0  0  0  0
  8 11  1  0  0  0  0
 11 12  1  0  0  0  0
 11 13  1  0  0  0  0
 11 14  1  0  0  0  0
 14 15  1  0  0  0  0
 14 16  1  0  0  0  0
 14 17  1  0  0  0  0
 17 18  1  0  0  0  0
 17 19  1  0  0  0  0
 17 20  1  0  0  0  0
 20 21  1  0  0  0  0
 20 22  1  0  0  0  0
 22 23  1  0  0  0  0
 22 24  1  0  0  0  0
 22 25  1  0  0  0  0
 20 26  1  0  0  0  0
 26 27  1  0  0  0  0
 26 28  1  0  0  0  0
 26 29  1  0  0  0  0
M  END
> <VConfSearch Rank>
222

> <Conf_Id>
58

> <Delta U+W>
0.412

> <U+W>
-27.414

> <U>
24.279

> <W>
-51.694

> <W(PB)>
-54.271

> <W(SA)>
2.577

> <Valence>
3.709

> <Coulomb>
19.380

> <VdW>
1.191

> <VdW6>
-8.093

> <VdW12>
9.284

> <Bond>
0.200

> <Angle>
1.161

> <Pdih>
2.348

> <Idih>
0.000

> <Tether>
0.000

$$$$
VeraChem MOL file


 29 28  0  0  0  0  0  0  0  0999 V2000     
   23.9387   17.1234   24.1051 C   0  0  0  0  0  0  0  0  0  0  0  0
   24.3767   18.0498   24.4990 H   0  0  0  0  0  0  0  0  0  0  0  0
   23.5843   16.5246   24.9542 H   0  0  0  0  0  0  0  0  0  0  0  0
   24.7365   16.5596   23.6045 H   0  0  0  0  0  0  0  0  0  0  0  0
   22.7879   17.4281   23.1228 C   0  0  0  0  0  0  0  0  0  0  0  0
   22.3928   16.4849   22.7202 H   0  0  0  0  0  0  0  0  0  0  0  0
   23.1791   17.9984   22.2686 H   0  0  0  0  0  0  0  0  0  0  0  0
   21.6506   18.2219   23.8029 C   0  0  0  0  0  0  0  0  0  0  0  0
   21.2643   17.6489   24.6572 H   0  0  0  0  0  0  0  0  0  0  0  0
   22.0509   19.1625   24.2058 H   0  0  0  0  0  0  0  0  0  0  0  0
   20.4965   18.5291   22.8222 C   0  0  0  0  0  0  0  0  0  0  0  0
   20.0977   17.5877   22.4195 H   0  0  0  0  0  0  0  0  0  0  0  0
   20.8841   19.1016   21.9680 H   0  0  0  0  0  0  0  0  0  0  0  0
   19.3589   19.3234   23.5027 C   0  0  0  0  0  0  0  0  0  0  0  0
   18.9774   18.7467   24.3557 H   0  0  0  0  0  0  0  0  0  0  0  0
   19.7681   20.2591   23.9057 H   0  0  0  0  0  0  0  0  0  0  0  0
   18.2056   19.6315   22.5127 C   0  0  0  0  0  0  0  0  0  0  0  0
   17.8402   18.6905   22.0808 H   0  0  0  0  0  0  0  0  0  0  0  0
   18.5969   20.2180   21.6709 H   0  0  0  0  0  0  0  0  0  0  0  0
   17.0031   20.3860   23.1274 C   0  0  2  0  0  0  0  0  0  0  0  0
   16.2576   20.5094   22.3356 H   0  0  0  0  0  0  0  0  0  0  0  0
   17.3922   21.7898   23.6225 C   0  0  0  0  0  0  0  0  0  0  0  0
   16.4995   22.3505   23.9256 H   0  0  0  0  0  0  0  0  0  0  0  0
   18.0670   21.7432   24.4854 H   0  0  0  0  0  0  0  0  0  0  0  0
   17.8888   22.3599   22.8275 H   0  0  0  0  0  0  0  0  0  0  0  0
   16.3277   19.5990   24.2164 N   0  3  0  0  0  0  0  0  0  0  0  0
   16.0253   18.6792   23.8826 H   0  0  0  0  0  0  0  0  0  0  0  0
   15.4981   20.0846   24.5694 H   0  0  0  0  0  0  0  0  0  0  0  0
   16.9560   19.4482   25.0095 H   0  0  0  0  0  0  0  0  0  0  0  0
  1  2  1  0  0  0  0
  1  3  1  0  0  0  0
  1  4  1  0  0  0  0
  1  5  1  0  0  0  0
  5  6  1  0  0  0  0
  5  7  1  0  0  0  0
  5  8  1  0  0  0  0
  8  9  1  0  0  0  0
  8 10  1  0  0  0  0
  8 11  1  0  0  0  0
 11 12  1  0  0  0  0
 11 13  1  0  0  0  0
 11 14  1  0  0  0  0
 14 15  1  0  0  0  0
 14 16  1  0  0  0  0
 14 17  1  0  0  0  0
 17 18  1  0  0  0  0
 17 19  1  0  0  0  0
 17 20  1  0  0  0  0
 20 21  1  0  0  0  0
 20 22  1  0  0  0  0
 22 23  1  0  0  0  0
 22 24  1  0  0  0  0
 22 25  1  0  0  0  0
 20 26  1  0  0  0  0
 26 27  1  0  0  0  0
 26 28  1  0  0  0  0
 26 29  1  0  0  0  0
M  END
> <VConfSearch Rank>
223

> <Conf_Id>
137

> <Delta U+W>
0.280

> <U+W>
-27.546

> <U>
24.513

> <W>
-52.059

> <W(PB)>
-54.556

> <W(SA)>
2.497

> <Valence>
3.677

> <Coulomb>
19.662

> <VdW>
1.174

> <VdW6>
-8.569

> <VdW12>
9.743

> <Bond>
0.224

> <Angle>
1.211

> <Pdih>
2.243

> <Idih>
0.000

> <Tether>
0.000

$$$$
VeraChem MOL file


 29 28  0  0  0  0  0  0  0  0999 V2000     
   19.4878   15.1471   21.5550 C   0  0  0  0  0  0  0  0  0  0  0  0
   20.4465   14.9972   22.0685 H   0  0  0  0  0  0  0  0  0  0  0  0
   18.6873   14.7832   22.2122 H   0  0  0  0  0  0  0  0  0  0  0  0
   19.4895   14.5259   20.6500 H   0  0  0  0  0  0  0  0  0  0  0  0
   19.2775   16.6332   21.1955 C   0  0  0  0  0  0  0  0  0  0  0  0
   18.3283   16.7457   20.6530 H   0  0  0  0  0  0  0  0  0  0  0  0
   20.0739   16.9594   20.5120 H   0  0  0  0  0  0  0  0  0  0  0  0
   19.2701   17.5305   22.4529 C   0  0  0  0  0  0  0  0  0  0  0  0
   18.4709   17.2020   23.1315 H   0  0  0  0  0  0  0  0  0  0  0  0
   20.2188   17.4000   22.9891 H   0  0  0  0  0  0  0  0  0  0  0  0
   19.0635   19.0215   22.0923 C   0  0  0  0  0  0  0  0  0  0  0  0
   18.1541   19.1166   21.4829 H   0  0  0  0  0  0  0  0  0  0  0  0
   19.8937   19.3699   21.4625 H   0  0  0  0  0  0  0  0  0  0  0  0
   18.9227   19.9478   23.3255 C   0  0  0  0  0  0  0  0  0  0  0  0
   18.6321   20.9430   22.9655 H   0  0  0  0  0  0  0  0  0  0  0  0
   18.0973   19.5942   23.9587 H   0  0  0  0  0  0  0  0  0  0  0  0
   20.2196   20.0586   24.1690 C   0  0  0  0  0  0  0  0  0  0  0  0
   21.0420   20.4222   23.5387 H   0  0  0  0  0  0  0  0  0  0  0  0
   20.5090   19.0584   24.5129 H   0  0  0  0  0  0  0  0  0  0  0  0
   20.0777   20.9663   25.4126 C   0  0  2  0  0  0  0  0  0  0  0  0
   19.2157   20.6222   25.9923 H   0  0  0  0  0  0  0  0  0  0  0  0
   19.8550   22.4421   25.0355 C   0  0  0  0  0  0  0  0  0  0  0  0
   20.6634   22.8141   24.3938 H   0  0  0  0  0  0  0  0  0  0  0  0
   18.9048   22.5814   24.5077 H   0  0  0  0  0  0  0  0  0  0  0  0
   19.8195   23.0691   25.9350 H   0  0  0  0  0  0  0  0  0  0  0  0
   21.2733   20.8381   26.3153 N   0  3  0  0  0  0  0  0  0  0  0  0
   21.4161   19.8699   26.6172 H   0  0  0  0  0  0  0  0  0  0  0  0
   21.1670   21.4077   27.1597 H   0  0  0  0  0  0  0  0  0  0  0  0
   22.1303   21.1440   25.8465 H   0  0  0  0  0  0  0  0  0  0  0  0
  1  2  1  0  0  0  0
  1  3  1  0  0  0  0
  1  4  1  0  0  0  0
  1  5  1  0  0  0  0
  5  6  1  0  0  0  0
  5  7  1  0  0  0  0
  5  8  1  0  0  0  0
  8  9  1  0  0  0  0
  8 10  1  0  0  0  0
  8 11  1  0  0  0  0
 11 12  1  0  0  0  0
 11 13  1  0  0  0  0
 11 14  1  0  0  0  0
 14 15  1  0  0  0  0
 14 16  1  0  0  0  0
 14 17  1  0  0  0  0
 17 18  1  0  0  0  0
 17 19  1  0  0  0  0
 17 20  1  0  0  0  0
 20 21  1  0  0  0  0
 20 22  1  0  0  0  0
 22 23  1  0  0  0  0
 22 24  1  0  0  0  0
 22 25  1  0  0  0  0
 20 26  1  0  0  0  0
 26 27  1  0  0  0  0
 26 28  1  0  0  0  0
 26 29  1  0  0  0  0
M  END
> <VConfSearch Rank>
224

> <Conf_Id>
40

> <Delta U+W>
1.128

> <U+W>
-26.698

> <U>
25.442

> <W>
-52.140

> <W(PB)>
-54.658

> <W(SA)>
2.519

> <Valence>
4.343

> <Coulomb>
19.740

> <VdW>
1.360

> <VdW6>
-8.739

> <VdW12>
10.099

> <Bond>
0.251

> <Angle>
1.483

> <Pdih>
2.608

> <Idih>
0.000

> <Tether>
0.000

$$$$
VeraChem MOL file


 29 28  0  0  0  0  0  0  0  0999 V2000     
   17.6005   18.7612   27.2756 C   0  0  0  0  0  0  0  0  0  0  0  0
   17.7179   17.7099   26.9855 H   0  0  0  0  0  0  0  0  0  0  0  0
   18.4690   19.0507   27.8814 H   0  0  0  0  0  0  0  0  0  0  0  0
   16.7094   18.8290   27.9129 H   0  0  0  0  0  0  0  0  0  0  0  0
   17.4528   19.6796   26.0412 C   0  0  0  0  0  0  0  0  0  0  0  0
   17.2094   20.6947   26.3849 H   0  0  0  0  0  0  0  0  0  0  0  0
   16.5995   19.3483   25.4331 H   0  0  0  0  0  0  0  0  0  0  0  0
   18.7266   19.7464   25.1641 C   0  0  0  0  0  0  0  0  0  0  0  0
   18.5717   20.5215   24.4031 H   0  0  0  0  0  0  0  0  0  0  0  0
   19.5762   20.0780   25.7768 H   0  0  0  0  0  0  0  0  0  0  0  0
   19.0715   18.4017   24.4745 C   0  0  0  0  0  0  0  0  0  0  0  0
   18.2244   18.0726   23.8572 H   0  0  0  0  0  0  0  0  0  0  0  0
   19.2150   17.6278   25.2394 H   0  0  0  0  0  0  0  0  0  0  0  0
   20.3544   18.4579   23.6085 C   0  0  0  0  0  0  0  0  0  0  0  0
   21.1969   18.8059   24.2221 H   0  0  0  0  0  0  0  0  0  0  0  0
   20.5992   17.4328   23.3010 H   0  0  0  0  0  0  0  0  0  0  0  0
   20.2169   19.3546   22.3508 C   0  0  0  0  0  0  0  0  0  0  0  0
   20.0002   20.3843   22.6599 H   0  0  0  0  0  0  0  0  0  0  0  0
   19.3624   19.0203   21.7476 H   0  0  0  0  0  0  0  0  0  0  0  0
   21.4922   19.3689   21.4799 C   0  0  2  0  0  0  0  0  0  0  0  0
   22.3349   19.6687   22.1105 H   0  0  0  0  0  0  0  0  0  0  0  0
   21.3514   20.3942   20.3434 C   0  0  0  0  0  0  0  0  0  0  0  0
   22.2675   20.4347   19.7413 H   0  0  0  0  0  0  0  0  0  0  0  0
   20.5166   20.1381   19.6790 H   0  0  0  0  0  0  0  0  0  0  0  0
   21.1728   21.3995   20.7447 H   0  0  0  0  0  0  0  0  0  0  0  0
   21.8276   18.0118   20.9240 N   0  3  0  0  0  0  0  0  0  0  0  0
   21.0787   17.6601   20.3216 H   0  0  0  0  0  0  0  0  0  0  0  0
   21.9708   17.3266   21.6707 H   0  0  0  0  0  0  0  0  0  0  0  0
   22.6848   18.0384   20.3643 H   0  0  0  0  0  0  0  0  0  0  0  0
  1  2  1  0  0  0  0
  1  3  1  0  0  0  0
  1  4  1  0  0  0  0
  1  5  1  0  0  0  0
  5  6  1  0  0  0  0
  5  7  1  0  0  0  0
  5  8  1  0  0  0  0
  8  9  1  0  0  0  0
  8 10  1  0  0  0  0
  8 11  1  0  0  0  0
 11 12  1  0  0  0  0
 11 13  1  0  0  0  0
 11 14  1  0  0  0  0
 14 15  1  0  0  0  0
 14 16  1  0  0  0  0
 14 17  1  0  0  0  0
 17 18  1  0  0  0  0
 17 19  1  0  0  0  0
 17 20  1  0  0  0  0
 20 21  1  0  0  0  0
 20 22  1  0  0  0  0
 22 23  1  0  0  0  0
 22 24  1  0  0  0  0
 22 25  1  0  0  0  0
 20 26  1  0  0  0  0
 26 27  1  0  0  0  0
 26 28  1  0  0  0  0
 26 29  1  0  0  0  0
M  END
> <VConfSearch Rank>
225

> <Conf_Id>
134

> <Delta U+W>
1.228

> <U+W>
-26.598

> <U>
25.451

> <W>
-52.048

> <W(PB)>
-54.539

> <W(SA)>
2.490

> <Valence>
4.319

> <Coulomb>
19.732

> <VdW>
1.400

> <VdW6>
-9.173

> <VdW12>
10.573

> <Bond>
0.281

> <Angle>
1.459

> <Pdih>
2.580

> <Idih>
0.000

> <Tether>
0.000

$$$$
VeraChem MOL file


 29 28  0  0  0  0  0  0  0  0999 V2000     
   23.3228   20.5477   25.5283 C   0  0  0  0  0  0  0  0  0  0  0  0
   22.5563   21.0498   26.1314 H   0  0  0  0  0  0  0  0  0  0  0  0
   23.5109   19.5581   25.9644 H   0  0  0  0  0  0  0  0  0  0  0  0
   24.2466   21.1341   25.6159 H   0  0  0  0  0  0  0  0  0  0  0  0
   22.8957   20.4305   24.0475 C   0  0  0  0  0  0  0  0  0  0  0  0
   23.7433   20.0413   23.4663 H   0  0  0  0  0  0  0  0  0  0  0  0
   22.6797   21.4297   23.6442 H   0  0  0  0  0  0  0  0  0  0  0  0
   21.6769   19.5021   23.8275 C   0  0  0  0  0  0  0  0  0  0  0  0
   21.5380   19.3762   22.7461 H   0  0  0  0  0  0  0  0  0  0  0  0
   21.8987   18.5043   24.2303 H   0  0  0  0  0  0  0  0  0  0  0  0
   20.3683   20.0423   24.4583 C   0  0  0  0  0  0  0  0  0  0  0  0
   20.1459   21.0394   24.0541 H   0  0  0  0  0  0  0  0  0  0  0  0
   20.5098   20.1716   25.5389 H   0  0  0  0  0  0  0  0  0  0  0  0
   19.1497   19.1110   24.2438 C   0  0  0  0  0  0  0  0  0  0  0  0
   19.3761   18.1225   24.6647 H   0  0  0  0  0  0  0  0  0  0  0  0
   18.3031   19.5083   24.8207 H   0  0  0  0  0  0  0  0  0  0  0  0
   18.7270   18.9770   22.7580 C   0  0  0  0  0  0  0  0  0  0  0  0
   19.5032   18.4484   22.1905 H   0  0  0  0  0  0  0  0  0  0  0  0
   18.6501   19.9824   22.3235 H   0  0  0  0  0  0  0  0  0  0  0  0
   17.3746   18.2546   22.5635 C   0  0  2  0  0  0  0  0  0  0  0  0
   16.6194   18.7730   23.1623 H   0  0  0  0  0  0  0  0  0  0  0  0
   17.4329   16.7853   23.0183 C   0  0  0  0  0  0  0  0  0  0  0  0
   18.2190   16.2359   22.4855 H   0  0  0  0  0  0  0  0  0  0  0  0
   17.6286   16.7087   24.0941 H   0  0  0  0  0  0  0  0  0  0  0  0
   16.4767   16.2832   22.8260 H   0  0  0  0  0  0  0  0  0  0  0  0
   16.9144   18.3395   21.1347 N   0  3  0  0  0  0  0  0  0  0  0  0
   16.8270   19.3114   20.8239 H   0  0  0  0  0  0  0  0  0  0  0  0
   15.9997   17.8965   21.0097 H   0  0  0  0  0  0  0  0  0  0  0  0
   17.5694   17.8718   20.5023 H   0  0  0  0  0  0  0  0  0  0  0  0
  1  2  1  0  0  0  0
  1  3  1  0  0  0  0
  1  4  1  0  0  0  0
  1  5  1  0  0  0  0
  5  6  1  0  0  0  0
  5  7  1  0  0  0  0
  5  8  1  0  0  0  0
  8  9  1  0  0  0  0
  8 10  1  0  0  0  0
  8 11  1  0  0  0  0
 11 12  1  0  0  0  0
 11 13  1  0  0  0  0
 11 14  1  0  0  0  0
 14 15  1  0  0  0  0
 14 16  1  0  0  0  0
 14 17  1  0  0  0  0
 17 18  1  0  0  0  0
 17 19  1  0  0  0  0
 17 20  1  0  0  0  0
 20 21  1  0  0  0  0
 20 22  1  0  0  0  0
 22 23  1  0  0  0  0
 22 24  1  0  0  0  0
 22 25  1  0  0  0  0
 20 26  1  0  0  0  0
 26 27  1  0  0  0  0
 26 28  1  0  0  0  0
 26 29  1  0  0  0  0
M  END
> <VConfSearch Rank>
226

> <Conf_Id>
73

> <Delta U+W>
1.580

> <U+W>
-26.246

> <U>
25.821

> <W>
-52.067

> <W(PB)>
-54.581

> <W(SA)>
2.514

> <Valence>
4.779

> <Coulomb>
19.614

> <VdW>
1.428

> <VdW6>
-9.390

> <VdW12>
10.818

> <Bond>
0.283

> <Angle>
1.640

> <Pdih>
2.856

> <Idih>
0.000

> <Tether>
0.000

$$$$
VeraChem MOL file


 29 28  0  0  0  0  0  0  0  0999 V2000     
   16.0360   21.2932   24.3177 C   0  0  0  0  0  0  0  0  0  0  0  0
   15.8890   21.1338   23.2415 H   0  0  0  0  0  0  0  0  0  0  0  0
   15.0459   21.3480   24.7886 H   0  0  0  0  0  0  0  0  0  0  0  0
   16.5290   22.2644   24.4555 H   0  0  0  0  0  0  0  0  0  0  0  0
   16.8721   20.1540   24.9383 C   0  0  0  0  0  0  0  0  0  0  0  0
   16.3389   19.2010   24.8142 H   0  0  0  0  0  0  0  0  0  0  0  0
   16.9720   20.3231   26.0196 H   0  0  0  0  0  0  0  0  0  0  0  0
   18.2723   20.0555   24.2934 C   0  0  0  0  0  0  0  0  0  0  0  0
   18.1571   19.8970   23.2134 H   0  0  0  0  0  0  0  0  0  0  0  0
   18.8021   21.0094   24.4224 H   0  0  0  0  0  0  0  0  0  0  0  0
   19.1095   18.9101   24.9120 C   0  0  0  0  0  0  0  0  0  0  0  0
   18.6111   17.9474   24.7325 H   0  0  0  0  0  0  0  0  0  0  0  0
   19.1416   19.0416   26.0024 H   0  0  0  0  0  0  0  0  0  0  0  0
   20.5643   18.8476   24.3849 C   0  0  0  0  0  0  0  0  0  0  0  0
   21.0627   19.8097   24.5676 H   0  0  0  0  0  0  0  0  0  0  0  0
   21.1076   18.1006   24.9783 H   0  0  0  0  0  0  0  0  0  0  0  0
   20.6628   18.4855   22.8805 C   0  0  0  0  0  0  0  0  0  0  0  0
   20.1411   19.2478   22.2889 H   0  0  0  0  0  0  0  0  0  0  0  0
   20.1481   17.5340   22.6926 H   0  0  0  0  0  0  0  0  0  0  0  0
   22.1201   18.3949   22.3775 C   0  0  2  0  0  0  0  0  0  0  0  0
   22.6220   19.3396   22.6083 H   0  0  0  0  0  0  0  0  0  0  0  0
   22.1479   18.1935   20.8540 C   0  0  0  0  0  0  0  0  0  0  0  0
   21.6361   19.0179   20.3420 H   0  0  0  0  0  0  0  0  0  0  0  0
   23.1805   18.1631   20.4850 H   0  0  0  0  0  0  0  0  0  0  0  0
   21.6551   17.2556   20.5685 H   0  0  0  0  0  0  0  0  0  0  0  0
   22.9021   17.3091   23.0650 N   0  3  0  0  0  0  0  0  0  0  0  0
   23.8695   17.2762   22.7310 H   0  0  0  0  0  0  0  0  0  0  0  0
   22.4882   16.3882   22.8973 H   0  0  0  0  0  0  0  0  0  0  0  0
   22.9327   17.4540   24.0778 H   0  0  0  0  0  0  0  0  0  0  0  0
  1  2  1  0  0  0  0
  1  3  1  0  0  0  0
  1  4  1  0  0  0  0
  1  5  1  0  0  0  0
  5  6  1  0  0  0  0
  5  7  1  0  0  0  0
  5  8  1  0  0  0  0
  8  9  1  0  0  0  0
  8 10  1  0  0  0  0
  8 11  1  0  0  0  0
 11 12  1  0  0  0  0
 11 13  1  0  0  0  0
 11 14  1  0  0  0  0
 14 15  1  0  0  0  0
 14 16  1  0  0  0  0
 14 17  1  0  0  0  0
 17 18  1  0  0  0  0
 17 19  1  0  0  0  0
 17 20  1  0  0  0  0
 20 21  1  0  0  0  0
 20 22  1  0  0  0  0
 22 23  1  0  0  0  0
 22 24  1  0  0  0  0
 22 25  1  0  0  0  0
 20 26  1  0  0  0  0
 26 27  1  0  0  0  0
 26 28  1  0  0  0  0
 26 29  1  0  0  0  0
M  END
> <VConfSearch Rank>
227

> <Conf_Id>
111

> <Delta U+W>
0.580

> <U+W>
-27.246

> <U>
24.710

> <W>
-51.957

> <W(PB)>
-54.511

> <W(SA)>
2.555

> <Valence>
3.735

> <Coulomb>
19.760

> <VdW>
1.216

> <VdW6>
-8.624

> <VdW12>
9.840

> <Bond>
0.236

> <Angle>
1.168

> <Pdih>
2.330

> <Idih>
0.000

> <Tether>
0.000

$$$$
VeraChem MOL file


 29 28  0  0  0  0  0  0  0  0999 V2000     
   16.7535   18.3084   26.6266 C   0  0  0  0  0  0  0  0  0  0  0  0
   17.4083   17.5837   27.1278 H   0  0  0  0  0  0  0  0  0  0  0  0
   17.0535   19.3161   26.9426 H   0  0  0  0  0  0  0  0  0  0  0  0
   15.7281   18.1361   26.9786 H   0  0  0  0  0  0  0  0  0  0  0  0
   16.8349   18.1610   25.0925 C   0  0  0  0  0  0  0  0  0  0  0  0
   16.1457   18.8751   24.6203 H   0  0  0  0  0  0  0  0  0  0  0  0
   16.4962   17.1558   24.8048 H   0  0  0  0  0  0  0  0  0  0  0  0
   18.2692   18.3981   24.5704 C   0  0  0  0  0  0  0  0  0  0  0  0
   18.5985   19.4011   24.8718 H   0  0  0  0  0  0  0  0  0  0  0  0
   18.9540   17.6809   25.0436 H   0  0  0  0  0  0  0  0  0  0  0  0
   18.3512   18.2545   23.0318 C   0  0  0  0  0  0  0  0  0  0  0  0
   17.7065   19.0054   22.5545 H   0  0  0  0  0  0  0  0  0  0  0  0
   17.9488   17.2740   22.7417 H   0  0  0  0  0  0  0  0  0  0  0  0
   19.7912   18.3776   22.4763 C   0  0  0  0  0  0  0  0  0  0  0  0
   20.4195   17.6030   22.9354 H   0  0  0  0  0  0  0  0  0  0  0  0
   19.7690   18.1624   21.3990 H   0  0  0  0  0  0  0  0  0  0  0  0
   20.4193   19.7777   22.6985 C   0  0  0  0  0  0  0  0  0  0  0  0
   20.5783   19.9540   23.7698 H   0  0  0  0  0  0  0  0  0  0  0  0
   19.7060   20.5396   22.3575 H   0  0  0  0  0  0  0  0  0  0  0  0
   21.7531   19.9833   21.9451 C   0  0  2  0  0  0  0  0  0  0  0  0
   21.5851   19.7696   20.8851 H   0  0  0  0  0  0  0  0  0  0  0  0
   22.8598   19.0466   22.4617 C   0  0  0  0  0  0  0  0  0  0  0  0
   23.0243   19.1824   23.5379 H   0  0  0  0  0  0  0  0  0  0  0  0
   22.6076   17.9950   22.2824 H   0  0  0  0  0  0  0  0  0  0  0  0
   23.8067   19.2457   21.9450 H   0  0  0  0  0  0  0  0  0  0  0  0
   22.2049   21.4152   22.0225 N   0  3  0  0  0  0  0  0  0  0  0  0
   21.5000   22.0541   21.6434 H   0  0  0  0  0  0  0  0  0  0  0  0
   23.0677   21.5641   21.4913 H   0  0  0  0  0  0  0  0  0  0  0  0
   22.3886   21.6978   22.9890 H   0  0  0  0  0  0  0  0  0  0  0  0
  1  2  1  0  0  0  0
  1  3  1  0  0  0  0
  1  4  1  0  0  0  0
  1  5  1  0  0  0  0
  5  6  1  0  0  0  0
  5  7  1  0  0  0  0
  5  8  1  0  0  0  0
  8  9  1  0  0  0  0
  8 10  1  0  0  0  0
  8 11  1  0  0  0  0
 11 12  1  0  0  0  0
 11 13  1  0  0  0  0
 11 14  1  0  0  0  0
 14 15  1  0  0  0  0
 14 16  1  0  0  0  0
 14 17  1  0  0  0  0
 17 18  1  0  0  0  0
 17 19  1  0  0  0  0
 17 20  1  0  0  0  0
 20 21  1  0  0  0  0
 20 22  1  0  0  0  0
 22 23  1  0  0  0  0
 22 24  1  0  0  0  0
 22 25  1  0  0  0  0
 20 26  1  0  0  0  0
 26 27  1  0  0  0  0
 26 28  1  0  0  0  0
 26 29  1  0  0  0  0
M  END
> <VConfSearch Rank>
228

> <Conf_Id>
39

> <Delta U+W>
0.965

> <U+W>
-26.861

> <U>
25.129

> <W>
-51.990

> <W(PB)>
-54.526

> <W(SA)>
2.536

> <Valence>
4.206

> <Coulomb>
19.678

> <VdW>
1.245

> <VdW6>
-8.834

> <VdW12>
10.079

> <Bond>
0.240

> <Angle>
1.353

> <Pdih>
2.613

> <Idih>
0.000

> <Tether>
0.000

$$$$
VeraChem MOL file


 29 28  0  0  0  0  0  0  0  0999 V2000     
   17.4218   15.6643   22.5340 C   0  0  0  0  0  0  0  0  0  0  0  0
   17.8240   15.1286   23.4036 H   0  0  0  0  0  0  0  0  0  0  0  0
   16.6645   16.3749   22.8871 H   0  0  0  0  0  0  0  0  0  0  0  0
   16.9125   14.9315   21.8947 H   0  0  0  0  0  0  0  0  0  0  0  0
   18.5478   16.3752   21.7494 C   0  0  0  0  0  0  0  0  0  0  0  0
   18.1167   16.9322   20.9058 H   0  0  0  0  0  0  0  0  0  0  0  0
   19.2061   15.6129   21.3098 H   0  0  0  0  0  0  0  0  0  0  0  0
   19.4041   17.3252   22.6214 C   0  0  0  0  0  0  0  0  0  0  0  0
   19.8333   16.7635   23.4624 H   0  0  0  0  0  0  0  0  0  0  0  0
   20.2508   17.6700   22.0143 H   0  0  0  0  0  0  0  0  0  0  0  0
   18.6170   18.5486   23.1562 C   0  0  0  0  0  0  0  0  0  0  0  0
   17.7663   18.2007   23.7560 H   0  0  0  0  0  0  0  0  0  0  0  0
   18.1916   19.1129   22.3149 H   0  0  0  0  0  0  0  0  0  0  0  0
   19.4678   19.4947   24.0390 C   0  0  0  0  0  0  0  0  0  0  0  0
   18.7969   20.2439   24.4790 H   0  0  0  0  0  0  0  0  0  0  0  0
   19.8863   18.9225   24.8776 H   0  0  0  0  0  0  0  0  0  0  0  0
   20.6042   20.2119   23.2601 C   0  0  0  0  0  0  0  0  0  0  0  0
   20.1851   20.6841   22.3619 H   0  0  0  0  0  0  0  0  0  0  0  0
   21.3325   19.4732   22.9035 H   0  0  0  0  0  0  0  0  0  0  0  0
   21.3659   21.2883   24.0690 C   0  0  2  0  0  0  0  0  0  0  0  0
   22.1251   21.7160   23.4069 H   0  0  0  0  0  0  0  0  0  0  0  0
   22.0928   20.6893   25.2856 C   0  0  0  0  0  0  0  0  0  0  0  0
   21.3861   20.3222   26.0394 H   0  0  0  0  0  0  0  0  0  0  0  0
   22.7371   19.8547   24.9827 H   0  0  0  0  0  0  0  0  0  0  0  0
   22.7291   21.4448   25.7626 H   0  0  0  0  0  0  0  0  0  0  0  0
   20.4808   22.4327   24.4800 N   0  3  0  0  0  0  0  0  0  0  0  0
   20.0259   22.8648   23.6706 H   0  0  0  0  0  0  0  0  0  0  0  0
   21.0137   23.1645   24.9586 H   0  0  0  0  0  0  0  0  0  0  0  0
   19.7442   22.1220   25.1183 H   0  0  0  0  0  0  0  0  0  0  0  0
  1  2  1  0  0  0  0
  1  3  1  0  0  0  0
  1  4  1  0  0  0  0
  1  5  1  0  0  0  0
  5  6  1  0  0  0  0
  5  7  1  0  0  0  0
  5  8  1  0  0  0  0
  8  9  1  0  0  0  0
  8 10  1  0  0  0  0
  8 11  1  0  0  0  0
 11 12  1  0  0  0  0
 11 13  1  0  0  0  0
 11 14  1  0  0  0  0
 14 15  1  0  0  0  0
 14 16  1  0  0  0  0
 14 17  1  0  0  0  0
 17 18  1  0  0  0  0
 17 19  1  0  0  0  0
 17 20  1  0  0  0  0
 20 21  1  0  0  0  0
 20 22  1  0  0  0  0
 22 23  1  0  0  0  0
 22 24  1  0  0  0  0
 22 25  1  0  0  0  0
 20 26  1  0  0  0  0
 26 27  1  0  0  0  0
 26 28  1  0  0  0  0
 26 29  1  0  0  0  0
M  END
> <VConfSearch Rank>
229

> <Conf_Id>
155

> <Delta U+W>
1.624

> <U+W>
-26.202

> <U>
25.894

> <W>
-52.096

> <W(PB)>
-54.602

> <W(SA)>
2.506

> <Valence>
4.779

> <Coulomb>
19.659

> <VdW>
1.456

> <VdW6>
-9.843

> <VdW12>
11.299

> <Bond>
0.315

> <Angle>
1.725

> <Pdih>
2.740

> <Idih>
0.000

> <Tether>
0.000

$$$$
VeraChem MOL file


 29 28  0  0  0  0  0  0  0  0999 V2000     
   18.9299   21.8598   20.6542 C   0  0  0  0  0  0  0  0  0  0  0  0
   17.9638   21.7036   21.1502 H   0  0  0  0  0  0  0  0  0  0  0  0
   19.5712   22.4448   21.3261 H   0  0  0  0  0  0  0  0  0  0  0  0
   18.7461   22.4628   19.7556 H   0  0  0  0  0  0  0  0  0  0  0  0
   19.5975   20.5177   20.2779 C   0  0  0  0  0  0  0  0  0  0  0  0
   20.4990   20.7241   19.6843 H   0  0  0  0  0  0  0  0  0  0  0  0
   18.9260   19.9408   19.6268 H   0  0  0  0  0  0  0  0  0  0  0  0
   19.9955   19.6654   21.5069 C   0  0  0  0  0  0  0  0  0  0  0  0
   20.5488   18.7836   21.1558 H   0  0  0  0  0  0  0  0  0  0  0  0
   20.6908   20.2418   22.1308 H   0  0  0  0  0  0  0  0  0  0  0  0
   18.7806   19.2003   22.3491 C   0  0  0  0  0  0  0  0  0  0  0  0
   18.0366   18.7466   21.6799 H   0  0  0  0  0  0  0  0  0  0  0  0
   18.2910   20.0658   22.8148 H   0  0  0  0  0  0  0  0  0  0  0  0
   19.1443   18.1696   23.4464 C   0  0  0  0  0  0  0  0  0  0  0  0
   18.2080   17.8047   23.8875 H   0  0  0  0  0  0  0  0  0  0  0  0
   19.6302   17.2982   22.9861 H   0  0  0  0  0  0  0  0  0  0  0  0
   20.0542   18.7486   24.5610 C   0  0  0  0  0  0  0  0  0  0  0  0
   19.5633   19.6121   25.0290 H   0  0  0  0  0  0  0  0  0  0  0  0
   20.9794   19.1238   24.1074 H   0  0  0  0  0  0  0  0  0  0  0  0
   20.4403   17.7184   25.6472 C   0  0  2  0  0  0  0  0  0  0  0  0
   20.8714   16.8427   25.1523 H   0  0  0  0  0  0  0  0  0  0  0  0
   19.2262   17.2623   26.4766 C   0  0  0  0  0  0  0  0  0  0  0  0
   18.7177   18.1174   26.9390 H   0  0  0  0  0  0  0  0  0  0  0  0
   18.4995   16.7226   25.8588 H   0  0  0  0  0  0  0  0  0  0  0  0
   19.5395   16.5801   27.2765 H   0  0  0  0  0  0  0  0  0  0  0  0
   21.5102   18.2623   26.5528 N   0  3  0  0  0  0  0  0  0  0  0  0
   22.3477   18.5313   26.0283 H   0  0  0  0  0  0  0  0  0  0  0  0
   21.7974   17.5696   27.2503 H   0  0  0  0  0  0  0  0  0  0  0  0
   21.1855   19.0900   27.0601 H   0  0  0  0  0  0  0  0  0  0  0  0
  1  2  1  0  0  0  0
  1  3  1  0  0  0  0
  1  4  1  0  0  0  0
  1  5  1  0  0  0  0
  5  6  1  0  0  0  0
  5  7  1  0  0  0  0
  5  8  1  0  0  0  0
  8  9  1  0  0  0  0
  8 10  1  0  0  0  0
  8 11  1  0  0  0  0
 11 12  1  0  0  0  0
 11 13  1  0  0  0  0
 11 14  1  0  0  0  0
 14 15  1  0  0  0  0
 14 16  1  0  0  0  0
 14 17  1  0  0  0  0
 17 18  1  0  0  0  0
 17 19  1  0  0  0  0
 17 20  1  0  0  0  0
 20 21  1  0  0  0  0
 20 22  1  0  0  0  0
 22 23  1  0  0  0  0
 22 24  1  0  0  0  0
 22 25  1  0  0  0  0
 20 26  1  0  0  0  0
 26 27  1  0  0  0  0
 26 28  1  0  0  0  0
 26 29  1  0  0  0  0
M  END
> <VConfSearch Rank>
230

> <Conf_Id>
135

> <Delta U+W>
1.581

> <U+W>
-26.245

> <U>
25.974

> <W>
-52.219

> <W(PB)>
-54.709

> <W(SA)>
2.490

> <Valence>
4.811

> <Coulomb>
19.700

> <VdW>
1.463

> <VdW6>
-9.391

> <VdW12>
10.854

> <Bond>
0.285

> <Angle>
1.671

> <Pdih>
2.855

> <Idih>
0.000

> <Tether>
0.000

$$$$
VeraChem MOL file


 29 28  0  0  0  0  0  0  0  0999 V2000     
   20.5451   15.8525   21.2542 C   0  0  0  0  0  0  0  0  0  0  0  0
   19.7092   15.4861   21.8642 H   0  0  0  0  0  0  0  0  0  0  0  0
   20.1449   16.5420   20.5006 H   0  0  0  0  0  0  0  0  0  0  0  0
   20.9741   14.9939   20.7216 H   0  0  0  0  0  0  0  0  0  0  0  0
   21.6175   16.5342   22.1337 C   0  0  0  0  0  0  0  0  0  0  0  0
   22.4293   16.9150   21.4982 H   0  0  0  0  0  0  0  0  0  0  0  0
   22.0702   15.7786   22.7909 H   0  0  0  0  0  0  0  0  0  0  0  0
   21.0552   17.6807   23.0080 C   0  0  0  0  0  0  0  0  0  0  0  0
   20.2661   17.2816   23.6587 H   0  0  0  0  0  0  0  0  0  0  0  0
   21.8546   18.0386   23.6713 H   0  0  0  0  0  0  0  0  0  0  0  0
   20.5113   18.8728   22.1808 C   0  0  0  0  0  0  0  0  0  0  0  0
   19.6340   18.5589   21.5999 H   0  0  0  0  0  0  0  0  0  0  0  0
   21.2729   19.1800   21.4509 H   0  0  0  0  0  0  0  0  0  0  0  0
   20.1360   20.1001   23.0468 C   0  0  0  0  0  0  0  0  0  0  0  0
   21.0255   20.4368   23.5956 H   0  0  0  0  0  0  0  0  0  0  0  0
   19.8516   20.9250   22.3788 H   0  0  0  0  0  0  0  0  0  0  0  0
   18.9716   19.8230   24.0323 C   0  0  0  0  0  0  0  0  0  0  0  0
   19.2859   19.0963   24.7921 H   0  0  0  0  0  0  0  0  0  0  0  0
   18.1461   19.3587   23.4769 H   0  0  0  0  0  0  0  0  0  0  0  0
   18.4380   21.0936   24.7319 C   0  0  2  0  0  0  0  0  0  0  0  0
   18.1631   21.8201   23.9610 H   0  0  0  0  0  0  0  0  0  0  0  0
   19.4930   21.7343   25.6514 C   0  0  0  0  0  0  0  0  0  0  0  0
   19.8450   21.0220   26.4080 H   0  0  0  0  0  0  0  0  0  0  0  0
   20.3599   22.0850   25.0795 H   0  0  0  0  0  0  0  0  0  0  0  0
   19.0744   22.6044   26.1720 H   0  0  0  0  0  0  0  0  0  0  0  0
   17.1825   20.8006   25.5053 N   0  3  0  0  0  0  0  0  0  0  0  0
   16.8036   21.6480   25.9380 H   0  0  0  0  0  0  0  0  0  0  0  0
   17.3540   20.1253   26.2552 H   0  0  0  0  0  0  0  0  0  0  0  0
   16.4504   20.4129   24.9031 H   0  0  0  0  0  0  0  0  0  0  0  0
  1  2  1  0  0  0  0
  1  3  1  0  0  0  0
  1  4  1  0  0  0  0
  1  5  1  0  0  0  0
  5  6  1  0  0  0  0
  5  7  1  0  0  0  0
  5  8  1  0  0  0  0
  8  9  1  0  0  0  0
  8 10  1  0  0  0  0
  8 11  1  0  0  0  0
 11 12  1  0  0  0  0
 11 13  1  0  0  0  0
 11 14  1  0  0  0  0
 14 15  1  0  0  0  0
 14 16  1  0  0  0  0
 14 17  1  0  0  0  0
 17 18  1  0  0  0  0
 17 19  1  0  0  0  0
 17 20  1  0  0  0  0
 20 21  1  0  0  0  0
 20 22  1  0  0  0  0
 22 23  1  0  0  0  0
 22 24  1  0  0  0  0
 22 25  1  0  0  0  0
 20 26  1  0  0  0  0
 26 27  1  0  0  0  0
 26 28  1  0  0  0  0
 26 29  1  0  0  0  0
M  END
> <VConfSearch Rank>
231

> <Conf_Id>
130

> <Delta U+W>
1.359

> <U+W>
-26.467

> <U>
25.687

> <W>
-52.154

> <W(PB)>
-54.643

> <W(SA)>
2.489

> <Valence>
4.682

> <Coulomb>
19.653

> <VdW>
1.352

> <VdW6>
-9.477

> <VdW12>
10.829

> <Bond>
0.274

> <Angle>
1.550

> <Pdih>
2.858

> <Idih>
0.000

> <Tether>
0.000

$$$$
VeraChem MOL file


 29 28  0  0  0  0  0  0  0  0999 V2000     
   21.5561   21.7022   20.9465 C   0  0  0  0  0  0  0  0  0  0  0  0
   21.4946   22.7072   20.5093 H   0  0  0  0  0  0  0  0  0  0  0  0
   22.5994   21.3683   20.8753 H   0  0  0  0  0  0  0  0  0  0  0  0
   20.9387   21.0368   20.3305 H   0  0  0  0  0  0  0  0  0  0  0  0
   21.0782   21.7221   22.4161 C   0  0  0  0  0  0  0  0  0  0  0  0
   20.0231   22.0268   22.4576 H   0  0  0  0  0  0  0  0  0  0  0  0
   21.6421   22.4923   22.9606 H   0  0  0  0  0  0  0  0  0  0  0  0
   21.2605   20.3676   23.1428 C   0  0  0  0  0  0  0  0  0  0  0  0
   22.3197   20.0774   23.1139 H   0  0  0  0  0  0  0  0  0  0  0  0
   21.0115   20.5120   24.2016 H   0  0  0  0  0  0  0  0  0  0  0  0
   20.3922   19.2289   22.5493 C   0  0  0  0  0  0  0  0  0  0  0  0
   20.6986   19.0495   21.5106 H   0  0  0  0  0  0  0  0  0  0  0  0
   19.3433   19.5468   22.5102 H   0  0  0  0  0  0  0  0  0  0  0  0
   20.5265   17.8930   23.3257 C   0  0  0  0  0  0  0  0  0  0  0  0
   20.1424   17.0690   22.7087 H   0  0  0  0  0  0  0  0  0  0  0  0
   21.5955   17.6798   23.4644 H   0  0  0  0  0  0  0  0  0  0  0  0
   19.8228   17.8714   24.7111 C   0  0  0  0  0  0  0  0  0  0  0  0
   19.7633   18.8799   25.1371 H   0  0  0  0  0  0  0  0  0  0  0  0
   20.4559   17.2942   25.3978 H   0  0  0  0  0  0  0  0  0  0  0  0
   18.4196   17.2191   24.7112 C   0  0  2  0  0  0  0  0  0  0  0  0
   18.5165   16.2019   24.3196 H   0  0  0  0  0  0  0  0  0  0  0  0
   17.4114   17.9784   23.8322 C   0  0  0  0  0  0  0  0  0  0  0  0
   17.6970   17.9305   22.7751 H   0  0  0  0  0  0  0  0  0  0  0  0
   16.4122   17.5339   23.9170 H   0  0  0  0  0  0  0  0  0  0  0  0
   17.3417   19.0328   24.1274 H   0  0  0  0  0  0  0  0  0  0  0  0
   17.8883   17.0831   26.1111 N   0  3  0  0  0  0  0  0  0  0  0  0
   18.5220   16.5393   26.7039 H   0  0  0  0  0  0  0  0  0  0  0  0
   16.9801   16.6100   26.1219 H   0  0  0  0  0  0  0  0  0  0  0  0
   17.7616   17.9975   26.5533 H   0  0  0  0  0  0  0  0  0  0  0  0
  1  2  1  0  0  0  0
  1  3  1  0  0  0  0
  1  4  1  0  0  0  0
  1  5  1  0  0  0  0
  5  6  1  0  0  0  0
  5  7  1  0  0  0  0
  5  8  1  0  0  0  0
  8  9  1  0  0  0  0
  8 10  1  0  0  0  0
  8 11  1  0  0  0  0
 11 12  1  0  0  0  0
 11 13  1  0  0  0  0
 11 14  1  0  0  0  0
 14 15  1  0  0  0  0
 14 16  1  0  0  0  0
 14 17  1  0  0  0  0
 17 18  1  0  0  0  0
 17 19  1  0  0  0  0
 17 20  1  0  0  0  0
 20 21  1  0  0  0  0
 20 22  1  0  0  0  0
 22 23  1  0  0  0  0
 22 24  1  0  0  0  0
 22 25  1  0  0  0  0
 20 26  1  0  0  0  0
 26 27  1  0  0  0  0
 26 28  1  0  0  0  0
 26 29  1  0  0  0  0
M  END
> <VConfSearch Rank>
232

> <Conf_Id>
157

> <Delta U+W>
4.354

> <U+W>
-23.472

> <U>
28.780

> <W>
-52.252

> <W(PB)>
-54.715

> <W(SA)>
2.462

> <Valence>
7.566

> <Coulomb>
19.822

> <VdW>
1.392

> <VdW6>
-10.248

> <VdW12>
11.641

> <Bond>
0.340

> <Angle>
2.096

> <Pdih>
5.129

> <Idih>
0.000

> <Tether>
0.000

$$$$
VeraChem MOL file


 29 28  0  0  0  0  0  0  0  0999 V2000     
   16.9742   20.5789   25.5382 C   0  0  0  0  0  0  0  0  0  0  0  0
   16.6614   21.4816   26.0787 H   0  0  0  0  0  0  0  0  0  0  0  0
   17.2755   20.8831   24.5297 H   0  0  0  0  0  0  0  0  0  0  0  0
   16.0968   19.9257   25.4454 H   0  0  0  0  0  0  0  0  0  0  0  0
   18.1164   19.8631   26.2962 C   0  0  0  0  0  0  0  0  0  0  0  0
   17.7478   19.6059   27.2991 H   0  0  0  0  0  0  0  0  0  0  0  0
   18.9608   20.5490   26.4518 H   0  0  0  0  0  0  0  0  0  0  0  0
   18.5974   18.5649   25.5984 C   0  0  0  0  0  0  0  0  0  0  0  0
   18.8469   17.8311   26.3773 H   0  0  0  0  0  0  0  0  0  0  0  0
   17.7761   18.1163   25.0227 H   0  0  0  0  0  0  0  0  0  0  0  0
   19.8492   18.7327   24.6989 C   0  0  0  0  0  0  0  0  0  0  0  0
   20.1296   17.7385   24.3278 H   0  0  0  0  0  0  0  0  0  0  0  0
   20.6930   19.0798   25.3110 H   0  0  0  0  0  0  0  0  0  0  0  0
   19.6502   19.6982   23.5047 C   0  0  0  0  0  0  0  0  0  0  0  0
   18.7575   19.4090   22.9345 H   0  0  0  0  0  0  0  0  0  0  0  0
   19.4590   20.7087   23.8878 H   0  0  0  0  0  0  0  0  0  0  0  0
   20.8816   19.7737   22.5654 C   0  0  0  0  0  0  0  0  0  0  0  0
   21.7416   20.1435   23.1395 H   0  0  0  0  0  0  0  0  0  0  0  0
   20.6891   20.5228   21.7859 H   0  0  0  0  0  0  0  0  0  0  0  0
   21.2606   18.4322   21.8985 C   0  0  2  0  0  0  0  0  0  0  0  0
   21.4805   17.7047   22.6851 H   0  0  0  0  0  0  0  0  0  0  0  0
   22.5226   18.6009   21.0380 C   0  0  0  0  0  0  0  0  0  0  0  0
   22.3559   19.3181   20.2245 H   0  0  0  0  0  0  0  0  0  0  0  0
   23.3624   18.9617   21.6449 H   0  0  0  0  0  0  0  0  0  0  0  0
   22.8204   17.6432   20.5936 H   0  0  0  0  0  0  0  0  0  0  0  0
   20.1351   17.8594   21.0817 N   0  3  0  0  0  0  0  0  0  0  0  0
   19.3012   17.7071   21.6556 H   0  0  0  0  0  0  0  0  0  0  0  0
   20.3930   16.9592   20.6673 H   0  0  0  0  0  0  0  0  0  0  0  0
   19.8736   18.4866   20.3163 H   0  0  0  0  0  0  0  0  0  0  0  0
  1  2  1  0  0  0  0
  1  3  1  0  0  0  0
  1  4  1  0  0  0  0
  1  5  1  0  0  0  0
  5  6  1  0  0  0  0
  5  7  1  0  0  0  0
  5  8  1  0  0  0  0
  8  9  1  0  0  0  0
  8 10  1  0  0  0  0
  8 11  1  0  0  0  0
 11 12  1  0  0  0  0
 11 13  1  0  0  0  0
 11 14  1  0  0  0  0
 14 15  1  0  0  0  0
 14 16  1  0  0  0  0
 14 17  1  0  0  0  0
 17 18  1  0  0  0  0
 17 19  1  0  0  0  0
 17 20  1  0  0  0  0
 20 21  1  0  0  0  0
 20 22  1  0  0  0  0
 22 23  1  0  0  0  0
 22 24  1  0  0  0  0
 22 25  1  0  0  0  0
 20 26  1  0  0  0  0
 26 27  1  0  0  0  0
 26 28  1  0  0  0  0
 26 29  1  0  0  0  0
M  END
> <VConfSearch Rank>
233

> <Conf_Id>
158

> <Delta U+W>
3.648

> <U+W>
-24.178

> <U>
28.057

> <W>
-52.235

> <W(PB)>
-54.696

> <W(SA)>
2.460

> <Valence>
6.543

> <Coulomb>
20.387

> <VdW>
1.127

> <VdW6>
-10.342

> <VdW12>
11.469

> <Bond>
0.308

> <Angle>
1.938

> <Pdih>
4.297

> <Idih>
0.000

> <Tether>
0.000

$$$$
VeraChem MOL file


 29 28  0  0  0  0  0  0  0  0999 V2000     
   20.3441   15.5150   22.4428 C   0  0  0  0  0  0  0  0  0  0  0  0
   19.6369   15.6922   21.6222 H   0  0  0  0  0  0  0  0  0  0  0  0
   21.1380   16.2697   22.3823 H   0  0  0  0  0  0  0  0  0  0  0  0
   20.8089   14.5341   22.2796 H   0  0  0  0  0  0  0  0  0  0  0  0
   19.6275   15.5525   23.8117 C   0  0  0  0  0  0  0  0  0  0  0  0
   20.3607   15.4052   24.6171 H   0  0  0  0  0  0  0  0  0  0  0  0
   18.9319   14.7037   23.8702 H   0  0  0  0  0  0  0  0  0  0  0  0
   18.8363   16.8600   24.0565 C   0  0  0  0  0  0  0  0  0  0  0  0
   18.0928   16.9930   23.2586 H   0  0  0  0  0  0  0  0  0  0  0  0
   18.2701   16.7551   24.9923 H   0  0  0  0  0  0  0  0  0  0  0  0
   19.7347   18.1165   24.1473 C   0  0  0  0  0  0  0  0  0  0  0  0
   20.2636   18.2609   23.1989 H   0  0  0  0  0  0  0  0  0  0  0  0
   20.5045   17.9589   24.9152 H   0  0  0  0  0  0  0  0  0  0  0  0
   18.9139   19.3822   24.4967 C   0  0  0  0  0  0  0  0  0  0  0  0
   18.0898   19.5155   23.7822 H   0  0  0  0  0  0  0  0  0  0  0  0
   18.4422   19.2241   25.4765 H   0  0  0  0  0  0  0  0  0  0  0  0
   19.7721   20.6731   24.5668 C   0  0  0  0  0  0  0  0  0  0  0  0
   20.8079   20.4281   24.8370 H   0  0  0  0  0  0  0  0  0  0  0  0
   19.3859   21.2873   25.3910 H   0  0  0  0  0  0  0  0  0  0  0  0
   19.7448   21.5428   23.2867 C   0  0  2  0  0  0  0  0  0  0  0  0
   18.7038   21.8077   23.0778 H   0  0  0  0  0  0  0  0  0  0  0  0
   20.3098   20.8140   22.0559 C   0  0  0  0  0  0  0  0  0  0  0  0
   21.3243   20.4415   22.2449 H   0  0  0  0  0  0  0  0  0  0  0  0
   19.6734   19.9673   21.7738 H   0  0  0  0  0  0  0  0  0  0  0  0
   20.3500   21.4883   21.1916 H   0  0  0  0  0  0  0  0  0  0  0  0
   20.4744   22.8396   23.5019 N   0  3  0  0  0  0  0  0  0  0  0  0
   20.0834   23.3666   24.2881 H   0  0  0  0  0  0  0  0  0  0  0  0
   20.4197   23.4411   22.6749 H   0  0  0  0  0  0  0  0  0  0  0  0
   21.4663   22.6820   23.6998 H   0  0  0  0  0  0  0  0  0  0  0  0
  1  2  1  0  0  0  0
  1  3  1  0  0  0  0
  1  4  1  0  0  0  0
  1  5  1  0  0  0  0
  5  6  1  0  0  0  0
  5  7  1  0  0  0  0
  5  8  1  0  0  0  0
  8  9  1  0  0  0  0
  8 10  1  0  0  0  0
  8 11  1  0  0  0  0
 11 12  1  0  0  0  0
 11 13  1  0  0  0  0
 11 14  1  0  0  0  0
 14 15  1  0  0  0  0
 14 16  1  0  0  0  0
 14 17  1  0  0  0  0
 17 18  1  0  0  0  0
 17 19  1  0  0  0  0
 17 20  1  0  0  0  0
 20 21  1  0  0  0  0
 20 22  1  0  0  0  0
 22 23  1  0  0  0  0
 22 24  1  0  0  0  0
 22 25  1  0  0  0  0
 20 26  1  0  0  0  0
 26 27  1  0  0  0  0
 26 28  1  0  0  0  0
 26 29  1  0  0  0  0
M  END
> <VConfSearch Rank>
234

> <Conf_Id>
156

> <Delta U+W>
3.393

> <U+W>
-24.433

> <U>
27.713

> <W>
-52.146

> <W(PB)>
-54.603

> <W(SA)>
2.458

> <Valence>
6.758

> <Coulomb>
19.720

> <VdW>
1.235

> <VdW6>
-9.782

> <VdW12>
11.017

> <Bond>
0.287

> <Angle>
1.880

> <Pdih>
4.591

> <Idih>
0.000

> <Tether>
0.000

$$$$
VeraChem MOL file


 29 28  0  0  0  0  0  0  0  0999 V2000     
   22.0803   21.0436   21.0262 C   0  0  0  0  0  0  0  0  0  0  0  0
   22.3410   20.0495   20.6403 H   0  0  0  0  0  0  0  0  0  0  0  0
   21.7502   21.6626   20.1818 H   0  0  0  0  0  0  0  0  0  0  0  0
   22.9919   21.4950   21.4387 H   0  0  0  0  0  0  0  0  0  0  0  0
   20.9827   20.9480   22.1069 C   0  0  0  0  0  0  0  0  0  0  0  0
   20.7640   21.9527   22.4948 H   0  0  0  0  0  0  0  0  0  0  0  0
   21.3638   20.3563   22.9497 H   0  0  0  0  0  0  0  0  0  0  0  0
   19.6883   20.3103   21.5500 C   0  0  0  0  0  0  0  0  0  0  0  0
   19.3679   20.8722   20.6619 H   0  0  0  0  0  0  0  0  0  0  0  0
   19.8971   19.2908   21.2000 H   0  0  0  0  0  0  0  0  0  0  0  0
   18.5157   20.2951   22.5647 C   0  0  0  0  0  0  0  0  0  0  0  0
   17.6360   19.8497   22.0800 H   0  0  0  0  0  0  0  0  0  0  0  0
   18.2361   21.3317   22.7982 H   0  0  0  0  0  0  0  0  0  0  0  0
   18.7913   19.5446   23.8936 C   0  0  0  0  0  0  0  0  0  0  0  0
   19.5899   20.0550   24.4462 H   0  0  0  0  0  0  0  0  0  0  0  0
   17.8914   19.6273   24.5163 H   0  0  0  0  0  0  0  0  0  0  0  0
   19.1489   18.0465   23.6931 C   0  0  0  0  0  0  0  0  0  0  0  0
   20.0647   17.9647   23.0950 H   0  0  0  0  0  0  0  0  0  0  0  0
   18.3586   17.5595   23.1069 H   0  0  0  0  0  0  0  0  0  0  0  0
   19.3638   17.2481   25.0006 C   0  0  2  0  0  0  0  0  0  0  0  0
   19.6593   16.2335   24.7160 H   0  0  0  0  0  0  0  0  0  0  0  0
   18.0747   17.1382   25.8335 C   0  0  0  0  0  0  0  0  0  0  0  0
   18.2206   16.4506   26.6756 H   0  0  0  0  0  0  0  0  0  0  0  0
   17.7713   18.1085   26.2436 H   0  0  0  0  0  0  0  0  0  0  0  0
   17.2494   16.7479   25.2252 H   0  0  0  0  0  0  0  0  0  0  0  0
   20.4947   17.7950   25.8274 N   0  3  0  0  0  0  0  0  0  0  0  0
   21.3684   17.8264   25.2942 H   0  0  0  0  0  0  0  0  0  0  0  0
   20.6628   17.2196   26.6577 H   0  0  0  0  0  0  0  0  0  0  0  0
   20.2933   18.7454   26.1479 H   0  0  0  0  0  0  0  0  0  0  0  0
  1  2  1  0  0  0  0
  1  3  1  0  0  0  0
  1  4  1  0  0  0  0
  1  5  1  0  0  0  0
  5  6  1  0  0  0  0
  5  7  1  0  0  0  0
  5  8  1  0  0  0  0
  8  9  1  0  0  0  0
  8 10  1  0  0  0  0
  8 11  1  0  0  0  0
 11 12  1  0  0  0  0
 11 13  1  0  0  0  0
 11 14  1  0  0  0  0
 14 15  1  0  0  0  0
 14 16  1  0  0  0  0
 14 17  1  0  0  0  0
 17 18  1  0  0  0  0
 17 19  1  0  0  0  0
 17 20  1  0  0  0  0
 20 21  1  0  0  0  0
 20 22  1  0  0  0  0
 22 23  1  0  0  0  0
 22 24  1  0  0  0  0
 22 25  1  0  0  0  0
 20 26  1  0  0  0  0
 26 27  1  0  0  0  0
 26 28  1  0  0  0  0
 26 29  1  0  0  0  0
M  END
> <VConfSearch Rank>
235

> <Conf_Id>
78

> <Delta U+W>
1.477

> <U+W>
-26.349

> <U>
26.385

> <W>
-52.734

> <W(PB)>
-55.179

> <W(SA)>
2.445

> <Valence>
4.726

> <Coulomb>
20.482

> <VdW>
1.177

> <VdW6>
-10.349

> <VdW12>
11.526

> <Bond>
0.319

> <Angle>
1.933

> <Pdih>
2.474

> <Idih>
0.000

> <Tether>
0.000

$$$$
VeraChem MOL file


 29 28  0  0  0  0  0  0  0  0999 V2000     
   22.1063   20.9362   25.7686 C   0  0  0  0  0  0  0  0  0  0  0  0
   22.7307   20.2196   26.3179 H   0  0  0  0  0  0  0  0  0  0  0  0
   22.2487   20.7549   24.6976 H   0  0  0  0  0  0  0  0  0  0  0  0
   22.4832   21.9433   25.9890 H   0  0  0  0  0  0  0  0  0  0  0  0
   20.6233   20.8097   26.1886 C   0  0  0  0  0  0  0  0  0  0  0  0
   20.0183   21.5816   25.6928 H   0  0  0  0  0  0  0  0  0  0  0  0
   20.5573   21.0198   27.2653 H   0  0  0  0  0  0  0  0  0  0  0  0
   20.0277   19.4034   25.9218 C   0  0  0  0  0  0  0  0  0  0  0  0
   20.8175   18.6410   25.9680 H   0  0  0  0  0  0  0  0  0  0  0  0
   19.3376   19.1636   26.7426 H   0  0  0  0  0  0  0  0  0  0  0  0
   19.2369   19.2706   24.5948 C   0  0  0  0  0  0  0  0  0  0  0  0
   18.3846   19.9638   24.6076 H   0  0  0  0  0  0  0  0  0  0  0  0
   18.8097   18.2601   24.5605 H   0  0  0  0  0  0  0  0  0  0  0  0
   20.0829   19.5198   23.3219 C   0  0  0  0  0  0  0  0  0  0  0  0
   20.4374   20.5583   23.3234 H   0  0  0  0  0  0  0  0  0  0  0  0
   20.9805   18.8879   23.3392 H   0  0  0  0  0  0  0  0  0  0  0  0
   19.2938   19.2923   22.0063 C   0  0  0  0  0  0  0  0  0  0  0  0
   19.9470   19.5275   21.1555 H   0  0  0  0  0  0  0  0  0  0  0  0
   18.4701   20.0173   21.9665 H   0  0  0  0  0  0  0  0  0  0  0  0
   18.7120   17.8707   21.8210 C   0  0  2  0  0  0  0  0  0  0  0  0
   18.0490   17.6550   22.6638 H   0  0  0  0  0  0  0  0  0  0  0  0
   19.8121   16.7952   21.7793 C   0  0  0  0  0  0  0  0  0  0  0  0
   19.3778   15.8049   21.5954 H   0  0  0  0  0  0  0  0  0  0  0  0
   20.5387   17.0017   20.9837 H   0  0  0  0  0  0  0  0  0  0  0  0
   20.3511   16.7411   22.7323 H   0  0  0  0  0  0  0  0  0  0  0  0
   17.8593   17.7922   20.5854 N   0  3  0  0  0  0  0  0  0  0  0  0
   18.4070   17.9778   19.7408 H   0  0  0  0  0  0  0  0  0  0  0  0
   17.0939   18.4722   20.6115 H   0  0  0  0  0  0  0  0  0  0  0  0
   17.4391   16.8644   20.4791 H   0  0  0  0  0  0  0  0  0  0  0  0
  1  2  1  0  0  0  0
  1  3  1  0  0  0  0
  1  4  1  0  0  0  0
  1  5  1  0  0  0  0
  5  6  1  0  0  0  0
  5  7  1  0  0  0  0
  5  8  1  0  0  0  0
  8  9  1  0  0  0  0
  8 10  1  0  0  0  0
  8 11  1  0  0  0  0
 11 12  1  0  0  0  0
 11 13  1  0  0  0  0
 11 14  1  0  0  0  0
 14 15  1  0  0  0  0
 14 16  1  0  0  0  0
 14 17  1  0  0  0  0
 17 18  1  0  0  0  0
 17 19  1  0  0  0  0
 17 20  1  0  0  0  0
 20 21  1  0  0  0  0
 20 22  1  0  0  0  0
 22 23  1  0  0  0  0
 22 24  1  0  0  0  0
 22 25  1  0  0  0  0
 20 26  1  0  0  0  0
 26 27  1  0  0  0  0
 26 28  1  0  0  0  0
 26 29  1  0  0  0  0
M  END
> <VConfSearch Rank>
236

> <Conf_Id>
145

> <Delta U+W>
3.784

> <U+W>
-24.042

> <U>
28.220

> <W>
-52.262

> <W(PB)>
-54.724

> <W(SA)>
2.462

> <Valence>
7.040

> <Coulomb>
19.984

> <VdW>
1.197

> <VdW6>
-10.566

> <VdW12>
11.763

> <Bond>
0.320

> <Angle>
2.280

> <Pdih>
4.439

> <Idih>
0.000

> <Tether>
0.000

$$$$
VeraChem MOL file


 29 28  0  0  0  0  0  0  0  0999 V2000     
   21.3821   22.2296   21.6185 C   0  0  0  0  0  0  0  0  0  0  0  0
   22.3913   22.6196   21.8043 H   0  0  0  0  0  0  0  0  0  0  0  0
   21.4489   21.4698   20.8289 H   0  0  0  0  0  0  0  0  0  0  0  0
   20.7659   23.0556   21.2403 H   0  0  0  0  0  0  0  0  0  0  0  0
   20.7700   21.6383   22.9059 C   0  0  0  0  0  0  0  0  0  0  0  0
   19.7487   21.2988   22.6953 H   0  0  0  0  0  0  0  0  0  0  0  0
   20.6851   22.4304   23.6630 H   0  0  0  0  0  0  0  0  0  0  0  0
   21.6289   20.4785   23.4649 C   0  0  0  0  0  0  0  0  0  0  0  0
   21.7811   19.7084   22.6964 H   0  0  0  0  0  0  0  0  0  0  0  0
   22.6270   20.8750   23.6974 H   0  0  0  0  0  0  0  0  0  0  0  0
   21.0418   19.8411   24.7513 C   0  0  0  0  0  0  0  0  0  0  0  0
   20.4439   20.5786   25.3042 H   0  0  0  0  0  0  0  0  0  0  0  0
   21.8775   19.5813   25.4157 H   0  0  0  0  0  0  0  0  0  0  0  0
   20.2140   18.5510   24.5175 C   0  0  0  0  0  0  0  0  0  0  0  0
   20.8608   17.7892   24.0624 H   0  0  0  0  0  0  0  0  0  0  0  0
   19.9219   18.1596   25.5002 H   0  0  0  0  0  0  0  0  0  0  0  0
   18.9498   18.7583   23.6413 C   0  0  0  0  0  0  0  0  0  0  0  0
   19.2556   19.0637   22.6333 H   0  0  0  0  0  0  0  0  0  0  0  0
   18.3545   19.5862   24.0484 H   0  0  0  0  0  0  0  0  0  0  0  0
   18.0427   17.5130   23.5012 C   0  0  2  0  0  0  0  0  0  0  0  0
   17.2399   17.7738   22.8046 H   0  0  0  0  0  0  0  0  0  0  0  0
   17.3860   17.1186   24.8358 C   0  0  0  0  0  0  0  0  0  0  0  0
   16.6422   16.3281   24.6773 H   0  0  0  0  0  0  0  0  0  0  0  0
   18.1217   16.7444   25.5572 H   0  0  0  0  0  0  0  0  0  0  0  0
   16.8689   17.9758   25.2845 H   0  0  0  0  0  0  0  0  0  0  0  0
   18.7630   16.3438   22.8884 N   0  3  0  0  0  0  0  0  0  0  0  0
   19.5296   16.0262   23.4868 H   0  0  0  0  0  0  0  0  0  0  0  0
   19.1621   16.5847   21.9766 H   0  0  0  0  0  0  0  0  0  0  0  0
   18.1334   15.5487   22.7471 H   0  0  0  0  0  0  0  0  0  0  0  0
  1  2  1  0  0  0  0
  1  3  1  0  0  0  0
  1  4  1  0  0  0  0
  1  5  1  0  0  0  0
  5  6  1  0  0  0  0
  5  7  1  0  0  0  0
  5  8  1  0  0  0  0
  8  9  1  0  0  0  0
  8 10  1  0  0  0  0
  8 11  1  0  0  0  0
 11 12  1  0  0  0  0
 11 13  1  0  0  0  0
 11 14  1  0  0  0  0
 14 15  1  0  0  0  0
 14 16  1  0  0  0  0
 14 17  1  0  0  0  0
 17 18  1  0  0  0  0
 17 19  1  0  0  0  0
 17 20  1  0  0  0  0
 20 21  1  0  0  0  0
 20 22  1  0  0  0  0
 22 23  1  0  0  0  0
 22 24  1  0  0  0  0
 22 25  1  0  0  0  0
 20 26  1  0  0  0  0
 26 27  1  0  0  0  0
 26 28  1  0  0  0  0
 26 29  1  0  0  0  0
M  END
> <VConfSearch Rank>
237

> <Conf_Id>
71

> <Delta U+W>
3.542

> <U+W>
-24.284

> <U>
28.217

> <W>
-52.501

> <W(PB)>
-54.947

> <W(SA)>
2.446

> <Valence>
6.821

> <Coulomb>
20.147

> <VdW>
1.249

> <VdW6>
-10.237

> <VdW12>
11.486

> <Bond>
0.317

> <Angle>
1.990

> <Pdih>
4.515

> <Idih>
0.000

> <Tether>
0.000

$$$$
VeraChem MOL file


 29 28  0  0  0  0  0  0  0  0999 V2000     
   20.9727   19.4826   19.7542 C   0  0  0  0  0  0  0  0  0  0  0  0
   21.9549   19.5730   20.2363 H   0  0  0  0  0  0  0  0  0  0  0  0
   21.0185   18.6521   19.0377 H   0  0  0  0  0  0  0  0  0  0  0  0
   20.7884   20.4055   19.1891 H   0  0  0  0  0  0  0  0  0  0  0  0
   19.8613   19.2528   20.7999 C   0  0  0  0  0  0  0  0  0  0  0  0
   18.8895   19.2010   20.2895 H   0  0  0  0  0  0  0  0  0  0  0  0
   19.8150   20.1191   21.4706 H   0  0  0  0  0  0  0  0  0  0  0  0
   20.0945   17.9500   21.6023 C   0  0  0  0  0  0  0  0  0  0  0  0
   20.1013   17.1102   20.8936 H   0  0  0  0  0  0  0  0  0  0  0  0
   21.0890   17.9598   22.0691 H   0  0  0  0  0  0  0  0  0  0  0  0
   19.0050   17.6794   22.6726 C   0  0  0  0  0  0  0  0  0  0  0  0
   18.8295   16.5954   22.7142 H   0  0  0  0  0  0  0  0  0  0  0  0
   18.0478   18.1215   22.3637 H   0  0  0  0  0  0  0  0  0  0  0  0
   19.3722   18.1467   24.1047 C   0  0  0  0  0  0  0  0  0  0  0  0
   18.5678   17.8286   24.7806 H   0  0  0  0  0  0  0  0  0  0  0  0
   20.2761   17.6153   24.4309 H   0  0  0  0  0  0  0  0  0  0  0  0
   19.5859   19.6779   24.2372 C   0  0  0  0  0  0  0  0  0  0  0  0
   18.7363   20.2036   23.7822 H   0  0  0  0  0  0  0  0  0  0  0  0
   20.4747   19.9718   23.6653 H   0  0  0  0  0  0  0  0  0  0  0  0
   19.7577   20.1866   25.6879 C   0  0  2  0  0  0  0  0  0  0  0  0
   19.8983   21.2708   25.6379 H   0  0  0  0  0  0  0  0  0  0  0  0
   21.0012   19.5863   26.3667 C   0  0  0  0  0  0  0  0  0  0  0  0
   21.8967   19.7498   25.7543 H   0  0  0  0  0  0  0  0  0  0  0  0
   21.1731   20.0604   27.3408 H   0  0  0  0  0  0  0  0  0  0  0  0
   20.8907   18.5082   26.5336 H   0  0  0  0  0  0  0  0  0  0  0  0
   18.5276   19.9654   26.5245 N   0  3  0  0  0  0  0  0  0  0  0  0
   17.7024   20.3992   26.1007 H   0  0  0  0  0  0  0  0  0  0  0  0
   18.6359   20.3640   27.4615 H   0  0  0  0  0  0  0  0  0  0  0  0
   18.3287   18.9682   26.6363 H   0  0  0  0  0  0  0  0  0  0  0  0
  1  2  1  0  0  0  0
  1  3  1  0  0  0  0
  1  4  1  0  0  0  0
  1  5  1  0  0  0  0
  5  6  1  0  0  0  0
  5  7  1  0  0  0  0
  5  8  1  0  0  0  0
  8  9  1  0  0  0  0
  8 10  1  0  0  0  0
  8 11  1  0  0  0  0
 11 12  1  0  0  0  0
 11 13  1  0  0  0  0
 11 14  1  0  0  0  0
 14 15  1  0  0  0  0
 14 16  1  0  0  0  0
 14 17  1  0  0  0  0
 17 18  1  0  0  0  0
 17 19  1  0  0  0  0
 17 20  1  0  0  0  0
 20 21  1  0  0  0  0
 20 22  1  0  0  0  0
 22 23  1  0  0  0  0
 22 24  1  0  0  0  0
 22 25  1  0  0  0  0
 20 26  1  0  0  0  0
 26 27  1  0  0  0  0
 26 28  1  0  0  0  0
 26 29  1  0  0  0  0
M  END
> <VConfSearch Rank>
238

> <Conf_Id>
163

> <Delta U+W>
3.309

> <U+W>
-24.517

> <U>
27.916

> <W>
-52.433

> <W(PB)>
-54.866

> <W(SA)>
2.433

> <Valence>
6.693

> <Coulomb>
20.015

> <VdW>
1.208

> <VdW6>
-10.294

> <VdW12>
11.503

> <Bond>
0.312

> <Angle>
1.939

> <Pdih>
4.441

> <Idih>
0.000

> <Tether>
0.000

$$$$
VeraChem MOL file


 29 28  0  0  0  0  0  0  0  0999 V2000     
   22.7159   21.6587   24.6057 C   0  0  0  0  0  0  0  0  0  0  0  0
   23.4623   21.5444   23.8089 H   0  0  0  0  0  0  0  0  0  0  0  0
   21.9456   22.3581   24.2583 H   0  0  0  0  0  0  0  0  0  0  0  0
   23.2140   22.1198   25.4683 H   0  0  0  0  0  0  0  0  0  0  0  0
   22.1092   20.2927   24.9989 C   0  0  0  0  0  0  0  0  0  0  0  0
   21.3411   20.4373   25.7715 H   0  0  0  0  0  0  0  0  0  0  0  0
   22.8952   19.6774   25.4585 H   0  0  0  0  0  0  0  0  0  0  0  0
   21.5088   19.5157   23.8024 C   0  0  0  0  0  0  0  0  0  0  0  0
   22.2810   19.3700   23.0346 H   0  0  0  0  0  0  0  0  0  0  0  0
   21.2292   18.5148   24.1556 H   0  0  0  0  0  0  0  0  0  0  0  0
   20.2722   20.2083   23.1757 C   0  0  0  0  0  0  0  0  0  0  0  0
   20.5539   21.2092   22.8244 H   0  0  0  0  0  0  0  0  0  0  0  0
   19.5053   20.3623   23.9462 H   0  0  0  0  0  0  0  0  0  0  0  0
   19.6724   19.4344   21.9729 C   0  0  0  0  0  0  0  0  0  0  0  0
   18.8422   20.0190   21.5544 H   0  0  0  0  0  0  0  0  0  0  0  0
   20.4248   19.3767   21.1743 H   0  0  0  0  0  0  0  0  0  0  0  0
   19.1771   17.9991   22.2953 C   0  0  0  0  0  0  0  0  0  0  0  0
   20.0411   17.3613   22.5213 H   0  0  0  0  0  0  0  0  0  0  0  0
   18.7173   17.5706   21.3949 H   0  0  0  0  0  0  0  0  0  0  0  0
   18.1721   17.9261   23.4659 C   0  0  2  0  0  0  0  0  0  0  0  0
   18.6471   18.3533   24.3541 H   0  0  0  0  0  0  0  0  0  0  0  0
   17.8103   16.4643   23.7716 C   0  0  0  0  0  0  0  0  0  0  0  0
   17.1256   16.4045   24.6266 H   0  0  0  0  0  0  0  0  0  0  0  0
   17.3253   15.9868   22.9110 H   0  0  0  0  0  0  0  0  0  0  0  0
   18.7078   15.8853   24.0227 H   0  0  0  0  0  0  0  0  0  0  0  0
   16.9321   18.7362   23.2046 N   0  3  0  0  0  0  0  0  0  0  0  0
   17.1613   19.7184   23.0295 H   0  0  0  0  0  0  0  0  0  0  0  0
   16.2895   18.7061   24.0013 H   0  0  0  0  0  0  0  0  0  0  0  0
   16.4249   18.3871   22.3872 H   0  0  0  0  0  0  0  0  0  0  0  0
  1  2  1  0  0  0  0
  1  3  1  0  0  0  0
  1  4  1  0  0  0  0
  1  5  1  0  0  0  0
  5  6  1  0  0  0  0
  5  7  1  0  0  0  0
  5  8  1  0  0  0  0
  8  9  1  0  0  0  0
  8 10  1  0  0  0  0
  8 11  1  0  0  0  0
 11 12  1  0  0  0  0
 11 13  1  0  0  0  0
 11 14  1  0  0  0  0
 14 15  1  0  0  0  0
 14 16  1  0  0  0  0
 14 17  1  0  0  0  0
 17 18  1  0  0  0  0
 17 19  1  0  0  0  0
 17 20  1  0  0  0  0
 20 21  1  0  0  0  0
 20 22  1  0  0  0  0
 22 23  1  0  0  0  0
 22 24  1  0  0  0  0
 22 25  1  0  0  0  0
 20 26  1  0  0  0  0
 26 27  1  0  0  0  0
 26 28  1  0  0  0  0
 26 29  1  0  0  0  0
M  END
> <VConfSearch Rank>
239

> <Conf_Id>
173

> <Delta U+W>
1.363

> <U+W>
-26.462

> <U>
25.816

> <W>
-52.279

> <W(PB)>
-54.727

> <W(SA)>
2.449

> <Valence>
4.504

> <Coulomb>
20.342

> <VdW>
0.971

> <VdW6>
-10.532

> <VdW12>
11.503

> <Bond>
0.307

> <Angle>
1.715

> <Pdih>
2.481

> <Idih>
0.000

> <Tether>
0.000

$$$$
VeraChem MOL file


 29 28  0  0  0  0  0  0  0  0999 V2000     
   17.0756   20.9702   25.4518 C   0  0  0  0  0  0  0  0  0  0  0  0
   16.2425   20.8261   24.7514 H   0  0  0  0  0  0  0  0  0  0  0  0
   16.7273   20.7010   26.4575 H   0  0  0  0  0  0  0  0  0  0  0  0
   17.3300   22.0380   25.4582 H   0  0  0  0  0  0  0  0  0  0  0  0
   18.2975   20.1214   25.0416 C   0  0  0  0  0  0  0  0  0  0  0  0
   19.1220   20.3064   25.7440 H   0  0  0  0  0  0  0  0  0  0  0  0
   18.6365   20.4465   24.0491 H   0  0  0  0  0  0  0  0  0  0  0  0
   17.9608   18.6130   25.0149 C   0  0  0  0  0  0  0  0  0  0  0  0
   17.5114   18.3307   25.9770 H   0  0  0  0  0  0  0  0  0  0  0  0
   17.1925   18.4249   24.2524 H   0  0  0  0  0  0  0  0  0  0  0  0
   19.1787   17.6884   24.7572 C   0  0  0  0  0  0  0  0  0  0  0  0
   18.8202   16.6506   24.8012 H   0  0  0  0  0  0  0  0  0  0  0  0
   19.9054   17.7845   25.5756 H   0  0  0  0  0  0  0  0  0  0  0  0
   19.8752   17.9019   23.3880 C   0  0  0  0  0  0  0  0  0  0  0  0
   20.1973   16.9218   23.0120 H   0  0  0  0  0  0  0  0  0  0  0  0
   19.1462   18.2827   22.6613 H   0  0  0  0  0  0  0  0  0  0  0  0
   21.1176   18.8316   23.4739 C   0  0  0  0  0  0  0  0  0  0  0  0
   21.8444   18.3899   24.1682 H   0  0  0  0  0  0  0  0  0  0  0  0
   20.8408   19.7973   23.9111 H   0  0  0  0  0  0  0  0  0  0  0  0
   21.8299   19.0909   22.1255 C   0  0  2  0  0  0  0  0  0  0  0  0
   22.7135   19.7010   22.3372 H   0  0  0  0  0  0  0  0  0  0  0  0
   20.9435   19.8821   21.1478 C   0  0  0  0  0  0  0  0  0  0  0  0
   20.5702   20.8013   21.6161 H   0  0  0  0  0  0  0  0  0  0  0  0
   21.5176   20.1716   20.2591 H   0  0  0  0  0  0  0  0  0  0  0  0
   20.0821   19.2932   20.8118 H   0  0  0  0  0  0  0  0  0  0  0  0
   22.3390   17.8265   21.4901 N   0  3  0  0  0  0  0  0  0  0  0  0
   22.9660   17.3166   22.1190 H   0  0  0  0  0  0  0  0  0  0  0  0
   22.8602   18.0232   20.6309 H   0  0  0  0  0  0  0  0  0  0  0  0
   21.5692   17.1986   21.2457 H   0  0  0  0  0  0  0  0  0  0  0  0
  1  2  1  0  0  0  0
  1  3  1  0  0  0  0
  1  4  1  0  0  0  0
  1  5  1  0  0  0  0
  5  6  1  0  0  0  0
  5  7  1  0  0  0  0
  5  8  1  0  0  0  0
  8  9  1  0  0  0  0
  8 10  1  0  0  0  0
  8 11  1  0  0  0  0
 11 12  1  0  0  0  0
 11 13  1  0  0  0  0
 11 14  1  0  0  0  0
 14 15  1  0  0  0  0
 14 16  1  0  0  0  0
 14 17  1  0  0  0  0
 17 18  1  0  0  0  0
 17 19  1  0  0  0  0
 17 20  1  0  0  0  0
 20 21  1  0  0  0  0
 20 22  1  0  0  0  0
 22 23  1  0  0  0  0
 22 24  1  0  0  0  0
 22 25  1  0  0  0  0
 20 26  1  0  0  0  0
 26 27  1  0  0  0  0
 26 28  1  0  0  0  0
 26 29  1  0  0  0  0
M  END
> <VConfSearch Rank>
240

> <Conf_Id>
117

> <Delta U+W>
3.377

> <U+W>
-24.449

> <U>
27.947

> <W>
-52.396

> <W(PB)>
-54.842

> <W(SA)>
2.447

> <Valence>
6.731

> <Coulomb>
20.067

> <VdW>
1.149

> <VdW6>
-10.427

> <VdW12>
11.575

> <Bond>
0.324

> <Angle>
1.943

> <Pdih>
4.465

> <Idih>
0.000

> <Tether>
0.000

$$$$
VeraChem MOL file


 29 28  0  0  0  0  0  0  0  0999 V2000     
   21.9755   14.8775   22.8814 C   0  0  0  0  0  0  0  0  0  0  0  0
   22.6120   15.2618   22.0736 H   0  0  0  0  0  0  0  0  0  0  0  0
   22.5462   14.9241   23.8181 H   0  0  0  0  0  0  0  0  0  0  0  0
   21.7619   13.8219   22.6690 H   0  0  0  0  0  0  0  0  0  0  0  0
   20.6662   15.6874   22.9888 C   0  0  0  0  0  0  0  0  0  0  0  0
   20.0366   15.2592   23.7813 H   0  0  0  0  0  0  0  0  0  0  0  0
   20.1018   15.5943   22.0503 H   0  0  0  0  0  0  0  0  0  0  0  0
   20.9388   17.1782   23.2877 C   0  0  0  0  0  0  0  0  0  0  0  0
   21.5050   17.2661   24.2253 H   0  0  0  0  0  0  0  0  0  0  0  0
   21.5703   17.6011   22.4941 H   0  0  0  0  0  0  0  0  0  0  0  0
   19.6300   17.9925   23.3960 C   0  0  0  0  0  0  0  0  0  0  0  0
   18.9989   17.5676   24.1890 H   0  0  0  0  0  0  0  0  0  0  0  0
   19.0645   17.9043   22.4580 H   0  0  0  0  0  0  0  0  0  0  0  0
   19.9031   19.4837   23.6958 C   0  0  0  0  0  0  0  0  0  0  0  0
   20.4655   19.5712   24.6359 H   0  0  0  0  0  0  0  0  0  0  0  0
   20.5392   19.8991   22.9028 H   0  0  0  0  0  0  0  0  0  0  0  0
   18.5905   20.2973   23.8026 C   0  0  0  0  0  0  0  0  0  0  0  0
   17.9465   19.8337   24.5618 H   0  0  0  0  0  0  0  0  0  0  0  0
   18.0425   20.2449   22.8523 H   0  0  0  0  0  0  0  0  0  0  0  0
   18.8265   21.7744   24.1852 C   0  0  2  0  0  0  0  0  0  0  0  0
   19.3938   21.7999   25.1207 H   0  0  0  0  0  0  0  0  0  0  0  0
   17.4847   22.4880   24.4148 C   0  0  0  0  0  0  0  0  0  0  0  0
   17.6460   23.5285   24.7226 H   0  0  0  0  0  0  0  0  0  0  0  0
   16.8759   22.4918   23.5020 H   0  0  0  0  0  0  0  0  0  0  0  0
   16.9099   21.9921   25.2069 H   0  0  0  0  0  0  0  0  0  0  0  0
   19.6464   22.5105   23.1612 N   0  3  0  0  0  0  0  0  0  0  0  0
   20.5618   22.0718   23.0298 H   0  0  0  0  0  0  0  0  0  0  0  0
   19.8095   23.4821   23.4406 H   0  0  0  0  0  0  0  0  0  0  0  0
   19.1786   22.5275   22.2510 H   0  0  0  0  0  0  0  0  0  0  0  0
  1  2  1  0  0  0  0
  1  3  1  0  0  0  0
  1  4  1  0  0  0  0
  1  5  1  0  0  0  0
  5  6  1  0  0  0  0
  5  7  1  0  0  0  0
  5  8  1  0  0  0  0
  8  9  1  0  0  0  0
  8 10  1  0  0  0  0
  8 11  1  0  0  0  0
 11 12  1  0  0  0  0
 11 13  1  0  0  0  0
 11 14  1  0  0  0  0
 14 15  1  0  0  0  0
 14 16  1  0  0  0  0
 14 17  1  0  0  0  0
 17 18  1  0  0  0  0
 17 19  1  0  0  0  0
 17 20  1  0  0  0  0
 20 21  1  0  0  0  0
 20 22  1  0  0  0  0
 22 23  1  0  0  0  0
 22 24  1  0  0  0  0
 22 25  1  0  0  0  0
 20 26  1  0  0  0  0
 26 27  1  0  0  0  0
 26 28  1  0  0  0  0
 26 29  1  0  0  0  0
M  END
> <VConfSearch Rank>
241

> <Conf_Id>
164

> <Delta U+W>
0.000

> <U+W>
-27.826

> <U>
23.963

> <W>
-51.789

> <W(PB)>
-54.342

> <W(SA)>
2.554

> <Valence>
3.166

> <Coulomb>
19.734

> <VdW>
1.062

> <VdW6>
-7.938

> <VdW12>
9.001

> <Bond>
0.188

> <Angle>
0.880

> <Pdih>
2.098

> <Idih>
0.000

> <Tether>
0.000

$$$$
VeraChem MOL file


 29 28  0  0  0  0  0  0  0  0999 V2000     
   21.7540   23.5409   23.3480 C   0  0  0  0  0  0  0  0  0  0  0  0
   20.9444   23.9758   22.7474 H   0  0  0  0  0  0  0  0  0  0  0  0
   21.5394   23.7393   24.4062 H   0  0  0  0  0  0  0  0  0  0  0  0
   22.6839   24.0634   23.0889 H   0  0  0  0  0  0  0  0  0  0  0  0
   21.8883   22.0262   23.0838 C   0  0  0  0  0  0  0  0  0  0  0  0
   22.7263   21.6265   23.6719 H   0  0  0  0  0  0  0  0  0  0  0  0
   22.1359   21.8612   22.0259 H   0  0  0  0  0  0  0  0  0  0  0  0
   20.5916   21.2664   23.4406 C   0  0  0  0  0  0  0  0  0  0  0  0
   20.3469   21.4364   24.4982 H   0  0  0  0  0  0  0  0  0  0  0  0
   19.7565   21.6708   22.8520 H   0  0  0  0  0  0  0  0  0  0  0  0
   20.7223   19.7492   23.1774 C   0  0  0  0  0  0  0  0  0  0  0  0
   21.5574   19.3454   23.7665 H   0  0  0  0  0  0  0  0  0  0  0  0
   20.9684   19.5810   22.1198 H   0  0  0  0  0  0  0  0  0  0  0  0
   19.4245   18.9895   23.5340 C   0  0  0  0  0  0  0  0  0  0  0  0
   19.1833   19.1711   24.5895 H   0  0  0  0  0  0  0  0  0  0  0  0
   18.5905   19.3900   22.9411 H   0  0  0  0  0  0  0  0  0  0  0  0
   19.5597   17.4690   23.2739 C   0  0  0  0  0  0  0  0  0  0  0  0
   20.3493   17.0525   23.9134 H   0  0  0  0  0  0  0  0  0  0  0  0
   19.8884   17.3199   22.2368 H   0  0  0  0  0  0  0  0  0  0  0  0
   18.2472   16.6811   23.4884 C   0  0  2  0  0  0  0  0  0  0  0  0
   17.4669   17.1401   22.8735 H   0  0  0  0  0  0  0  0  0  0  0  0
   17.7882   16.7064   24.9574 C   0  0  0  0  0  0  0  0  0  0  0  0
   18.5665   16.3130   25.6231 H   0  0  0  0  0  0  0  0  0  0  0  0
   17.5409   17.7241   25.2807 H   0  0  0  0  0  0  0  0  0  0  0  0
   16.8864   16.0962   25.0907 H   0  0  0  0  0  0  0  0  0  0  0  0
   18.3831   15.2619   23.0110 N   0  3  0  0  0  0  0  0  0  0  0  0
   17.5042   14.7468   23.1144 H   0  0  0  0  0  0  0  0  0  0  0  0
   19.0980   14.7559   23.5408 H   0  0  0  0  0  0  0  0  0  0  0  0
   18.6458   15.2202   22.0219 H   0  0  0  0  0  0  0  0  0  0  0  0
  1  2  1  0  0  0  0
  1  3  1  0  0  0  0
  1  4  1  0  0  0  0
  1  5  1  0  0  0  0
  5  6  1  0  0  0  0
  5  7  1  0  0  0  0
  5  8  1  0  0  0  0
  8  9  1  0  0  0  0
  8 10  1  0  0  0  0
  8 11  1  0  0  0  0
 11 12  1  0  0  0  0
 11 13  1  0  0  0  0
 11 14  1  0  0  0  0
 14 15  1  0  0  0  0
 14 16  1  0  0  0  0
 14 17  1  0  0  0  0
 17 18  1  0  0  0  0
 17 19  1  0  0  0  0
 17 20  1  0  0  0  0
 20 21  1  0  0  0  0
 20 22  1  0  0  0  0
 22 23  1  0  0  0  0
 22 24  1  0  0  0  0
 22 25  1  0  0  0  0
 20 26  1  0  0  0  0
 26 27  1  0  0  0  0
 26 28  1  0  0  0  0
 26 29  1  0  0  0  0
M  END
> <VConfSearch Rank>
242

> <Conf_Id>
58

> <Delta U+W>
0.412

> <U+W>
-27.414

> <U>
24.279

> <W>
-51.694

> <W(PB)>
-54.271

> <W(SA)>
2.577

> <Valence>
3.709

> <Coulomb>
19.380

> <VdW>
1.191

> <VdW6>
-8.093

> <VdW12>
9.284

> <Bond>
0.200

> <Angle>
1.161

> <Pdih>
2.348

> <Idih>
0.000

> <Tether>
0.000

$$$$
VeraChem MOL file


 29 28  0  0  0  0  0  0  0  0999 V2000     
   15.1135   19.9749   23.6596 C   0  0  0  0  0  0  0  0  0  0  0  0
   14.8991   19.0164   24.1501 H   0  0  0  0  0  0  0  0  0  0  0  0
   15.2369   20.7380   24.4391 H   0  0  0  0  0  0  0  0  0  0  0  0
   14.2380   20.2480   23.0562 H   0  0  0  0  0  0  0  0  0  0  0  0
   16.3748   19.8757   22.7759 C   0  0  0  0  0  0  0  0  0  0  0  0
   16.5441   20.8380   22.2727 H   0  0  0  0  0  0  0  0  0  0  0  0
   16.2089   19.1297   21.9860 H   0  0  0  0  0  0  0  0  0  0  0  0
   17.6227   19.4922   23.6015 C   0  0  0  0  0  0  0  0  0  0  0  0
   17.7833   20.2395   24.3909 H   0  0  0  0  0  0  0  0  0  0  0  0
   17.4478   18.5310   24.1044 H   0  0  0  0  0  0  0  0  0  0  0  0
   18.8879   19.3916   22.7198 C   0  0  0  0  0  0  0  0  0  0  0  0
   19.0613   20.3531   22.2169 H   0  0  0  0  0  0  0  0  0  0  0  0
   18.7260   18.6445   21.9305 H   0  0  0  0  0  0  0  0  0  0  0  0
   20.1362   19.0078   23.5459 C   0  0  0  0  0  0  0  0  0  0  0  0
   20.2913   19.7572   24.3333 H   0  0  0  0  0  0  0  0  0  0  0  0
   19.9514   18.0490   24.0479 H   0  0  0  0  0  0  0  0  0  0  0  0
   21.4016   18.9051   22.6551 C   0  0  0  0  0  0  0  0  0  0  0  0
   21.5451   19.8541   22.1220 H   0  0  0  0  0  0  0  0  0  0  0  0
   21.2387   18.1449   21.8796 H   0  0  0  0  0  0  0  0  0  0  0  0
   22.7073   18.5690   23.4137 C   0  0  2  0  0  0  0  0  0  0  0  0
   23.5172   18.5581   22.6777 H   0  0  0  0  0  0  0  0  0  0  0  0
   22.6548   17.1775   24.0681 C   0  0  0  0  0  0  0  0  0  0  0  0
   23.6358   16.9102   24.4796 H   0  0  0  0  0  0  0  0  0  0  0  0
   21.9273   17.1416   24.8876 H   0  0  0  0  0  0  0  0  0  0  0  0
   22.3827   16.4106   23.3323 H   0  0  0  0  0  0  0  0  0  0  0  0
   23.0737   19.6242   24.4207 N   0  3  0  0  0  0  0  0  0  0  0  0
   23.1545   20.5472   23.9847 H   0  0  0  0  0  0  0  0  0  0  0  0
   23.9709   19.4177   24.8691 H   0  0  0  0  0  0  0  0  0  0  0  0
   22.3695   19.6924   25.1596 H   0  0  0  0  0  0  0  0  0  0  0  0
  1  2  1  0  0  0  0
  1  3  1  0  0  0  0
  1  4  1  0  0  0  0
  1  5  1  0  0  0  0
  5  6  1  0  0  0  0
  5  7  1  0  0  0  0
  5  8  1  0  0  0  0
  8  9  1  0  0  0  0
  8 10  1  0  0  0  0
  8 11  1  0  0  0  0
 11 12  1  0  0  0  0
 11 13  1  0  0  0  0
 11 14  1  0  0  0  0
 14 15  1  0  0  0  0
 14 16  1  0  0  0  0
 14 17  1  0  0  0  0
 17 18  1  0  0  0  0
 17 19  1  0  0  0  0
 17 20  1  0  0  0  0
 20 21  1  0  0  0  0
 20 22  1  0  0  0  0
 22 23  1  0  0  0  0
 22 24  1  0  0  0  0
 22 25  1  0  0  0  0
 20 26  1  0  0  0  0
 26 27  1  0  0  0  0
 26 28  1  0  0  0  0
 26 29  1  0  0  0  0
M  END
> <VConfSearch Rank>
243

> <Conf_Id>
137

> <Delta U+W>
0.280

> <U+W>
-27.546

> <U>
24.513

> <W>
-52.059

> <W(PB)>
-54.556

> <W(SA)>
2.497

> <Valence>
3.677

> <Coulomb>
19.662

> <VdW>
1.174

> <VdW6>
-8.569

> <VdW12>
9.743

> <Bond>
0.224

> <Angle>
1.211

> <Pdih>
2.243

> <Idih>
0.000

> <Tether>
0.000

$$$$
VeraChem MOL file


 29 28  0  0  0  0  0  0  0  0999 V2000     
   22.9915   22.2155   23.4660 C   0  0  0  0  0  0  0  0  0  0  0  0
   22.1864   22.8557   23.8499 H   0  0  0  0  0  0  0  0  0  0  0  0
   23.5269   21.7880   24.3238 H   0  0  0  0  0  0  0  0  0  0  0  0
   23.6942   22.8526   22.9135 H   0  0  0  0  0  0  0  0  0  0  0  0
   22.4297   21.1049   22.5534 C   0  0  0  0  0  0  0  0  0  0  0  0
   23.2604   20.5039   22.1578 H   0  0  0  0  0  0  0  0  0  0  0  0
   21.9289   21.5621   21.6884 H   0  0  0  0  0  0  0  0  0  0  0  0
   21.4374   20.1922   23.3075 C   0  0  0  0  0  0  0  0  0  0  0  0
   21.9433   19.7359   24.1695 H   0  0  0  0  0  0  0  0  0  0  0  0
   20.6197   20.8070   23.7052 H   0  0  0  0  0  0  0  0  0  0  0  0
   20.8705   19.0809   22.3914 C   0  0  0  0  0  0  0  0  0  0  0  0
   21.7082   18.5336   21.9372 H   0  0  0  0  0  0  0  0  0  0  0  0
   20.3120   19.5334   21.5604 H   0  0  0  0  0  0  0  0  0  0  0  0
   19.9674   18.0630   23.1310 C   0  0  0  0  0  0  0  0  0  0  0  0
   19.7453   17.2444   22.4347 H   0  0  0  0  0  0  0  0  0  0  0  0
   20.5241   17.6167   23.9666 H   0  0  0  0  0  0  0  0  0  0  0  0
   18.6413   18.6754   23.6529 C   0  0  0  0  0  0  0  0  0  0  0  0
   18.0800   19.1120   22.8163 H   0  0  0  0  0  0  0  0  0  0  0  0
   18.8733   19.5003   24.3371 H   0  0  0  0  0  0  0  0  0  0  0  0
   17.7457   17.6677   24.4098 C   0  0  2  0  0  0  0  0  0  0  0  0
   18.3441   17.2016   25.1987 H   0  0  0  0  0  0  0  0  0  0  0  0
   17.2055   16.5598   23.4876 C   0  0  0  0  0  0  0  0  0  0  0  0
   16.6538   16.9835   22.6392 H   0  0  0  0  0  0  0  0  0  0  0  0
   18.0160   15.9359   23.0940 H   0  0  0  0  0  0  0  0  0  0  0  0
   16.5261   15.8970   24.0376 H   0  0  0  0  0  0  0  0  0  0  0  0
   16.6073   18.3672   25.0993 N   0  3  0  0  0  0  0  0  0  0  0  0
   16.9431   19.0798   25.7537 H   0  0  0  0  0  0  0  0  0  0  0  0
   16.0332   17.7091   25.6342 H   0  0  0  0  0  0  0  0  0  0  0  0
   15.9919   18.8324   24.4265 H   0  0  0  0  0  0  0  0  0  0  0  0
  1  2  1  0  0  0  0
  1  3  1  0  0  0  0
  1  4  1  0  0  0  0
  1  5  1  0  0  0  0
  5  6  1  0  0  0  0
  5  7  1  0  0  0  0
  5  8  1  0  0  0  0
  8  9  1  0  0  0  0
  8 10  1  0  0  0  0
  8 11  1  0  0  0  0
 11 12  1  0  0  0  0
 11 13  1  0  0  0  0
 11 14  1  0  0  0  0
 14 15  1  0  0  0  0
 14 16  1  0  0  0  0
 14 17  1  0  0  0  0
 17 18  1  0  0  0  0
 17 19  1  0  0  0  0
 17 20  1  0  0  0  0
 20 21  1  0  0  0  0
 20 22  1  0  0  0  0
 22 23  1  0  0  0  0
 22 24  1  0  0  0  0
 22 25  1  0  0  0  0
 20 26  1  0  0  0  0
 26 27  1  0  0  0  0
 26 28  1  0  0  0  0
 26 29  1  0  0  0  0
M  END
> <VConfSearch Rank>
244

> <Conf_Id>
40

> <Delta U+W>
1.128

> <U+W>
-26.698

> <U>
25.442

> <W>
-52.140

> <W(PB)>
-54.658

> <W(SA)>
2.519

> <Valence>
4.343

> <Coulomb>
19.740

> <VdW>
1.360

> <VdW6>
-8.739

> <VdW12>
10.099

> <Bond>
0.251

> <Angle>
1.483

> <Pdih>
2.608

> <Idih>
0.000

> <Tether>
0.000

$$$$
VeraChem MOL file


 29 28  0  0  0  0  0  0  0  0999 V2000     
   23.1149   16.6485   24.8394 C   0  0  0  0  0  0  0  0  0  0  0  0
   23.6322   17.4555   24.3061 H   0  0  0  0  0  0  0  0  0  0  0  0
   23.0036   16.9459   25.8902 H   0  0  0  0  0  0  0  0  0  0  0  0
   23.7645   15.7642   24.8080 H   0  0  0  0  0  0  0  0  0  0  0  0
   21.7424   16.3333   24.2025 C   0  0  0  0  0  0  0  0  0  0  0  0
   21.3262   15.4394   24.6879 H   0  0  0  0  0  0  0  0  0  0  0  0
   21.8766   16.0732   23.1432 H   0  0  0  0  0  0  0  0  0  0  0  0
   20.7201   17.4883   24.3329 C   0  0  0  0  0  0  0  0  0  0  0  0
   19.7483   17.1198   23.9809 H   0  0  0  0  0  0  0  0  0  0  0  0
   20.5897   17.7441   25.3934 H   0  0  0  0  0  0  0  0  0  0  0  0
   21.1166   18.7557   23.5334 C   0  0  0  0  0  0  0  0  0  0  0  0
   21.2415   18.5016   22.4719 H   0  0  0  0  0  0  0  0  0  0  0  0
   22.0938   19.1138   23.8819 H   0  0  0  0  0  0  0  0  0  0  0  0
   20.1057   19.9208   23.6731 C   0  0  0  0  0  0  0  0  0  0  0  0
   19.9667   20.1611   24.7363 H   0  0  0  0  0  0  0  0  0  0  0  0
   20.5513   20.8114   23.2110 H   0  0  0  0  0  0  0  0  0  0  0  0
   18.7304   19.6329   23.0172 C   0  0  0  0  0  0  0  0  0  0  0  0
   18.2732   18.7598   23.4985 H   0  0  0  0  0  0  0  0  0  0  0  0
   18.8701   19.3724   21.9597 H   0  0  0  0  0  0  0  0  0  0  0  0
   17.7483   20.8191   23.1334 C   0  0  2  0  0  0  0  0  0  0  0  0
   17.6540   21.0840   24.1910 H   0  0  0  0  0  0  0  0  0  0  0  0
   16.3599   20.4163   22.6111 C   0  0  0  0  0  0  0  0  0  0  0  0
   15.6480   21.2435   22.7229 H   0  0  0  0  0  0  0  0  0  0  0  0
   16.3997   20.1404   21.5499 H   0  0  0  0  0  0  0  0  0  0  0  0
   15.9653   19.5601   23.1723 H   0  0  0  0  0  0  0  0  0  0  0  0
   18.2408   22.0490   22.4205 N   0  3  0  0  0  0  0  0  0  0  0  0
   18.3582   21.8772   21.4184 H   0  0  0  0  0  0  0  0  0  0  0  0
   19.1443   22.3583   22.7888 H   0  0  0  0  0  0  0  0  0  0  0  0
   17.5850   22.8287   22.5235 H   0  0  0  0  0  0  0  0  0  0  0  0
  1  2  1  0  0  0  0
  1  3  1  0  0  0  0
  1  4  1  0  0  0  0
  1  5  1  0  0  0  0
  5  6  1  0  0  0  0
  5  7  1  0  0  0  0
  5  8  1  0  0  0  0
  8  9  1  0  0  0  0
  8 10  1  0  0  0  0
  8 11  1  0  0  0  0
 11 12  1  0  0  0  0
 11 13  1  0  0  0  0
 11 14  1  0  0  0  0
 14 15  1  0  0  0  0
 14 16  1  0  0  0  0
 14 17  1  0  0  0  0
 17 18  1  0  0  0  0
 17 19  1  0  0  0  0
 17 20  1  0  0  0  0
 20 21  1  0  0  0  0
 20 22  1  0  0  0  0
 22 23  1  0  0  0  0
 22 24  1  0  0  0  0
 22 25  1  0  0  0  0
 20 26  1  0  0  0  0
 26 27  1  0  0  0  0
 26 28  1  0  0  0  0
 26 29  1  0  0  0  0
M  END
> <VConfSearch Rank>
245

> <Conf_Id>
134

> <Delta U+W>
1.228

> <U+W>
-26.598

> <U>
25.451

> <W>
-52.048

> <W(PB)>
-54.539

> <W(SA)>
2.490

> <Valence>
4.319

> <Coulomb>
19.732

> <VdW>
1.400

> <VdW6>
-9.173

> <VdW12>
10.573

> <Bond>
0.281

> <Angle>
1.459

> <Pdih>
2.580

> <Idih>
0.000

> <Tether>
0.000

$$$$
VeraChem MOL file


 29 28  0  0  0  0  0  0  0  0999 V2000     
   23.8976   20.2606   24.1655 C   0  0  0  0  0  0  0  0  0  0  0  0
   23.4225   21.2481   24.2142 H   0  0  0  0  0  0  0  0  0  0  0  0
   23.8864   19.8227   25.1720 H   0  0  0  0  0  0  0  0  0  0  0  0
   24.9459   20.4137   23.8779 H   0  0  0  0  0  0  0  0  0  0  0  0
   23.1881   19.3370   23.1494 C   0  0  0  0  0  0  0  0  0  0  0  0
   23.7747   18.4137   23.0435 H   0  0  0  0  0  0  0  0  0  0  0  0
   23.1817   19.8122   22.1586 H   0  0  0  0  0  0  0  0  0  0  0  0
   21.7436   18.9613   23.5596 C   0  0  0  0  0  0  0  0  0  0  0  0
   21.3778   18.2035   22.8549 H   0  0  0  0  0  0  0  0  0  0  0  0
   21.7558   18.4848   24.5494 H   0  0  0  0  0  0  0  0  0  0  0  0
   20.7722   20.1689   23.5717 C   0  0  0  0  0  0  0  0  0  0  0  0
   20.7590   20.6443   22.5814 H   0  0  0  0  0  0  0  0  0  0  0  0
   21.1412   20.9277   24.2737 H   0  0  0  0  0  0  0  0  0  0  0  0
   19.3282   19.7949   23.9879 C   0  0  0  0  0  0  0  0  0  0  0  0
   19.3505   19.3352   24.9848 H   0  0  0  0  0  0  0  0  0  0  0  0
   18.7439   20.7205   24.0852 H   0  0  0  0  0  0  0  0  0  0  0  0
   18.6173   18.8552   22.9800 C   0  0  0  0  0  0  0  0  0  0  0  0
   19.1009   17.8703   22.9758 H   0  0  0  0  0  0  0  0  0  0  0  0
   18.7381   19.2688   21.9701 H   0  0  0  0  0  0  0  0  0  0  0  0
   17.1075   18.6787   23.2596 C   0  0  2  0  0  0  0  0  0  0  0  0
   16.6467   19.6706   23.2947 H   0  0  0  0  0  0  0  0  0  0  0  0
   16.8464   17.9722   24.6019 C   0  0  0  0  0  0  0  0  0  0  0  0
   17.3402   16.9932   24.6377 H   0  0  0  0  0  0  0  0  0  0  0  0
   17.2097   18.5715   25.4448 H   0  0  0  0  0  0  0  0  0  0  0  0
   15.7712   17.8167   24.7539 H   0  0  0  0  0  0  0  0  0  0  0  0
   16.4314   17.9364   22.1405 N   0  3  0  0  0  0  0  0  0  0  0  0
   16.5561   18.4130   21.2425 H   0  0  0  0  0  0  0  0  0  0  0  0
   15.4239   17.8520   22.3029 H   0  0  0  0  0  0  0  0  0  0  0  0
   16.8052   16.9888   22.0406 H   0  0  0  0  0  0  0  0  0  0  0  0
  1  2  1  0  0  0  0
  1  3  1  0  0  0  0
  1  4  1  0  0  0  0
  1  5  1  0  0  0  0
  5  6  1  0  0  0  0
  5  7  1  0  0  0  0
  5  8  1  0  0  0  0
  8  9  1  0  0  0  0
  8 10  1  0  0  0  0
  8 11  1  0  0  0  0
 11 12  1  0  0  0  0
 11 13  1  0  0  0  0
 11 14  1  0  0  0  0
 14 15  1  0  0  0  0
 14 16  1  0  0  0  0
 14 17  1  0  0  0  0
 17 18  1  0  0  0  0
 17 19  1  0  0  0  0
 17 20  1  0  0  0  0
 20 21  1  0  0  0  0
 20 22  1  0  0  0  0
 22 23  1  0  0  0  0
 22 24  1  0  0  0  0
 22 25  1  0  0  0  0
 20 26  1  0  0  0  0
 26 27  1  0  0  0  0
 26 28  1  0  0  0  0
 26 29  1  0  0  0  0
M  END
> <VConfSearch Rank>
246

> <Conf_Id>
73

> <Delta U+W>
1.580

> <U+W>
-26.246

> <U>
25.821

> <W>
-52.067

> <W(PB)>
-54.581

> <W(SA)>
2.514

> <Valence>
4.779

> <Coulomb>
19.614

> <VdW>
1.428

> <VdW6>
-9.390

> <VdW12>
10.818

> <Bond>
0.283

> <Angle>
1.640

> <Pdih>
2.856

> <Idih>
0.000

> <Tether>
0.000

$$$$
VeraChem MOL file


 29 28  0  0  0  0  0  0  0  0999 V2000     
   19.0431   16.2140   26.8421 C   0  0  0  0  0  0  0  0  0  0  0  0
   18.5141   17.0783   27.2646 H   0  0  0  0  0  0  0  0  0  0  0  0
   18.5603   15.3045   27.2225 H   0  0  0  0  0  0  0  0  0  0  0  0
   20.0755   16.2289   27.2152 H   0  0  0  0  0  0  0  0  0  0  0  0
   19.0106   16.2436   25.2993 C   0  0  0  0  0  0  0  0  0  0  0  0
   17.9679   16.1945   24.9555 H   0  0  0  0  0  0  0  0  0  0  0  0
   19.5163   15.3500   24.9073 H   0  0  0  0  0  0  0  0  0  0  0  0
   19.6853   17.5144   24.7373 C   0  0  0  0  0  0  0  0  0  0  0  0
   19.1770   18.3978   25.1447 H   0  0  0  0  0  0  0  0  0  0  0  0
   20.7278   17.5575   25.0815 H   0  0  0  0  0  0  0  0  0  0  0  0
   19.6488   17.5469   23.1903 C   0  0  0  0  0  0  0  0  0  0  0  0
   18.6061   17.5639   22.8440 H   0  0  0  0  0  0  0  0  0  0  0  0
   20.0862   16.6157   22.8044 H   0  0  0  0  0  0  0  0  0  0  0  0
   20.4198   18.7404   22.5743 C   0  0  0  0  0  0  0  0  0  0  0  0
   21.4630   18.7207   22.9189 H   0  0  0  0  0  0  0  0  0  0  0  0
   20.4510   18.5980   21.4862 H   0  0  0  0  0  0  0  0  0  0  0  0
   19.7884   20.1190   22.8984 C   0  0  0  0  0  0  0  0  0  0  0  0
   19.7825   20.2690   23.9850 H   0  0  0  0  0  0  0  0  0  0  0  0
   18.7398   20.1335   22.5727 H   0  0  0  0  0  0  0  0  0  0  0  0
   20.5491   21.2965   22.2506 C   0  0  2  0  0  0  0  0  0  0  0  0
   21.5972   21.2396   22.5602 H   0  0  0  0  0  0  0  0  0  0  0  0
   19.9742   22.6363   22.7374 C   0  0  0  0  0  0  0  0  0  0  0  0
   20.0412   22.7158   23.8296 H   0  0  0  0  0  0  0  0  0  0  0  0
   20.5326   23.4773   22.3081 H   0  0  0  0  0  0  0  0  0  0  0  0
   18.9205   22.7436   22.4509 H   0  0  0  0  0  0  0  0  0  0  0  0
   20.5369   21.2350   20.7475 N   0  3  0  0  0  0  0  0  0  0  0  0
   21.0604   22.0136   20.3371 H   0  0  0  0  0  0  0  0  0  0  0  0
   19.5826   21.2797   20.3802 H   0  0  0  0  0  0  0  0  0  0  0  0
   20.9593   20.3679   20.4050 H   0  0  0  0  0  0  0  0  0  0  0  0
  1  2  1  0  0  0  0
  1  3  1  0  0  0  0
  1  4  1  0  0  0  0
  1  5  1  0  0  0  0
  5  6  1  0  0  0  0
  5  7  1  0  0  0  0
  5  8  1  0  0  0  0
  8  9  1  0  0  0  0
  8 10  1  0  0  0  0
  8 11  1  0  0  0  0
 11 12  1  0  0  0  0
 11 13  1  0  0  0  0
 11 14  1  0  0  0  0
 14 15  1  0  0  0  0
 14 16  1  0  0  0  0
 14 17  1  0  0  0  0
 17 18  1  0  0  0  0
 17 19  1  0  0  0  0
 17 20  1  0  0  0  0
 20 21  1  0  0  0  0
 20 22  1  0  0  0  0
 22 23  1  0  0  0  0
 22 24  1  0  0  0  0
 22 25  1  0  0  0  0
 20 26  1  0  0  0  0
 26 27  1  0  0  0  0
 26 28  1  0  0  0  0
 26 29  1  0  0  0  0
M  END
> <VConfSearch Rank>
247

> <Conf_Id>
111

> <Delta U+W>
0.580

> <U+W>
-27.246

> <U>
24.710

> <W>
-51.957

> <W(PB)>
-54.511

> <W(SA)>
2.555

> <Valence>
3.735

> <Coulomb>
19.760

> <VdW>
1.216

> <VdW6>
-8.624

> <VdW12>
9.840

> <Bond>
0.236

> <Angle>
1.168

> <Pdih>
2.330

> <Idih>
0.000

> <Tether>
0.000

$$$$
VeraChem MOL file


 29 28  0  0  0  0  0  0  0  0999 V2000     
   17.2466   18.4046   19.9734 C   0  0  0  0  0  0  0  0  0  0  0  0
   16.9673   17.3979   20.3108 H   0  0  0  0  0  0  0  0  0  0  0  0
   16.5970   19.1285   20.4826 H   0  0  0  0  0  0  0  0  0  0  0  0
   17.0427   18.4679   18.8966 H   0  0  0  0  0  0  0  0  0  0  0  0
   18.7345   18.6939   20.2641 C   0  0  0  0  0  0  0  0  0  0  0  0
   18.9923   19.6933   19.8864 H   0  0  0  0  0  0  0  0  0  0  0  0
   19.3592   17.9761   19.7143 H   0  0  0  0  0  0  0  0  0  0  0  0
   19.0489   18.6105   21.7741 C   0  0  0  0  0  0  0  0  0  0  0  0
   18.4126   19.3252   22.3123 H   0  0  0  0  0  0  0  0  0  0  0  0
   18.7914   17.6094   22.1466 H   0  0  0  0  0  0  0  0  0  0  0  0
   20.5397   18.9044   22.0673 C   0  0  0  0  0  0  0  0  0  0  0  0
   20.7871   19.9246   21.7427 H   0  0  0  0  0  0  0  0  0  0  0  0
   21.1630   18.2296   21.4644 H   0  0  0  0  0  0  0  0  0  0  0  0
   20.9226   18.7260   23.5569 C   0  0  0  0  0  0  0  0  0  0  0  0
   20.7011   17.6948   23.8624 H   0  0  0  0  0  0  0  0  0  0  0  0
   22.0097   18.8531   23.6551 H   0  0  0  0  0  0  0  0  0  0  0  0
   20.2098   19.7288   24.5004 C   0  0  0  0  0  0  0  0  0  0  0  0
   19.1317   19.5252   24.5219 H   0  0  0  0  0  0  0  0  0  0  0  0
   20.3300   20.7406   24.0912 H   0  0  0  0  0  0  0  0  0  0  0  0
   20.7593   19.7160   25.9449 C   0  0  2  0  0  0  0  0  0  0  0  0
   21.8397   19.8853   25.9026 H   0  0  0  0  0  0  0  0  0  0  0  0
   20.5039   18.3715   26.6493 C   0  0  0  0  0  0  0  0  0  0  0  0
   19.4342   18.1283   26.6641 H   0  0  0  0  0  0  0  0  0  0  0  0
   21.0358   17.5530   26.1506 H   0  0  0  0  0  0  0  0  0  0  0  0
   20.8595   18.4051   27.6864 H   0  0  0  0  0  0  0  0  0  0  0  0
   20.1846   20.8452   26.7542 N   0  3  0  0  0  0  0  0  0  0  0  0
   20.3806   21.7544   26.3254 H   0  0  0  0  0  0  0  0  0  0  0  0
   20.5762   20.8641   27.7003 H   0  0  0  0  0  0  0  0  0  0  0  0
   19.1687   20.7606   26.8458 H   0  0  0  0  0  0  0  0  0  0  0  0
  1  2  1  0  0  0  0
  1  3  1  0  0  0  0
  1  4  1  0  0  0  0
  1  5  1  0  0  0  0
  5  6  1  0  0  0  0
  5  7  1  0  0  0  0
  5  8  1  0  0  0  0
  8  9  1  0  0  0  0
  8 10  1  0  0  0  0
  8 11  1  0  0  0  0
 11 12  1  0  0  0  0
 11 13  1  0  0  0  0
 11 14  1  0  0  0  0
 14 15  1  0  0  0  0
 14 16  1  0  0  0  0
 14 17  1  0  0  0  0
 17 18  1  0  0  0  0
 17 19  1  0  0  0  0
 17 20  1  0  0  0  0
 20 21  1  0  0  0  0
 20 22  1  0  0  0  0
 22 23  1  0  0  0  0
 22 24  1  0  0  0  0
 22 25  1  0  0  0  0
 20 26  1  0  0  0  0
 26 27  1  0  0  0  0
 26 28  1  0  0  0  0
 26 29  1  0  0  0  0
M  END
> <VConfSearch Rank>
248

> <Conf_Id>
39

> <Delta U+W>
0.965

> <U+W>
-26.861

> <U>
25.129

> <W>
-51.990

> <W(PB)>
-54.526

> <W(SA)>
2.536

> <Valence>
4.206

> <Coulomb>
19.678

> <VdW>
1.245

> <VdW6>
-8.834

> <VdW12>
10.079

> <Bond>
0.240

> <Angle>
1.353

> <Pdih>
2.613

> <Idih>
0.000

> <Tether>
0.000

$$$$
VeraChem MOL file


 29 28  0  0  0  0  0  0  0  0999 V2000     
   18.4316   17.5353   27.2409 C   0  0  0  0  0  0  0  0  0  0  0  0
   18.1864   18.5470   27.5891 H   0  0  0  0  0  0  0  0  0  0  0  0
   17.6421   17.2067   26.5539 H   0  0  0  0  0  0  0  0  0  0  0  0
   18.4098   16.8665   28.1110 H   0  0  0  0  0  0  0  0  0  0  0  0
   19.8226   17.5009   26.5679 C   0  0  0  0  0  0  0  0  0  0  0  0
   20.0296   16.4873   26.1971 H   0  0  0  0  0  0  0  0  0  0  0  0
   20.5871   17.7117   27.3288 H   0  0  0  0  0  0  0  0  0  0  0  0
   19.9771   18.5222   25.4151 C   0  0  0  0  0  0  0  0  0  0  0  0
   19.7699   19.5335   25.7911 H   0  0  0  0  0  0  0  0  0  0  0  0
   21.0278   18.5180   25.0984 H   0  0  0  0  0  0  0  0  0  0  0  0
   19.0670   18.2198   24.1974 C   0  0  0  0  0  0  0  0  0  0  0  0
   18.0176   18.2165   24.5187 H   0  0  0  0  0  0  0  0  0  0  0  0
   19.2773   17.2102   23.8185 H   0  0  0  0  0  0  0  0  0  0  0  0
   19.2103   19.2467   23.0470 C   0  0  0  0  0  0  0  0  0  0  0  0
   18.4353   19.0308   22.3001 H   0  0  0  0  0  0  0  0  0  0  0  0
   18.9961   20.2515   23.4347 H   0  0  0  0  0  0  0  0  0  0  0  0
   20.6062   19.2219   22.3661 C   0  0  0  0  0  0  0  0  0  0  0  0
   20.8539   18.1896   22.0864 H   0  0  0  0  0  0  0  0  0  0  0  0
   21.3742   19.5351   23.0840 H   0  0  0  0  0  0  0  0  0  0  0  0
   20.7300   20.1133   21.1079 C   0  0  2  0  0  0  0  0  0  0  0  0
   21.7493   19.9978   20.7266 H   0  0  0  0  0  0  0  0  0  0  0  0
   20.5199   21.6025   21.4324 C   0  0  0  0  0  0  0  0  0  0  0  0
   19.4863   21.8094   21.7345 H   0  0  0  0  0  0  0  0  0  0  0  0
   21.1860   21.9224   22.2433 H   0  0  0  0  0  0  0  0  0  0  0  0
   20.7430   22.2216   20.5549 H   0  0  0  0  0  0  0  0  0  0  0  0
   19.8182   19.6702   19.9969 N   0  3  0  0  0  0  0  0  0  0  0  0
   19.9815   18.6910   19.7453 H   0  0  0  0  0  0  0  0  0  0  0  0
   19.9587   20.2310   19.1516 H   0  0  0  0  0  0  0  0  0  0  0  0
   18.8351   19.7600   20.2650 H   0  0  0  0  0  0  0  0  0  0  0  0
  1  2  1  0  0  0  0
  1  3  1  0  0  0  0
  1  4  1  0  0  0  0
  1  5  1  0  0  0  0
  5  6  1  0  0  0  0
  5  7  1  0  0  0  0
  5  8  1  0  0  0  0
  8  9  1  0  0  0  0
  8 10  1  0  0  0  0
  8 11  1  0  0  0  0
 11 12  1  0  0  0  0
 11 13  1  0  0  0  0
 11 14  1  0  0  0  0
 14 15  1  0  0  0  0
 14 16  1  0  0  0  0
 14 17  1  0  0  0  0
 17 18  1  0  0  0  0
 17 19  1  0  0  0  0
 17 20  1  0  0  0  0
 20 21  1  0  0  0  0
 20 22  1  0  0  0  0
 22 23  1  0  0  0  0
 22 24  1  0  0  0  0
 22 25  1  0  0  0  0
 20 26  1  0  0  0  0
 26 27  1  0  0  0  0
 26 28  1  0  0  0  0
 26 29  1  0  0  0  0
M  END
> <VConfSearch Rank>
249

> <Conf_Id>
155

> <Delta U+W>
1.624

> <U+W>
-26.202

> <U>
25.894

> <W>
-52.096

> <W(PB)>
-54.602

> <W(SA)>
2.506

> <Valence>
4.779

> <Coulomb>
19.659

> <VdW>
1.456

> <VdW6>
-9.843

> <VdW12>
11.299

> <Bond>
0.315

> <Angle>
1.725

> <Pdih>
2.740

> <Idih>
0.000

> <Tether>
0.000

$$$$
VeraChem MOL file


 29 28  0  0  0  0  0  0  0  0999 V2000     
   16.4345   21.4757   23.5969 C   0  0  0  0  0  0  0  0  0  0  0  0
   16.1280   20.6130   22.9924 H   0  0  0  0  0  0  0  0  0  0  0  0
   16.4808   21.1608   24.6475 H   0  0  0  0  0  0  0  0  0  0  0  0
   15.6486   22.2369   23.5087 H   0  0  0  0  0  0  0  0  0  0  0  0
   17.7928   22.0435   23.1268 C   0  0  0  0  0  0  0  0  0  0  0  0
   18.0012   22.9695   23.6807 H   0  0  0  0  0  0  0  0  0  0  0  0
   17.7278   22.3272   22.0671 H   0  0  0  0  0  0  0  0  0  0  0  0
   18.9720   21.0631   23.3352 C   0  0  0  0  0  0  0  0  0  0  0  0
   19.9055   21.5786   23.0707 H   0  0  0  0  0  0  0  0  0  0  0  0
   19.0447   20.8140   24.4018 H   0  0  0  0  0  0  0  0  0  0  0  0
   18.8497   19.7694   22.4908 C   0  0  0  0  0  0  0  0  0  0  0  0
   18.6417   20.0439   21.4474 H   0  0  0  0  0  0  0  0  0  0  0  0
   17.9908   19.1763   22.8319 H   0  0  0  0  0  0  0  0  0  0  0  0
   20.1219   18.8867   22.5198 C   0  0  0  0  0  0  0  0  0  0  0  0
   19.9858   18.0778   21.7908 H   0  0  0  0  0  0  0  0  0  0  0  0
   20.9846   19.4731   22.1747 H   0  0  0  0  0  0  0  0  0  0  0  0
   20.4238   18.2835   23.9165 C   0  0  0  0  0  0  0  0  0  0  0  0
   19.5664   17.6877   24.2562 H   0  0  0  0  0  0  0  0  0  0  0  0
   20.5427   19.0994   24.6396 H   0  0  0  0  0  0  0  0  0  0  0  0
   21.7058   17.4203   23.9579 C   0  0  2  0  0  0  0  0  0  0  0  0
   22.5332   18.0148   23.5586 H   0  0  0  0  0  0  0  0  0  0  0  0
   21.5738   16.1390   23.1149 C   0  0  0  0  0  0  0  0  0  0  0  0
   20.7118   15.5404   23.4350 H   0  0  0  0  0  0  0  0  0  0  0  0
   21.4556   16.3707   22.0503 H   0  0  0  0  0  0  0  0  0  0  0  0
   22.4732   15.5185   23.2123 H   0  0  0  0  0  0  0  0  0  0  0  0
   22.0784   17.0725   25.3725 N   0  3  0  0  0  0  0  0  0  0  0  0
   22.2165   17.9114   25.9434 H   0  0  0  0  0  0  0  0  0  0  0  0
   22.9484   16.5334   25.4081 H   0  0  0  0  0  0  0  0  0  0  0  0
   21.3517   16.5096   25.8229 H   0  0  0  0  0  0  0  0  0  0  0  0
  1  2  1  0  0  0  0
  1  3  1  0  0  0  0
  1  4  1  0  0  0  0
  1  5  1  0  0  0  0
  5  6  1  0  0  0  0
  5  7  1  0  0  0  0
  5  8  1  0  0  0  0
  8  9  1  0  0  0  0
  8 10  1  0  0  0  0
  8 11  1  0  0  0  0
 11 12  1  0  0  0  0
 11 13  1  0  0  0  0
 11 14  1  0  0  0  0
 14 15  1  0  0  0  0
 14 16  1  0  0  0  0
 14 17  1  0  0  0  0
 17 18  1  0  0  0  0
 17 19  1  0  0  0  0
 17 20  1  0  0  0  0
 20 21  1  0  0  0  0
 20 22  1  0  0  0  0
 22 23  1  0  0  0  0
 22 24  1  0  0  0  0
 22 25  1  0  0  0  0
 20 26  1  0  0  0  0
 26 27  1  0  0  0  0
 26 28  1  0  0  0  0
 26 29  1  0  0  0  0
M  END
> <VConfSearch Rank>
250

> <Conf_Id>
135

> <Delta U+W>
1.581

> <U+W>
-26.245

> <U>
25.974

> <W>
-52.219

> <W(PB)>
-54.709

> <W(SA)>
2.490

> <Valence>
4.811

> <Coulomb>
19.700

> <VdW>
1.463

> <VdW6>
-9.391

> <VdW12>
10.854

> <Bond>
0.285

> <Angle>
1.671

> <Pdih>
2.855

> <Idih>
0.000

> <Tether>
0.000

$$$$
VeraChem MOL file


 29 28  0  0  0  0  0  0  0  0999 V2000     
   19.9799   18.5132   19.5123 C   0  0  0  0  0  0  0  0  0  0  0  0
   19.8034   17.4911   19.8715 H   0  0  0  0  0  0  0  0  0  0  0  0
   19.0388   19.0719   19.5878 H   0  0  0  0  0  0  0  0  0  0  0  0
   20.2446   18.4545   18.4486 H   0  0  0  0  0  0  0  0  0  0  0  0
   21.1107   19.1964   20.3142 C   0  0  0  0  0  0  0  0  0  0  0  0
   21.2498   20.2252   19.9537 H   0  0  0  0  0  0  0  0  0  0  0  0
   22.0548   18.6703   20.1146 H   0  0  0  0  0  0  0  0  0  0  0  0
   20.8600   19.2058   21.8413 C   0  0  0  0  0  0  0  0  0  0  0  0
   20.7522   18.1715   22.1934 H   0  0  0  0  0  0  0  0  0  0  0  0
   21.7507   19.6132   22.3390 H   0  0  0  0  0  0  0  0  0  0  0  0
   19.6219   20.0409   22.2545 C   0  0  0  0  0  0  0  0  0  0  0  0
   18.7071   19.5777   21.8619 H   0  0  0  0  0  0  0  0  0  0  0  0
   19.6892   21.0351   21.7918 H   0  0  0  0  0  0  0  0  0  0  0  0
   19.4854   20.2192   23.7864 C   0  0  0  0  0  0  0  0  0  0  0  0
   20.3843   20.7195   24.1703 H   0  0  0  0  0  0  0  0  0  0  0  0
   18.6432   20.8963   23.9855 H   0  0  0  0  0  0  0  0  0  0  0  0
   19.2512   18.8853   24.5411 C   0  0  0  0  0  0  0  0  0  0  0  0
   20.1413   18.2479   24.4648 H   0  0  0  0  0  0  0  0  0  0  0  0
   18.4339   18.3429   24.0476 H   0  0  0  0  0  0  0  0  0  0  0  0
   18.8851   19.0737   26.0308 C   0  0  2  0  0  0  0  0  0  0  0  0
   18.0187   19.7397   26.0897 H   0  0  0  0  0  0  0  0  0  0  0  0
   20.0377   19.7011   26.8351 C   0  0  0  0  0  0  0  0  0  0  0  0
   20.9504   19.0972   26.7574 H   0  0  0  0  0  0  0  0  0  0  0  0
   20.2644   20.7139   26.4827 H   0  0  0  0  0  0  0  0  0  0  0  0
   19.7706   19.7791   27.8962 H   0  0  0  0  0  0  0  0  0  0  0  0
   18.4629   17.7725   26.6546 N   0  3  0  0  0  0  0  0  0  0  0  0
   18.1816   17.9000   27.6310 H   0  0  0  0  0  0  0  0  0  0  0  0
   19.2237   17.0878   26.6429 H   0  0  0  0  0  0  0  0  0  0  0  0
   17.6676   17.3579   26.1603 H   0  0  0  0  0  0  0  0  0  0  0  0
  1  2  1  0  0  0  0
  1  3  1  0  0  0  0
  1  4  1  0  0  0  0
  1  5  1  0  0  0  0
  5  6  1  0  0  0  0
  5  7  1  0  0  0  0
  5  8  1  0  0  0  0
  8  9  1  0  0  0  0
  8 10  1  0  0  0  0
  8 11  1  0  0  0  0
 11 12  1  0  0  0  0
 11 13  1  0  0  0  0
 11 14  1  0  0  0  0
 14 15  1  0  0  0  0
 14 16  1  0  0  0  0
 14 17  1  0  0  0  0
 17 18  1  0  0  0  0
 17 19  1  0  0  0  0
 17 20  1  0  0  0  0
 20 21  1  0  0  0  0
 20 22  1  0  0  0  0
 22 23  1  0  0  0  0
 22 24  1  0  0  0  0
 22 25  1  0  0  0  0
 20 26  1  0  0  0  0
 26 27  1  0  0  0  0
 26 28  1  0  0  0  0
 26 29  1  0  0  0  0
M  END
> <VConfSearch Rank>
251

> <Conf_Id>
130

> <Delta U+W>
1.359

> <U+W>
-26.467

> <U>
25.687

> <W>
-52.154

> <W(PB)>
-54.643

> <W(SA)>
2.489

> <Valence>
4.682

> <Coulomb>
19.653

> <VdW>
1.352

> <VdW6>
-9.477

> <VdW12>
10.829

> <Bond>
0.274

> <Angle>
1.550

> <Pdih>
2.858

> <Idih>
0.000

> <Tether>
0.000

$$$$
VeraChem MOL file


 29 28  0  0  0  0  0  0  0  0999 V2000     
   16.6069   19.7792   21.0335 C   0  0  0  0  0  0  0  0  0  0  0  0
   16.2169   19.6618   20.0142 H   0  0  0  0  0  0  0  0  0  0  0  0
   15.7505   19.9115   21.7074 H   0  0  0  0  0  0  0  0  0  0  0  0
   17.2059   20.6980   21.0531 H   0  0  0  0  0  0  0  0  0  0  0  0
   17.4458   18.5453   21.4366 C   0  0  0  0  0  0  0  0  0  0  0  0
   18.3138   18.4542   20.7687 H   0  0  0  0  0  0  0  0  0  0  0  0
   16.8414   17.6408   21.2801 H   0  0  0  0  0  0  0  0  0  0  0  0
   17.9200   18.5758   22.9097 C   0  0  0  0  0  0  0  0  0  0  0  0
   17.0471   18.6485   23.5729 H   0  0  0  0  0  0  0  0  0  0  0  0
   18.3964   17.6134   23.1350 H   0  0  0  0  0  0  0  0  0  0  0  0
   18.9042   19.7338   23.2156 C   0  0  0  0  0  0  0  0  0  0  0  0
   18.3928   20.6910   23.0509 H   0  0  0  0  0  0  0  0  0  0  0  0
   19.7397   19.7051   22.5057 H   0  0  0  0  0  0  0  0  0  0  0  0
   19.4299   19.7166   24.6746 C   0  0  0  0  0  0  0  0  0  0  0  0
   19.8685   20.6940   24.9189 H   0  0  0  0  0  0  0  0  0  0  0  0
   18.5706   19.6054   25.3504 H   0  0  0  0  0  0  0  0  0  0  0  0
   20.4626   18.5967   24.9816 C   0  0  0  0  0  0  0  0  0  0  0  0
   20.3123   17.7327   24.3234 H   0  0  0  0  0  0  0  0  0  0  0  0
   20.2684   18.2337   25.9995 H   0  0  0  0  0  0  0  0  0  0  0  0
   21.9411   19.0493   24.9222 C   0  0  2  0  0  0  0  0  0  0  0  0
   22.0700   19.8845   25.6176 H   0  0  0  0  0  0  0  0  0  0  0  0
   22.3620   19.5217   23.5204 C   0  0  0  0  0  0  0  0  0  0  0  0
   21.8221   20.4313   23.2333 H   0  0  0  0  0  0  0  0  0  0  0  0
   23.4323   19.7611   23.4978 H   0  0  0  0  0  0  0  0  0  0  0  0
   22.1695   18.7488   22.7660 H   0  0  0  0  0  0  0  0  0  0  0  0
   22.8587   17.9580   25.3994 N   0  3  0  0  0  0  0  0  0  0  0  0
   22.6267   17.6594   26.3511 H   0  0  0  0  0  0  0  0  0  0  0  0
   23.8349   18.2671   25.4066 H   0  0  0  0  0  0  0  0  0  0  0  0
   22.8039   17.1331   24.7958 H   0  0  0  0  0  0  0  0  0  0  0  0
  1  2  1  0  0  0  0
  1  3  1  0  0  0  0
  1  4  1  0  0  0  0
  1  5  1  0  0  0  0
  5  6  1  0  0  0  0
  5  7  1  0  0  0  0
  5  8  1  0  0  0  0
  8  9  1  0  0  0  0
  8 10  1  0  0  0  0
  8 11  1  0  0  0  0
 11 12  1  0  0  0  0
 11 13  1  0  0  0  0
 11 14  1  0  0  0  0
 14 15  1  0  0  0  0
 14 16  1  0  0  0  0
 14 17  1  0  0  0  0
 17 18  1  0  0  0  0
 17 19  1  0  0  0  0
 17 20  1  0  0  0  0
 20 21  1  0  0  0  0
 20 22  1  0  0  0  0
 22 23  1  0  0  0  0
 22 24  1  0  0  0  0
 22 25  1  0  0  0  0
 20 26  1  0  0  0  0
 26 27  1  0  0  0  0
 26 28  1  0  0  0  0
 26 29  1  0  0  0  0
M  END
> <VConfSearch Rank>
252

> <Conf_Id>
157

> <Delta U+W>
4.354

> <U+W>
-23.472

> <U>
28.780

> <W>
-52.252

> <W(PB)>
-54.715

> <W(SA)>
2.462

> <Valence>
7.566

> <Coulomb>
19.822

> <VdW>
1.392

> <VdW6>
-10.248

> <VdW12>
11.641

> <Bond>
0.340

> <Angle>
2.096

> <Pdih>
5.129

> <Idih>
0.000

> <Tether>
0.000

$$$$
VeraChem MOL file


 29 28  0  0  0  0  0  0  0  0999 V2000     
   22.6903   17.3680   24.9150 C   0  0  0  0  0  0  0  0  0  0  0  0
   23.1970   17.1056   25.8528 H   0  0  0  0  0  0  0  0  0  0  0  0
   21.6446   17.0533   25.0030 H   0  0  0  0  0  0  0  0  0  0  0  0
   23.1529   16.7806   24.1112 H   0  0  0  0  0  0  0  0  0  0  0  0
   22.8210   18.8834   24.6354 C   0  0  0  0  0  0  0  0  0  0  0  0
   23.8915   19.1258   24.5784 H   0  0  0  0  0  0  0  0  0  0  0  0
   22.4246   19.4637   25.4801 H   0  0  0  0  0  0  0  0  0  0  0  0
   22.1432   19.3243   23.3126 C   0  0  0  0  0  0  0  0  0  0  0  0
   22.7609   20.1116   22.8586 H   0  0  0  0  0  0  0  0  0  0  0  0
   22.1437   18.4960   22.5908 H   0  0  0  0  0  0  0  0  0  0  0  0
   20.7090   19.8917   23.4717 C   0  0  0  0  0  0  0  0  0  0  0  0
   20.3735   20.2337   22.4841 H   0  0  0  0  0  0  0  0  0  0  0  0
   20.7400   20.7852   24.1104 H   0  0  0  0  0  0  0  0  0  0  0  0
   19.6859   18.8831   24.0496 C   0  0  0  0  0  0  0  0  0  0  0  0
   19.7085   17.9523   23.4677 H   0  0  0  0  0  0  0  0  0  0  0  0
   19.9826   18.6165   25.0719 H   0  0  0  0  0  0  0  0  0  0  0  0
   18.2403   19.4411   24.1072 C   0  0  0  0  0  0  0  0  0  0  0  0
   18.2280   20.3235   24.7607 H   0  0  0  0  0  0  0  0  0  0  0  0
   17.5904   18.6966   24.5860 H   0  0  0  0  0  0  0  0  0  0  0  0
   17.6473   19.8242   22.7325 C   0  0  2  0  0  0  0  0  0  0  0  0
   18.2861   20.5887   22.2811 H   0  0  0  0  0  0  0  0  0  0  0  0
   16.2404   20.4183   22.9043 C   0  0  0  0  0  0  0  0  0  0  0  0
   15.5524   19.6883   23.3488 H   0  0  0  0  0  0  0  0  0  0  0  0
   16.2676   21.3021   23.5539 H   0  0  0  0  0  0  0  0  0  0  0  0
   15.8296   20.7295   21.9359 H   0  0  0  0  0  0  0  0  0  0  0  0
   17.6192   18.6638   21.7763 N   0  3  0  0  0  0  0  0  0  0  0  0
   18.5584   18.2854   21.6254 H   0  0  0  0  0  0  0  0  0  0  0  0
   17.2474   18.9396   20.8629 H   0  0  0  0  0  0  0  0  0  0  0  0
   17.0326   17.9035   22.1302 H   0  0  0  0  0  0  0  0  0  0  0  0
  1  2  1  0  0  0  0
  1  3  1  0  0  0  0
  1  4  1  0  0  0  0
  1  5  1  0  0  0  0
  5  6  1  0  0  0  0
  5  7  1  0  0  0  0
  5  8  1  0  0  0  0
  8  9  1  0  0  0  0
  8 10  1  0  0  0  0
  8 11  1  0  0  0  0
 11 12  1  0  0  0  0
 11 13  1  0  0  0  0
 11 14  1  0  0  0  0
 14 15  1  0  0  0  0
 14 16  1  0  0  0  0
 14 17  1  0  0  0  0
 17 18  1  0  0  0  0
 17 19  1  0  0  0  0
 17 20  1  0  0  0  0
 20 21  1  0  0  0  0
 20 22  1  0  0  0  0
 22 23  1  0  0  0  0
 22 24  1  0  0  0  0
 22 25  1  0  0  0  0
 20 26  1  0  0  0  0
 26 27  1  0  0  0  0
 26 28  1  0  0  0  0
 26 29  1  0  0  0  0
M  END
> <VConfSearch Rank>
253

> <Conf_Id>
158

> <Delta U+W>
3.648

> <U+W>
-24.178

> <U>
28.057

> <W>
-52.235

> <W(PB)>
-54.696

> <W(SA)>
2.460

> <Valence>
6.543

> <Coulomb>
20.387

> <VdW>
1.127

> <VdW6>
-10.342

> <VdW12>
11.469

> <Bond>
0.308

> <Angle>
1.938

> <Pdih>
4.297

> <Idih>
0.000

> <Tether>
0.000

$$$$
VeraChem MOL file


 29 28  0  0  0  0  0  0  0  0999 V2000     
   17.2213   17.6646   21.2420 C   0  0  0  0  0  0  0  0  0  0  0  0
   17.9284   17.7924   20.4121 H   0  0  0  0  0  0  0  0  0  0  0  0
   17.7010   17.0469   22.0113 H   0  0  0  0  0  0  0  0  0  0  0  0
   16.3561   17.1055   20.8627 H   0  0  0  0  0  0  0  0  0  0  0  0
   16.7753   19.0320   21.8076 C   0  0  0  0  0  0  0  0  0  0  0  0
   16.0946   18.8769   22.6563 H   0  0  0  0  0  0  0  0  0  0  0  0
   16.1933   19.5598   21.0392 H   0  0  0  0  0  0  0  0  0  0  0  0
   17.9563   19.9333   22.2415 C   0  0  0  0  0  0  0  0  0  0  0  0
   18.6240   20.0998   21.3849 H   0  0  0  0  0  0  0  0  0  0  0  0
   17.5589   20.9191   22.5200 H   0  0  0  0  0  0  0  0  0  0  0  0
   18.7651   19.3602   23.4296 C   0  0  0  0  0  0  0  0  0  0  0  0
   19.2109   18.4012   23.1438 H   0  0  0  0  0  0  0  0  0  0  0  0
   18.0847   19.1529   24.2670 H   0  0  0  0  0  0  0  0  0  0  0  0
   19.8682   20.3414   23.8966 C   0  0  0  0  0  0  0  0  0  0  0  0
   20.5157   20.6213   23.0541 H   0  0  0  0  0  0  0  0  0  0  0  0
   19.3824   21.2702   24.2264 H   0  0  0  0  0  0  0  0  0  0  0  0
   20.7256   19.7924   25.0677 C   0  0  0  0  0  0  0  0  0  0  0  0
   20.1434   19.0770   25.6637 H   0  0  0  0  0  0  0  0  0  0  0  0
   20.9480   20.6306   25.7412 H   0  0  0  0  0  0  0  0  0  0  0  0
   22.0758   19.1637   24.6466 C   0  0  2  0  0  0  0  0  0  0  0  0
   22.6471   19.9199   24.0996 H   0  0  0  0  0  0  0  0  0  0  0  0
   21.9063   17.9380   23.7332 C   0  0  0  0  0  0  0  0  0  0  0  0
   21.2595   17.1827   24.1968 H   0  0  0  0  0  0  0  0  0  0  0  0
   21.4733   18.2241   22.7677 H   0  0  0  0  0  0  0  0  0  0  0  0
   22.8778   17.4731   23.5251 H   0  0  0  0  0  0  0  0  0  0  0  0
   22.9000   18.8028   25.8511 N   0  3  0  0  0  0  0  0  0  0  0  0
   23.0676   19.6158   26.4509 H   0  0  0  0  0  0  0  0  0  0  0  0
   23.8147   18.4305   25.5803 H   0  0  0  0  0  0  0  0  0  0  0  0
   22.4367   18.0900   26.4212 H   0  0  0  0  0  0  0  0  0  0  0  0
  1  2  1  0  0  0  0
  1  3  1  0  0  0  0
  1  4  1  0  0  0  0
  1  5  1  0  0  0  0
  5  6  1  0  0  0  0
  5  7  1  0  0  0  0
  5  8  1  0  0  0  0
  8  9  1  0  0  0  0
  8 10  1  0  0  0  0
  8 11  1  0  0  0  0
 11 12  1  0  0  0  0
 11 13  1  0  0  0  0
 11 14  1  0  0  0  0
 14 15  1  0  0  0  0
 14 16  1  0  0  0  0
 14 17  1  0  0  0  0
 17 18  1  0  0  0  0
 17 19  1  0  0  0  0
 17 20  1  0  0  0  0
 20 21  1  0  0  0  0
 20 22  1  0  0  0  0
 22 23  1  0  0  0  0
 22 24  1  0  0  0  0
 22 25  1  0  0  0  0
 20 26  1  0  0  0  0
 26 27  1  0  0  0  0
 26 28  1  0  0  0  0
 26 29  1  0  0  0  0
M  END
> <VConfSearch Rank>
254

> <Conf_Id>
156

> <Delta U+W>
3.393

> <U+W>
-24.433

> <U>
27.713

> <W>
-52.146

> <W(PB)>
-54.603

> <W(SA)>
2.458

> <Valence>
6.758

> <Coulomb>
19.720

> <VdW>
1.235

> <VdW6>
-9.782

> <VdW12>
11.017

> <Bond>
0.287

> <Angle>
1.880

> <Pdih>
4.591

> <Idih>
0.000

> <Tether>
0.000

$$$$
VeraChem MOL file


 29 28  0  0  0  0  0  0  0  0999 V2000     
   21.8257   20.7871   26.3898 C   0  0  0  0  0  0  0  0  0  0  0  0
   22.4030   21.2737   25.5929 H   0  0  0  0  0  0  0  0  0  0  0  0
   21.4700   21.5647   27.0783 H   0  0  0  0  0  0  0  0  0  0  0  0
   22.5066   20.1302   26.9465 H   0  0  0  0  0  0  0  0  0  0  0  0
   20.6464   19.9805   25.8064 C   0  0  0  0  0  0  0  0  0  0  0  0
   20.1059   19.4818   26.6229 H   0  0  0  0  0  0  0  0  0  0  0  0
   21.0434   19.1896   25.1564 H   0  0  0  0  0  0  0  0  0  0  0  0
   19.6744   20.8849   25.0129 C   0  0  0  0  0  0  0  0  0  0  0  0
   19.3501   21.7123   25.6589 H   0  0  0  0  0  0  0  0  0  0  0  0
   20.2039   21.3515   24.1719 H   0  0  0  0  0  0  0  0  0  0  0  0
   18.4118   20.1436   24.5018 C   0  0  0  0  0  0  0  0  0  0  0  0
   17.7705   20.8628   23.9739 H   0  0  0  0  0  0  0  0  0  0  0  0
   17.8280   19.8008   25.3672 H   0  0  0  0  0  0  0  0  0  0  0  0
   18.6788   18.9314   23.5721 C   0  0  0  0  0  0  0  0  0  0  0  0
   19.2151   18.1521   24.1277 H   0  0  0  0  0  0  0  0  0  0  0  0
   17.7075   18.4972   23.3027 H   0  0  0  0  0  0  0  0  0  0  0  0
   19.4578   19.3040   22.2811 C   0  0  0  0  0  0  0  0  0  0  0  0
   20.4402   19.7110   22.5500 H   0  0  0  0  0  0  0  0  0  0  0  0
   18.9280   20.1102   21.7569 H   0  0  0  0  0  0  0  0  0  0  0  0
   19.6834   18.1326   21.2962 C   0  0  2  0  0  0  0  0  0  0  0  0
   20.2841   18.5179   20.4664 H   0  0  0  0  0  0  0  0  0  0  0  0
   18.3633   17.6061   20.7065 C   0  0  0  0  0  0  0  0  0  0  0  0
   18.5631   16.8791   19.9098 H   0  0  0  0  0  0  0  0  0  0  0  0
   17.7483   17.1086   21.4657 H   0  0  0  0  0  0  0  0  0  0  0  0
   17.7771   18.4244   20.2703 H   0  0  0  0  0  0  0  0  0  0  0  0
   20.4843   17.0158   21.9069 N   0  3  0  0  0  0  0  0  0  0  0  0
   21.3860   17.3496   22.2591 H   0  0  0  0  0  0  0  0  0  0  0  0
   20.6763   16.2770   21.2242 H   0  0  0  0  0  0  0  0  0  0  0  0
   19.9852   16.5877   22.6906 H   0  0  0  0  0  0  0  0  0  0  0  0
  1  2  1  0  0  0  0
  1  3  1  0  0  0  0
  1  4  1  0  0  0  0
  1  5  1  0  0  0  0
  5  6  1  0  0  0  0
  5  7  1  0  0  0  0
  5  8  1  0  0  0  0
  8  9  1  0  0  0  0
  8 10  1  0  0  0  0
  8 11  1  0  0  0  0
 11 12  1  0  0  0  0
 11 13  1  0  0  0  0
 11 14  1  0  0  0  0
 14 15  1  0  0  0  0
 14 16  1  0  0  0  0
 14 17  1  0  0  0  0
 17 18  1  0  0  0  0
 17 19  1  0  0  0  0
 17 20  1  0  0  0  0
 20 21  1  0  0  0  0
 20 22  1  0  0  0  0
 22 23  1  0  0  0  0
 22 24  1  0  0  0  0
 22 25  1  0  0  0  0
 20 26  1  0  0  0  0
 26 27  1  0  0  0  0
 26 28  1  0  0  0  0
 26 29  1  0  0  0  0
M  END
> <VConfSearch Rank>
255

> <Conf_Id>
78

> <Delta U+W>
1.477

> <U+W>
-26.349

> <U>
26.385

> <W>
-52.734

> <W(PB)>
-55.179

> <W(SA)>
2.445

> <Valence>
4.726

> <Coulomb>
20.482

> <VdW>
1.177

> <VdW6>
-10.349

> <VdW12>
11.526

> <Bond>
0.319

> <Angle>
1.933

> <Pdih>
2.474

> <Idih>
0.000

> <Tether>
0.000

$$$$
VeraChem MOL file


 29 28  0  0  0  0  0  0  0  0999 V2000     
   23.0389   19.8420   25.1879 C   0  0  0  0  0  0  0  0  0  0  0  0
   22.8805   20.6477   25.9164 H   0  0  0  0  0  0  0  0  0  0  0  0
   22.3628   19.0188   25.4442 H   0  0  0  0  0  0  0  0  0  0  0  0
   24.0674   19.4791   25.3115 H   0  0  0  0  0  0  0  0  0  0  0  0
   22.8147   20.3518   23.7452 C   0  0  0  0  0  0  0  0  0  0  0  0
   23.0509   19.5614   23.0192 H   0  0  0  0  0  0  0  0  0  0  0  0
   23.5349   21.1602   23.5562 H   0  0  0  0  0  0  0  0  0  0  0  0
   21.3840   20.8974   23.5024 C   0  0  0  0  0  0  0  0  0  0  0  0
   20.9630   21.2902   24.4381 H   0  0  0  0  0  0  0  0  0  0  0  0
   21.4579   21.7608   22.8267 H   0  0  0  0  0  0  0  0  0  0  0  0
   20.4002   19.8860   22.8595 C   0  0  0  0  0  0  0  0  0  0  0  0
   20.7810   19.5833   21.8743 H   0  0  0  0  0  0  0  0  0  0  0  0
   19.4546   20.4117   22.6744 H   0  0  0  0  0  0  0  0  0  0  0  0
   20.1334   18.6245   23.7171 C   0  0  0  0  0  0  0  0  0  0  0  0
   21.0683   18.0605   23.8276 H   0  0  0  0  0  0  0  0  0  0  0  0
   19.8292   18.9179   24.7303 H   0  0  0  0  0  0  0  0  0  0  0  0
   19.0783   17.6723   23.0964 C   0  0  0  0  0  0  0  0  0  0  0  0
   18.9765   16.7881   23.7394 H   0  0  0  0  0  0  0  0  0  0  0  0
   19.4642   17.3067   22.1357 H   0  0  0  0  0  0  0  0  0  0  0  0
   17.6807   18.2943   22.8646 C   0  0  2  0  0  0  0  0  0  0  0  0
   17.7922   19.1622   22.2082 H   0  0  0  0  0  0  0  0  0  0  0  0
   17.0278   18.7583   24.1786 C   0  0  0  0  0  0  0  0  0  0  0  0
   16.0189   19.1468   23.9930 H   0  0  0  0  0  0  0  0  0  0  0  0
   16.9480   17.9317   24.8955 H   0  0  0  0  0  0  0  0  0  0  0  0
   17.6049   19.5648   24.6459 H   0  0  0  0  0  0  0  0  0  0  0  0
   16.7752   17.3357   22.1427 N   0  3  0  0  0  0  0  0  0  0  0  0
   16.6117   16.4888   22.6939 H   0  0  0  0  0  0  0  0  0  0  0  0
   17.1719   17.0462   21.2441 H   0  0  0  0  0  0  0  0  0  0  0  0
   15.8615   17.7565   21.9511 H   0  0  0  0  0  0  0  0  0  0  0  0
  1  2  1  0  0  0  0
  1  3  1  0  0  0  0
  1  4  1  0  0  0  0
  1  5  1  0  0  0  0
  5  6  1  0  0  0  0
  5  7  1  0  0  0  0
  5  8  1  0  0  0  0
  8  9  1  0  0  0  0
  8 10  1  0  0  0  0
  8 11  1  0  0  0  0
 11 12  1  0  0  0  0
 11 13  1  0  0  0  0
 11 14  1  0  0  0  0
 14 15  1  0  0  0  0
 14 16  1  0  0  0  0
 14 17  1  0  0  0  0
 17 18  1  0  0  0  0
 17 19  1  0  0  0  0
 17 20  1  0  0  0  0
 20 21  1  0  0  0  0
 20 22  1  0  0  0  0
 22 23  1  0  0  0  0
 22 24  1  0  0  0  0
 22 25  1  0  0  0  0
 20 26  1  0  0  0  0
 26 27  1  0  0  0  0
 26 28  1  0  0  0  0
 26 29  1  0  0  0  0
M  END
> <VConfSearch Rank>
256

> <Conf_Id>
145

> <Delta U+W>
3.784

> <U+W>
-24.042

> <U>
28.220

> <W>
-52.262

> <W(PB)>
-54.724

> <W(SA)>
2.462

> <Valence>
7.040

> <Coulomb>
19.984

> <VdW>
1.197

> <VdW6>
-10.566

> <VdW12>
11.763

> <Bond>
0.320

> <Angle>
2.280

> <Pdih>
4.439

> <Idih>
0.000

> <Tether>
0.000

$$$$
VeraChem MOL file


 29 28  0  0  0  0  0  0  0  0999 V2000     
   16.8018   16.7031   22.7663 C   0  0  0  0  0  0  0  0  0  0  0  0
   16.9035   15.6141   22.6711 H   0  0  0  0  0  0  0  0  0  0  0  0
   16.5844   16.9358   23.8169 H   0  0  0  0  0  0  0  0  0  0  0  0
   15.9371   17.0146   22.1660 H   0  0  0  0  0  0  0  0  0  0  0  0
   18.0818   17.4234   22.2927 C   0  0  0  0  0  0  0  0  0  0  0  0
   17.9302   18.5074   22.3600 H   0  0  0  0  0  0  0  0  0  0  0  0
   18.2519   17.1980   21.2306 H   0  0  0  0  0  0  0  0  0  0  0  0
   19.3178   16.9905   23.1176 C   0  0  0  0  0  0  0  0  0  0  0  0
   19.1372   17.1458   24.1901 H   0  0  0  0  0  0  0  0  0  0  0  0
   19.4524   15.9078   22.9874 H   0  0  0  0  0  0  0  0  0  0  0  0
   20.6265   17.7033   22.6875 C   0  0  0  0  0  0  0  0  0  0  0  0
   20.5760   17.9870   21.6272 H   0  0  0  0  0  0  0  0  0  0  0  0
   21.4496   16.9789   22.7599 H   0  0  0  0  0  0  0  0  0  0  0  0
   21.0106   18.9328   23.5506 C   0  0  0  0  0  0  0  0  0  0  0  0
   21.1625   18.6073   24.5883 H   0  0  0  0  0  0  0  0  0  0  0  0
   21.9832   19.2978   23.1970 H   0  0  0  0  0  0  0  0  0  0  0  0
   19.9733   20.0866   23.5085 C   0  0  0  0  0  0  0  0  0  0  0  0
   19.0296   19.7394   23.9463 H   0  0  0  0  0  0  0  0  0  0  0  0
   19.7540   20.3433   22.4638 H   0  0  0  0  0  0  0  0  0  0  0  0
   20.3965   21.3711   24.2598 C   0  0  2  0  0  0  0  0  0  0  0  0
   19.5519   22.0656   24.2150 H   0  0  0  0  0  0  0  0  0  0  0  0
   21.5995   22.0636   23.5958 C   0  0  0  0  0  0  0  0  0  0  0  0
   21.7839   23.0396   24.0612 H   0  0  0  0  0  0  0  0  0  0  0  0
   22.5159   21.4698   23.6922 H   0  0  0  0  0  0  0  0  0  0  0  0
   21.4110   22.2349   22.5287 H   0  0  0  0  0  0  0  0  0  0  0  0
   20.6555   21.1232   25.7203 N   0  3  0  0  0  0  0  0  0  0  0  0
   21.4451   20.4864   25.8534 H   0  0  0  0  0  0  0  0  0  0  0  0
   19.8412   20.7063   26.1805 H   0  0  0  0  0  0  0  0  0  0  0  0
   20.8751   21.9929   26.2142 H   0  0  0  0  0  0  0  0  0  0  0  0
  1  2  1  0  0  0  0
  1  3  1  0  0  0  0
  1  4  1  0  0  0  0
  1  5  1  0  0  0  0
  5  6  1  0  0  0  0
  5  7  1  0  0  0  0
  5  8  1  0  0  0  0
  8  9  1  0  0  0  0
  8 10  1  0  0  0  0
  8 11  1  0  0  0  0
 11 12  1  0  0  0  0
 11 13  1  0  0  0  0
 11 14  1  0  0  0  0
 14 15  1  0  0  0  0
 14 16  1  0  0  0  0
 14 17  1  0  0  0  0
 17 18  1  0  0  0  0
 17 19  1  0  0  0  0
 17 20  1  0  0  0  0
 20 21  1  0  0  0  0
 20 22  1  0  0  0  0
 22 23  1  0  0  0  0
 22 24  1  0  0  0  0
 22 25  1  0  0  0  0
 20 26  1  0  0  0  0
 26 27  1  0  0  0  0
 26 28  1  0  0  0  0
 26 29  1  0  0  0  0
M  END
> <VConfSearch Rank>
257

> <Conf_Id>
71

> <Delta U+W>
3.542

> <U+W>
-24.284

> <U>
28.217

> <W>
-52.501

> <W(PB)>
-54.947

> <W(SA)>
2.446

> <Valence>
6.821

> <Coulomb>
20.147

> <VdW>
1.249

> <VdW6>
-10.237

> <VdW12>
11.486

> <Bond>
0.317

> <Angle>
1.990

> <Pdih>
4.515

> <Idih>
0.000

> <Tether>
0.000

$$$$
VeraChem MOL file


 29 28  0  0  0  0  0  0  0  0999 V2000     
   23.3837   17.3867   23.6617 C   0  0  0  0  0  0  0  0  0  0  0  0
   23.2918   17.4968   22.5733 H   0  0  0  0  0  0  0  0  0  0  0  0
   24.3081   17.8865   23.9792 H   0  0  0  0  0  0  0  0  0  0  0  0
   23.4853   16.3167   23.8850 H   0  0  0  0  0  0  0  0  0  0  0  0
   22.1558   17.9799   24.3842 C   0  0  0  0  0  0  0  0  0  0  0  0
   22.2625   17.8235   25.4667 H   0  0  0  0  0  0  0  0  0  0  0  0
   21.2584   17.4297   24.0772 H   0  0  0  0  0  0  0  0  0  0  0  0
   21.9986   19.4918   24.0927 C   0  0  0  0  0  0  0  0  0  0  0  0
   22.9053   20.0027   24.4454 H   0  0  0  0  0  0  0  0  0  0  0  0
   21.9524   19.6709   23.0098 H   0  0  0  0  0  0  0  0  0  0  0  0
   20.7716   20.1323   24.7926 C   0  0  0  0  0  0  0  0  0  0  0  0
   21.0480   21.1497   25.1021 H   0  0  0  0  0  0  0  0  0  0  0  0
   20.5380   19.5946   25.7218 H   0  0  0  0  0  0  0  0  0  0  0  0
   19.5041   20.2436   23.9065 C   0  0  0  0  0  0  0  0  0  0  0  0
   18.7380   20.7830   24.4786 H   0  0  0  0  0  0  0  0  0  0  0  0
   19.7344   20.8698   23.0343 H   0  0  0  0  0  0  0  0  0  0  0  0
   18.9357   18.8780   23.4377 C   0  0  0  0  0  0  0  0  0  0  0  0
   18.8385   18.2092   24.3028 H   0  0  0  0  0  0  0  0  0  0  0  0
   19.6508   18.4012   22.7560 H   0  0  0  0  0  0  0  0  0  0  0  0
   17.5669   18.9556   22.7213 C   0  0  2  0  0  0  0  0  0  0  0  0
   17.2850   17.9343   22.4471 H   0  0  0  0  0  0  0  0  0  0  0  0
   17.6394   19.7827   21.4259 C   0  0  0  0  0  0  0  0  0  0  0  0
   18.4371   19.4115   20.7706 H   0  0  0  0  0  0  0  0  0  0  0  0
   16.6948   19.7127   20.8726 H   0  0  0  0  0  0  0  0  0  0  0  0
   17.8291   20.8428   21.6324 H   0  0  0  0  0  0  0  0  0  0  0  0
   16.4738   19.4605   23.6225 N   0  3  0  0  0  0  0  0  0  0  0  0
   16.3904   18.8888   24.4680 H   0  0  0  0  0  0  0  0  0  0  0  0
   15.5644   19.4457   23.1519 H   0  0  0  0  0  0  0  0  0  0  0  0
   16.6510   20.4238   23.9177 H   0  0  0  0  0  0  0  0  0  0  0  0
  1  2  1  0  0  0  0
  1  3  1  0  0  0  0
  1  4  1  0  0  0  0
  1  5  1  0  0  0  0
  5  6  1  0  0  0  0
  5  7  1  0  0  0  0
  5  8  1  0  0  0  0
  8  9  1  0  0  0  0
  8 10  1  0  0  0  0
  8 11  1  0  0  0  0
 11 12  1  0  0  0  0
 11 13  1  0  0  0  0
 11 14  1  0  0  0  0
 14 15  1  0  0  0  0
 14 16  1  0  0  0  0
 14 17  1  0  0  0  0
 17 18  1  0  0  0  0
 17 19  1  0  0  0  0
 17 20  1  0  0  0  0
 20 21  1  0  0  0  0
 20 22  1  0  0  0  0
 22 23  1  0  0  0  0
 22 24  1  0  0  0  0
 22 25  1  0  0  0  0
 20 26  1  0  0  0  0
 26 27  1  0  0  0  0
 26 28  1  0  0  0  0
 26 29  1  0  0  0  0
M  END
> <VConfSearch Rank>
258

> <Conf_Id>
163

> <Delta U+W>
3.309

> <U+W>
-24.517

> <U>
27.916

> <W>
-52.433

> <W(PB)>
-54.866

> <W(SA)>
2.433

> <Valence>
6.693

> <Coulomb>
20.015

> <VdW>
1.208

> <VdW6>
-10.294

> <VdW12>
11.503

> <Bond>
0.312

> <Angle>
1.939

> <Pdih>
4.441

> <Idih>
0.000

> <Tether>
0.000

$$$$
VeraChem MOL file


 29 28  0  0  0  0  0  0  0  0999 V2000     
   22.9969   17.3193   25.0473 C   0  0  0  0  0  0  0  0  0  0  0  0
   22.5601   16.5168   25.6558 H   0  0  0  0  0  0  0  0  0  0  0  0
   23.0304   16.9815   24.0043 H   0  0  0  0  0  0  0  0  0  0  0  0
   24.0329   17.4660   25.3791 H   0  0  0  0  0  0  0  0  0  0  0  0
   22.1916   18.6302   25.1956 C   0  0  0  0  0  0  0  0  0  0  0  0
   22.6265   19.4068   24.5510 H   0  0  0  0  0  0  0  0  0  0  0  0
   22.2965   18.9932   26.2275 H   0  0  0  0  0  0  0  0  0  0  0  0
   20.6852   18.4692   24.8784 C   0  0  0  0  0  0  0  0  0  0  0  0
   20.2539   17.6950   25.5277 H   0  0  0  0  0  0  0  0  0  0  0  0
   20.1825   19.4092   25.1399 H   0  0  0  0  0  0  0  0  0  0  0  0
   20.4010   18.1252   23.3943 C   0  0  0  0  0  0  0  0  0  0  0  0
   20.9055   17.1856   23.1348 H   0  0  0  0  0  0  0  0  0  0  0  0
   20.8411   18.8944   22.7461 H   0  0  0  0  0  0  0  0  0  0  0  0
   18.8925   17.9578   23.0754 C   0  0  0  0  0  0  0  0  0  0  0  0
   18.7840   17.6595   22.0240 H   0  0  0  0  0  0  0  0  0  0  0  0
   18.4942   17.1189   23.6627 H   0  0  0  0  0  0  0  0  0  0  0  0
   18.0200   19.2130   23.3446 C   0  0  0  0  0  0  0  0  0  0  0  0
   17.9682   19.3914   24.4263 H   0  0  0  0  0  0  0  0  0  0  0  0
   16.9898   19.0053   23.0266 H   0  0  0  0  0  0  0  0  0  0  0  0
   18.5227   20.4937   22.6424 C   0  0  2  0  0  0  0  0  0  0  0  0
   19.5476   20.6873   22.9728 H   0  0  0  0  0  0  0  0  0  0  0  0
   17.6551   21.6984   23.0391 C   0  0  0  0  0  0  0  0  0  0  0  0
   18.0305   22.6175   22.5725 H   0  0  0  0  0  0  0  0  0  0  0  0
   16.6129   21.5573   22.7266 H   0  0  0  0  0  0  0  0  0  0  0  0
   17.6689   21.8471   24.1260 H   0  0  0  0  0  0  0  0  0  0  0  0
   18.5699   20.3431   21.1467 N   0  3  0  0  0  0  0  0  0  0  0  0
   19.1701   19.5609   20.8718 H   0  0  0  0  0  0  0  0  0  0  0  0
   18.9357   21.1867   20.6961 H   0  0  0  0  0  0  0  0  0  0  0  0
   17.6384   20.1679   20.7608 H   0  0  0  0  0  0  0  0  0  0  0  0
  1  2  1  0  0  0  0
  1  3  1  0  0  0  0
  1  4  1  0  0  0  0
  1  5  1  0  0  0  0
  5  6  1  0  0  0  0
  5  7  1  0  0  0  0
  5  8  1  0  0  0  0
  8  9  1  0  0  0  0
  8 10  1  0  0  0  0
  8 11  1  0  0  0  0
 11 12  1  0  0  0  0
 11 13  1  0  0  0  0
 11 14  1  0  0  0  0
 14 15  1  0  0  0  0
 14 16  1  0  0  0  0
 14 17  1  0  0  0  0
 17 18  1  0  0  0  0
 17 19  1  0  0  0  0
 17 20  1  0  0  0  0
 20 21  1  0  0  0  0
 20 22  1  0  0  0  0
 22 23  1  0  0  0  0
 22 24  1  0  0  0  0
 22 25  1  0  0  0  0
 20 26  1  0  0  0  0
 26 27  1  0  0  0  0
 26 28  1  0  0  0  0
 26 29  1  0  0  0  0
M  END
> <VConfSearch Rank>
259

> <Conf_Id>
173

> <Delta U+W>
1.363

> <U+W>
-26.462

> <U>
25.816

> <W>
-52.279

> <W(PB)>
-54.727

> <W(SA)>
2.449

> <Valence>
4.504

> <Coulomb>
20.342

> <VdW>
0.971

> <VdW6>
-10.532

> <VdW12>
11.503

> <Bond>
0.307

> <Angle>
1.715

> <Pdih>
2.481

> <Idih>
0.000

> <Tether>
0.000

$$$$
VeraChem MOL file


 29 28  0  0  0  0  0  0  0  0999 V2000     
   22.0406   16.5382   25.4230 C   0  0  0  0  0  0  0  0  0  0  0  0
   22.5556   17.2475   26.0840 H   0  0  0  0  0  0  0  0  0  0  0  0
   21.6569   15.7140   26.0384 H   0  0  0  0  0  0  0  0  0  0  0  0
   22.7835   16.1231   24.7296 H   0  0  0  0  0  0  0  0  0  0  0  0
   20.8995   17.2308   24.6484 C   0  0  0  0  0  0  0  0  0  0  0  0
   20.4212   16.5040   23.9772 H   0  0  0  0  0  0  0  0  0  0  0  0
   21.3287   18.0214   24.0190 H   0  0  0  0  0  0  0  0  0  0  0  0
   19.8451   17.8333   25.6046 C   0  0  0  0  0  0  0  0  0  0  0  0
   19.5137   17.0553   26.3062 H   0  0  0  0  0  0  0  0  0  0  0  0
   20.3137   18.6164   26.2165 H   0  0  0  0  0  0  0  0  0  0  0  0
   18.5939   18.4139   24.8961 C   0  0  0  0  0  0  0  0  0  0  0  0
   17.9088   18.7718   25.6771 H   0  0  0  0  0  0  0  0  0  0  0  0
   18.0521   17.6146   24.3719 H   0  0  0  0  0  0  0  0  0  0  0  0
   18.8852   19.5924   23.9308 C   0  0  0  0  0  0  0  0  0  0  0  0
   18.0587   20.3109   24.0097 H   0  0  0  0  0  0  0  0  0  0  0  0
   19.7852   20.1251   24.2637 H   0  0  0  0  0  0  0  0  0  0  0  0
   19.0147   19.1482   22.4472 C   0  0  0  0  0  0  0  0  0  0  0  0
   18.0771   18.6686   22.1369 H   0  0  0  0  0  0  0  0  0  0  0  0
   19.7876   18.3781   22.3466 H   0  0  0  0  0  0  0  0  0  0  0  0
   19.3287   20.2898   21.4519 C   0  0  2  0  0  0  0  0  0  0  0  0
   19.3295   19.8541   20.4479 H   0  0  0  0  0  0  0  0  0  0  0  0
   20.7207   20.8994   21.6938 C   0  0  0  0  0  0  0  0  0  0  0  0
   21.4918   20.1191   21.7043 H   0  0  0  0  0  0  0  0  0  0  0  0
   20.9737   21.6058   20.8937 H   0  0  0  0  0  0  0  0  0  0  0  0
   20.7674   21.4418   22.6454 H   0  0  0  0  0  0  0  0  0  0  0  0
   18.2672   21.3549   21.4430 N   0  3  0  0  0  0  0  0  0  0  0  0
   17.3437   20.9628   21.2379 H   0  0  0  0  0  0  0  0  0  0  0  0
   18.4604   22.0699   20.7358 H   0  0  0  0  0  0  0  0  0  0  0  0
   18.2080   21.8268   22.3488 H   0  0  0  0  0  0  0  0  0  0  0  0
  1  2  1  0  0  0  0
  1  3  1  0  0  0  0
  1  4  1  0  0  0  0
  1  5  1  0  0  0  0
  5  6  1  0  0  0  0
  5  7  1  0  0  0  0
  5  8  1  0  0  0  0
  8  9  1  0  0  0  0
  8 10  1  0  0  0  0
  8 11  1  0  0  0  0
 11 12  1  0  0  0  0
 11 13  1  0  0  0  0
 11 14  1  0  0  0  0
 14 15  1  0  0  0  0
 14 16  1  0  0  0  0
 14 17  1  0  0  0  0
 17 18  1  0  0  0  0
 17 19  1  0  0  0  0
 17 20  1  0  0  0  0
 20 21  1  0  0  0  0
 20 22  1  0  0  0  0
 22 23  1  0  0  0  0
 22 24  1  0  0  0  0
 22 25  1  0  0  0  0
 20 26  1  0  0  0  0
 26 27  1  0  0  0  0
 26 28  1  0  0  0  0
 26 29  1  0  0  0  0
M  END
> <VConfSearch Rank>
260

> <Conf_Id>
117

> <Delta U+W>
3.377

> <U+W>
-24.449

> <U>
27.947

> <W>
-52.396

> <W(PB)>
-54.842

> <W(SA)>
2.447

> <Valence>
6.731

> <Coulomb>
20.067

> <VdW>
1.149

> <VdW6>
-10.427

> <VdW12>
11.575

> <Bond>
0.324

> <Angle>
1.943

> <Pdih>
4.465

> <Idih>
0.000

> <Tether>
0.000

$$$$
VeraChem MOL file


 29 28  0  0  0  0  0  0  0  0999 V2000     
   24.5507   19.4111   24.1755 C   0  0  0  0  0  0  0  0  0  0  0  0
   24.6191   20.3948   23.6930 H   0  0  0  0  0  0  0  0  0  0  0  0
   24.4897   19.5659   25.2607 H   0  0  0  0  0  0  0  0  0  0  0  0
   25.4802   18.8666   23.9644 H   0  0  0  0  0  0  0  0  0  0  0  0
   23.3284   18.6235   23.6582 C   0  0  0  0  0  0  0  0  0  0  0  0
   23.3057   17.6325   24.1329 H   0  0  0  0  0  0  0  0  0  0  0  0
   23.4340   18.4550   22.5773 H   0  0  0  0  0  0  0  0  0  0  0  0
   22.0057   19.3686   23.9430 C   0  0  0  0  0  0  0  0  0  0  0  0
   21.9056   19.5368   25.0243 H   0  0  0  0  0  0  0  0  0  0  0  0
   22.0341   20.3593   23.4685 H   0  0  0  0  0  0  0  0  0  0  0  0
   20.7793   18.5829   23.4265 C   0  0  0  0  0  0  0  0  0  0  0  0
   20.7530   17.5920   23.9007 H   0  0  0  0  0  0  0  0  0  0  0  0
   20.8800   18.4154   22.3451 H   0  0  0  0  0  0  0  0  0  0  0  0
   19.4562   19.3284   23.7123 C   0  0  0  0  0  0  0  0  0  0  0  0
   19.3546   19.4923   24.7942 H   0  0  0  0  0  0  0  0  0  0  0  0
   19.4928   20.3194   23.2408 H   0  0  0  0  0  0  0  0  0  0  0  0
   18.2296   18.5398   23.1928 C   0  0  0  0  0  0  0  0  0  0  0  0
   18.2416   17.5340   23.6337 H   0  0  0  0  0  0  0  0  0  0  0  0
   18.3070   18.4063   22.1055 H   0  0  0  0  0  0  0  0  0  0  0  0
   16.8865   19.2184   23.5385 C   0  0  2  0  0  0  0  0  0  0  0  0
   16.8437   19.3620   24.6225 H   0  0  0  0  0  0  0  0  0  0  0  0
   15.7110   18.3190   23.1239 C   0  0  0  0  0  0  0  0  0  0  0  0
   14.7541   18.7789   23.3998 H   0  0  0  0  0  0  0  0  0  0  0  0
   15.7071   18.1450   22.0406 H   0  0  0  0  0  0  0  0  0  0  0  0
   15.7691   17.3453   23.6262 H   0  0  0  0  0  0  0  0  0  0  0  0
   16.7527   20.5810   22.9153 N   0  3  0  0  0  0  0  0  0  0  0  0
   17.5051   21.2056   23.2176 H   0  0  0  0  0  0  0  0  0  0  0  0
   15.8654   21.0237   23.1711 H   0  0  0  0  0  0  0  0  0  0  0  0
   16.7862   20.5288   21.8937 H   0  0  0  0  0  0  0  0  0  0  0  0
  1  2  1  0  0  0  0
  1  3  1  0  0  0  0
  1  4  1  0  0  0  0
  1  5  1  0  0  0  0
  5  6  1  0  0  0  0
  5  7  1  0  0  0  0
  5  8  1  0  0  0  0
  8  9  1  0  0  0  0
  8 10  1  0  0  0  0
  8 11  1  0  0  0  0
 11 12  1  0  0  0  0
 11 13  1  0  0  0  0
 11 14  1  0  0  0  0
 14 15  1  0  0  0  0
 14 16  1  0  0  0  0
 14 17  1  0  0  0  0
 17 18  1  0  0  0  0
 17 19  1  0  0  0  0
 17 20  1  0  0  0  0
 20 21  1  0  0  0  0
 20 22  1  0  0  0  0
 22 23  1  0  0  0  0
 22 24  1  0  0  0  0
 22 25  1  0  0  0  0
 20 26  1  0  0  0  0
 26 27  1  0  0  0  0
 26 28  1  0  0  0  0
 26 29  1  0  0  0  0
M  END
> <VConfSearch Rank>
261

> <Conf_Id>
164

> <Delta U+W>
0.000

> <U+W>
-27.826

> <U>
23.963

> <W>
-51.789

> <W(PB)>
-54.342

> <W(SA)>
2.554

> <Valence>
3.166

> <Coulomb>
19.734

> <VdW>
1.062

> <VdW6>
-7.938

> <VdW12>
9.001

> <Bond>
0.188

> <Angle>
0.880

> <Pdih>
2.098

> <Idih>
0.000

> <Tether>
0.000

$$$$
VeraChem MOL file


 29 28  0  0  0  0  0  0  0  0999 V2000     
   17.5785   15.3806   21.3558 C   0  0  0  0  0  0  0  0  0  0  0  0
   17.7665   14.6714   22.1725 H   0  0  0  0  0  0  0  0  0  0  0  0
   16.5815   15.8158   21.5035 H   0  0  0  0  0  0  0  0  0  0  0  0
   17.5635   14.8152   20.4150 H   0  0  0  0  0  0  0  0  0  0  0  0
   18.6623   16.4786   21.3144 C   0  0  0  0  0  0  0  0  0  0  0  0
   18.4667   17.1521   20.4682 H   0  0  0  0  0  0  0  0  0  0  0  0
   19.6426   16.0165   21.1319 H   0  0  0  0  0  0  0  0  0  0  0  0
   18.7045   17.2903   22.6279 C   0  0  0  0  0  0  0  0  0  0  0  0
   17.7219   17.7481   22.8071 H   0  0  0  0  0  0  0  0  0  0  0  0
   18.8980   16.6126   23.4710 H   0  0  0  0  0  0  0  0  0  0  0  0
   19.7887   18.3909   22.5901 C   0  0  0  0  0  0  0  0  0  0  0  0
   19.5943   19.0683   21.7470 H   0  0  0  0  0  0  0  0  0  0  0  0
   20.7704   17.9316   22.4095 H   0  0  0  0  0  0  0  0  0  0  0  0
   19.8309   19.2023   23.9048 C   0  0  0  0  0  0  0  0  0  0  0  0
   18.8437   19.6495   24.0800 H   0  0  0  0  0  0  0  0  0  0  0  0
   20.0303   18.5254   24.7471 H   0  0  0  0  0  0  0  0  0  0  0  0
   20.9148   20.3074   23.8625 C   0  0  0  0  0  0  0  0  0  0  0  0
   20.6829   21.0234   23.0628 H   0  0  0  0  0  0  0  0  0  0  0  0
   21.8749   19.8451   23.5974 H   0  0  0  0  0  0  0  0  0  0  0  0
   21.0886   21.0611   25.2009 C   0  0  2  0  0  0  0  0  0  0  0  0
   21.2769   20.3243   25.9878 H   0  0  0  0  0  0  0  0  0  0  0  0
   19.8343   21.8690   25.5795 C   0  0  0  0  0  0  0  0  0  0  0  0
   19.5670   22.5807   24.7885 H   0  0  0  0  0  0  0  0  0  0  0  0
   18.9749   21.2122   25.7563 H   0  0  0  0  0  0  0  0  0  0  0  0
   20.0042   22.4356   26.5034 H   0  0  0  0  0  0  0  0  0  0  0  0
   22.2936   21.9594   25.1641 N   0  3  0  0  0  0  0  0  0  0  0  0
   22.4360   22.4311   26.0619 H   0  0  0  0  0  0  0  0  0  0  0  0
   22.1970   22.6858   24.4494 H   0  0  0  0  0  0  0  0  0  0  0  0
   23.1487   21.4353   24.9567 H   0  0  0  0  0  0  0  0  0  0  0  0
  1  2  1  0  0  0  0
  1  3  1  0  0  0  0
  1  4  1  0  0  0  0
  1  5  1  0  0  0  0
  5  6  1  0  0  0  0
  5  7  1  0  0  0  0
  5  8  1  0  0  0  0
  8  9  1  0  0  0  0
  8 10  1  0  0  0  0
  8 11  1  0  0  0  0
 11 12  1  0  0  0  0
 11 13  1  0  0  0  0
 11 14  1  0  0  0  0
 14 15  1  0  0  0  0
 14 16  1  0  0  0  0
 14 17  1  0  0  0  0
 17 18  1  0  0  0  0
 17 19  1  0  0  0  0
 17 20  1  0  0  0  0
 20 21  1  0  0  0  0
 20 22  1  0  0  0  0
 22 23  1  0  0  0  0
 22 24  1  0  0  0  0
 22 25  1  0  0  0  0
 20 26  1  0  0  0  0
 26 27  1  0  0  0  0
 26 28  1  0  0  0  0
 26 29  1  0  0  0  0
M  END
> <VConfSearch Rank>
262

> <Conf_Id>
58

> <Delta U+W>
0.412

> <U+W>
-27.414

> <U>
24.279

> <W>
-51.694

> <W(PB)>
-54.271

> <W(SA)>
2.577

> <Valence>
3.709

> <Coulomb>
19.380

> <VdW>
1.191

> <VdW6>
-8.093

> <VdW12>
9.284

> <Bond>
0.200

> <Angle>
1.161

> <Pdih>
2.348

> <Idih>
0.000

> <Tether>
0.000

$$$$
VeraChem MOL file


 29 28  0  0  0  0  0  0  0  0999 V2000     
   16.6533   19.6056   19.9720 C   0  0  0  0  0  0  0  0  0  0  0  0
   16.3423   18.5541   20.0263 H   0  0  0  0  0  0  0  0  0  0  0  0
   15.9672   20.1976   20.5918 H   0  0  0  0  0  0  0  0  0  0  0  0
   16.5394   19.9375   18.9318 H   0  0  0  0  0  0  0  0  0  0  0  0
   18.1132   19.7772   20.4419 C   0  0  0  0  0  0  0  0  0  0  0  0
   18.4061   20.8320   20.3444 H   0  0  0  0  0  0  0  0  0  0  0  0
   18.7783   19.2012   19.7833 H   0  0  0  0  0  0  0  0  0  0  0  0
   18.3011   19.3169   21.9044 C   0  0  0  0  0  0  0  0  0  0  0  0
   17.6328   19.8939   22.5585 H   0  0  0  0  0  0  0  0  0  0  0  0
   18.0048   18.2629   21.9974 H   0  0  0  0  0  0  0  0  0  0  0  0
   19.7621   19.4870   22.3785 C   0  0  0  0  0  0  0  0  0  0  0  0
   20.0573   20.5412   22.2843 H   0  0  0  0  0  0  0  0  0  0  0  0
   20.4294   18.9100   21.7234 H   0  0  0  0  0  0  0  0  0  0  0  0
   19.9498   19.0262   23.8416 C   0  0  0  0  0  0  0  0  0  0  0  0
   19.2794   19.6053   24.4903 H   0  0  0  0  0  0  0  0  0  0  0  0
   19.6478   17.9741   23.9263 H   0  0  0  0  0  0  0  0  0  0  0  0
   21.4184   19.1962   24.3102 C   0  0  0  0  0  0  0  0  0  0  0  0
   21.7217   20.2425   24.1731 H   0  0  0  0  0  0  0  0  0  0  0  0
   22.0771   18.6035   23.6616 H   0  0  0  0  0  0  0  0  0  0  0  0
   21.6829   18.7999   25.7820 C   0  0  2  0  0  0  0  0  0  0  0  0
   22.7400   18.9964   25.9866 H   0  0  0  0  0  0  0  0  0  0  0  0
   21.4313   17.3029   26.0326 C   0  0  0  0  0  0  0  0  0  0  0  0
   21.7558   17.0235   27.0425 H   0  0  0  0  0  0  0  0  0  0  0  0
   20.3687   17.0489   25.9405 H   0  0  0  0  0  0  0  0  0  0  0  0
   21.9953   16.6880   25.3203 H   0  0  0  0  0  0  0  0  0  0  0  0
   20.9064   19.6464   26.7526 N   0  3  0  0  0  0  0  0  0  0  0  0
   21.1023   20.6430   26.6218 H   0  0  0  0  0  0  0  0  0  0  0  0
   21.1395   19.4131   27.7221 H   0  0  0  0  0  0  0  0  0  0  0  0
   19.8987   19.5123   26.6382 H   0  0  0  0  0  0  0  0  0  0  0  0
  1  2  1  0  0  0  0
  1  3  1  0  0  0  0
  1  4  1  0  0  0  0
  1  5  1  0  0  0  0
  5  6  1  0  0  0  0
  5  7  1  0  0  0  0
  5  8  1  0  0  0  0
  8  9  1  0  0  0  0
  8 10  1  0  0  0  0
  8 11  1  0  0  0  0
 11 12  1  0  0  0  0
 11 13  1  0  0  0  0
 11 14  1  0  0  0  0
 14 15  1  0  0  0  0
 14 16  1  0  0  0  0
 14 17  1  0  0  0  0
 17 18  1  0  0  0  0
 17 19  1  0  0  0  0
 17 20  1  0  0  0  0
 20 21  1  0  0  0  0
 20 22  1  0  0  0  0
 22 23  1  0  0  0  0
 22 24  1  0  0  0  0
 22 25  1  0  0  0  0
 20 26  1  0  0  0  0
 26 27  1  0  0  0  0
 26 28  1  0  0  0  0
 26 29  1  0  0  0  0
M  END
> <VConfSearch Rank>
263

> <Conf_Id>
137

> <Delta U+W>
0.280

> <U+W>
-27.546

> <U>
24.513

> <W>
-52.059

> <W(PB)>
-54.556

> <W(SA)>
2.497

> <Valence>
3.677

> <Coulomb>
19.662

> <VdW>
1.174

> <VdW6>
-8.569

> <VdW12>
9.743

> <Bond>
0.224

> <Angle>
1.211

> <Pdih>
2.243

> <Idih>
0.000

> <Tether>
0.000

$$$$
VeraChem MOL file


 29 28  0  0  0  0  0  0  0  0999 V2000     
   23.8706   17.9741   22.2615 C   0  0  0  0  0  0  0  0  0  0  0  0
   23.5759   17.0180   22.7133 H   0  0  0  0  0  0  0  0  0  0  0  0
   23.6238   17.9378   21.1924 H   0  0  0  0  0  0  0  0  0  0  0  0
   24.9605   18.0682   22.3528 H   0  0  0  0  0  0  0  0  0  0  0  0
   23.1617   19.1571   22.9544 C   0  0  0  0  0  0  0  0  0  0  0  0
   23.5029   20.1000   22.5045 H   0  0  0  0  0  0  0  0  0  0  0  0
   23.4533   19.1872   24.0136 H   0  0  0  0  0  0  0  0  0  0  0  0
   21.6250   19.0495   22.8398 C   0  0  0  0  0  0  0  0  0  0  0  0
   21.3387   19.0223   21.7794 H   0  0  0  0  0  0  0  0  0  0  0  0
   21.3003   18.0996   23.2834 H   0  0  0  0  0  0  0  0  0  0  0  0
   20.9136   20.2335   23.5383 C   0  0  0  0  0  0  0  0  0  0  0  0
   21.3162   21.1749   23.1394 H   0  0  0  0  0  0  0  0  0  0  0  0
   21.1498   20.2281   24.6114 H   0  0  0  0  0  0  0  0  0  0  0  0
   19.3769   20.2400   23.3448 C   0  0  0  0  0  0  0  0  0  0  0  0
   18.9931   21.1875   23.7437 H   0  0  0  0  0  0  0  0  0  0  0  0
   19.1415   20.2375   22.2715 H   0  0  0  0  0  0  0  0  0  0  0  0
   18.6593   19.0542   24.0411 C   0  0  0  0  0  0  0  0  0  0  0  0
   18.8860   19.0628   25.1154 H   0  0  0  0  0  0  0  0  0  0  0  0
   19.0587   18.1126   23.6456 H   0  0  0  0  0  0  0  0  0  0  0  0
   17.1272   19.0452   23.8333 C   0  0  2  0  0  0  0  0  0  0  0  0
   16.9260   19.0987   22.7590 H   0  0  0  0  0  0  0  0  0  0  0  0
   16.4383   20.2388   24.5193 C   0  0  0  0  0  0  0  0  0  0  0  0
   16.6681   20.2670   25.5917 H   0  0  0  0  0  0  0  0  0  0  0  0
   16.7509   21.1907   24.0751 H   0  0  0  0  0  0  0  0  0  0  0  0
   15.3491   20.1725   24.4069 H   0  0  0  0  0  0  0  0  0  0  0  0
   16.5237   17.7544   24.3133 N   0  3  0  0  0  0  0  0  0  0  0  0
   16.9347   16.9458   23.8376 H   0  0  0  0  0  0  0  0  0  0  0  0
   15.5144   17.7274   24.1424 H   0  0  0  0  0  0  0  0  0  0  0  0
   16.6669   17.6257   25.3186 H   0  0  0  0  0  0  0  0  0  0  0  0
  1  2  1  0  0  0  0
  1  3  1  0  0  0  0
  1  4  1  0  0  0  0
  1  5  1  0  0  0  0
  5  6  1  0  0  0  0
  5  7  1  0  0  0  0
  5  8  1  0  0  0  0
  8  9  1  0  0  0  0
  8 10  1  0  0  0  0
  8 11  1  0  0  0  0
 11 12  1  0  0  0  0
 11 13  1  0  0  0  0
 11 14  1  0  0  0  0
 14 15  1  0  0  0  0
 14 16  1  0  0  0  0
 14 17  1  0  0  0  0
 17 18  1  0  0  0  0
 17 19  1  0  0  0  0
 17 20  1  0  0  0  0
 20 21  1  0  0  0  0
 20 22  1  0  0  0  0
 22 23  1  0  0  0  0
 22 24  1  0  0  0  0
 22 25  1  0  0  0  0
 20 26  1  0  0  0  0
 26 27  1  0  0  0  0
 26 28  1  0  0  0  0
 26 29  1  0  0  0  0
M  END
> <VConfSearch Rank>
264

> <Conf_Id>
40

> <Delta U+W>
1.128

> <U+W>
-26.698

> <U>
25.442

> <W>
-52.140

> <W(PB)>
-54.658

> <W(SA)>
2.519

> <Valence>
4.343

> <Coulomb>
19.740

> <VdW>
1.360

> <VdW6>
-8.739

> <VdW12>
10.099

> <Bond>
0.251

> <Angle>
1.483

> <Pdih>
2.608

> <Idih>
0.000

> <Tether>
0.000

$$$$
VeraChem MOL file


 29 28  0  0  0  0  0  0  0  0999 V2000     
   19.3179   21.9472   26.7998 C   0  0  0  0  0  0  0  0  0  0  0  0
   19.7489   21.0791   27.3135 H   0  0  0  0  0  0  0  0  0  0  0  0
   20.1406   22.5847   26.4507 H   0  0  0  0  0  0  0  0  0  0  0  0
   18.7437   22.5169   27.5418 H   0  0  0  0  0  0  0  0  0  0  0  0
   18.4086   21.5203   25.6251 C   0  0  0  0  0  0  0  0  0  0  0  0
   17.9028   22.4121   25.2294 H   0  0  0  0  0  0  0  0  0  0  0  0
   17.6150   20.8554   25.9937 H   0  0  0  0  0  0  0  0  0  0  0  0
   19.1739   20.8317   24.4691 C   0  0  0  0  0  0  0  0  0  0  0  0
   18.4739   20.6960   23.6351 H   0  0  0  0  0  0  0  0  0  0  0  0
   19.9656   21.5005   24.1045 H   0  0  0  0  0  0  0  0  0  0  0  0
   19.7851   19.4629   24.8635 C   0  0  0  0  0  0  0  0  0  0  0  0
   18.9928   18.7918   25.2228 H   0  0  0  0  0  0  0  0  0  0  0  0
   20.4760   19.6027   25.7047 H   0  0  0  0  0  0  0  0  0  0  0  0
   20.5661   18.7765   23.7155 C   0  0  0  0  0  0  0  0  0  0  0  0
   21.3455   19.4561   23.3438 H   0  0  0  0  0  0  0  0  0  0  0  0
   21.0891   17.9075   24.1357 H   0  0  0  0  0  0  0  0  0  0  0  0
   19.6665   18.3177   22.5387 C   0  0  0  0  0  0  0  0  0  0  0  0
   19.1661   19.1902   22.1015 H   0  0  0  0  0  0  0  0  0  0  0  0
   18.8748   17.6549   22.9125 H   0  0  0  0  0  0  0  0  0  0  0  0
   20.4566   17.6024   21.4211 C   0  0  2  0  0  0  0  0  0  0  0  0
   21.2614   18.2664   21.0910 H   0  0  0  0  0  0  0  0  0  0  0  0
   19.5422   17.3178   20.2187 C   0  0  0  0  0  0  0  0  0  0  0  0
   20.1052   16.8409   19.4070 H   0  0  0  0  0  0  0  0  0  0  0  0
   18.7150   16.6530   20.4977 H   0  0  0  0  0  0  0  0  0  0  0  0
   19.1147   18.2483   19.8248 H   0  0  0  0  0  0  0  0  0  0  0  0
   21.1091   16.3329   21.8963 N   0  3  0  0  0  0  0  0  0  0  0  0
   20.4146   15.6578   22.2271 H   0  0  0  0  0  0  0  0  0  0  0  0
   21.7577   16.5117   22.6676 H   0  0  0  0  0  0  0  0  0  0  0  0
   21.6417   15.8828   21.1464 H   0  0  0  0  0  0  0  0  0  0  0  0
  1  2  1  0  0  0  0
  1  3  1  0  0  0  0
  1  4  1  0  0  0  0
  1  5  1  0  0  0  0
  5  6  1  0  0  0  0
  5  7  1  0  0  0  0
  5  8  1  0  0  0  0
  8  9  1  0  0  0  0
  8 10  1  0  0  0  0
  8 11  1  0  0  0  0
 11 12  1  0  0  0  0
 11 13  1  0  0  0  0
 11 14  1  0  0  0  0
 14 15  1  0  0  0  0
 14 16  1  0  0  0  0
 14 17  1  0  0  0  0
 17 18  1  0  0  0  0
 17 19  1  0  0  0  0
 17 20  1  0  0  0  0
 20 21  1  0  0  0  0
 20 22  1  0  0  0  0
 22 23  1  0  0  0  0
 22 24  1  0  0  0  0
 22 25  1  0  0  0  0
 20 26  1  0  0  0  0
 26 27  1  0  0  0  0
 26 28  1  0  0  0  0
 26 29  1  0  0  0  0
M  END
> <VConfSearch Rank>
265

> <Conf_Id>
134

> <Delta U+W>
1.228

> <U+W>
-26.598

> <U>
25.451

> <W>
-52.048

> <W(PB)>
-54.539

> <W(SA)>
2.490

> <Valence>
4.319

> <Coulomb>
19.732

> <VdW>
1.400

> <VdW6>
-9.173

> <VdW12>
10.573

> <Bond>
0.281

> <Angle>
1.459

> <Pdih>
2.580

> <Idih>
0.000

> <Tether>
0.000

$$$$
VeraChem MOL file


 29 28  0  0  0  0  0  0  0  0999 V2000     
   23.8698   19.5930   22.1792 C   0  0  0  0  0  0  0  0  0  0  0  0
   23.5143   18.9090   21.3989 H   0  0  0  0  0  0  0  0  0  0  0  0
   23.6599   20.6215   21.8578 H   0  0  0  0  0  0  0  0  0  0  0  0
   24.9595   19.4782   22.2459 H   0  0  0  0  0  0  0  0  0  0  0  0
   23.2104   19.2917   23.5442 C   0  0  0  0  0  0  0  0  0  0  0  0
   23.6914   19.9131   24.3125 H   0  0  0  0  0  0  0  0  0  0  0  0
   23.4052   18.2478   23.8271 H   0  0  0  0  0  0  0  0  0  0  0  0
   21.6871   19.5655   23.5685 C   0  0  0  0  0  0  0  0  0  0  0  0
   21.3398   19.4552   24.6038 H   0  0  0  0  0  0  0  0  0  0  0  0
   21.4980   20.6105   23.2872 H   0  0  0  0  0  0  0  0  0  0  0  0
   20.8758   18.6200   22.6466 C   0  0  0  0  0  0  0  0  0  0  0  0
   21.0639   17.5752   22.9291 H   0  0  0  0  0  0  0  0  0  0  0  0
   21.2269   18.7283   21.6123 H   0  0  0  0  0  0  0  0  0  0  0  0
   19.3523   18.8974   22.6657 C   0  0  0  0  0  0  0  0  0  0  0  0
   19.1742   19.9389   22.3669 H   0  0  0  0  0  0  0  0  0  0  0  0
   18.8751   18.2685   21.9013 H   0  0  0  0  0  0  0  0  0  0  0  0
   18.6884   18.6121   24.0376 C   0  0  0  0  0  0  0  0  0  0  0  0
   19.0462   19.3293   24.7870 H   0  0  0  0  0  0  0  0  0  0  0  0
   19.0036   17.6174   24.3793 H   0  0  0  0  0  0  0  0  0  0  0  0
   17.1439   18.6490   23.9957 C   0  0  2  0  0  0  0  0  0  0  0  0
   16.8049   17.9547   23.2208 H   0  0  0  0  0  0  0  0  0  0  0  0
   16.6076   20.0524   23.6610 C   0  0  0  0  0  0  0  0  0  0  0  0
   16.9702   20.7977   24.3799 H   0  0  0  0  0  0  0  0  0  0  0  0
   16.9134   20.3666   22.6563 H   0  0  0  0  0  0  0  0  0  0  0  0
   15.5109   20.0626   23.6844 H   0  0  0  0  0  0  0  0  0  0  0  0
   16.5540   18.1612   25.2897 N   0  3  0  0  0  0  0  0  0  0  0  0
   16.8642   17.2105   25.5108 H   0  0  0  0  0  0  0  0  0  0  0  0
   15.5307   18.1466   25.2521 H   0  0  0  0  0  0  0  0  0  0  0  0
   16.8222   18.7626   26.0734 H   0  0  0  0  0  0  0  0  0  0  0  0
  1  2  1  0  0  0  0
  1  3  1  0  0  0  0
  1  4  1  0  0  0  0
  1  5  1  0  0  0  0
  5  6  1  0  0  0  0
  5  7  1  0  0  0  0
  5  8  1  0  0  0  0
  8  9  1  0  0  0  0
  8 10  1  0  0  0  0
  8 11  1  0  0  0  0
 11 12  1  0  0  0  0
 11 13  1  0  0  0  0
 11 14  1  0  0  0  0
 14 15  1  0  0  0  0
 14 16  1  0  0  0  0
 14 17  1  0  0  0  0
 17 18  1  0  0  0  0
 17 19  1  0  0  0  0
 17 20  1  0  0  0  0
 20 21  1  0  0  0  0
 20 22  1  0  0  0  0
 22 23  1  0  0  0  0
 22 24  1  0  0  0  0
 22 25  1  0  0  0  0
 20 26  1  0  0  0  0
 26 27  1  0  0  0  0
 26 28  1  0  0  0  0
 26 29  1  0  0  0  0
M  END
> <VConfSearch Rank>
266

> <Conf_Id>
73

> <Delta U+W>
1.580

> <U+W>
-26.246

> <U>
25.821

> <W>
-52.067

> <W(PB)>
-54.581

> <W(SA)>
2.514

> <Valence>
4.779

> <Coulomb>
19.614

> <VdW>
1.428

> <VdW6>
-9.390

> <VdW12>
10.818

> <Bond>
0.283

> <Angle>
1.640

> <Pdih>
2.856

> <Idih>
0.000

> <Tether>
0.000

$$$$
VeraChem MOL file


 29 28  0  0  0  0  0  0  0  0999 V2000     
   20.9314   15.6423   26.1344 C   0  0  0  0  0  0  0  0  0  0  0  0
   21.4105   16.4355   26.7231 H   0  0  0  0  0  0  0  0  0  0  0  0
   20.6430   14.8383   26.8239 H   0  0  0  0  0  0  0  0  0  0  0  0
   21.6759   15.2371   25.4366 H   0  0  0  0  0  0  0  0  0  0  0  0
   19.6981   16.1804   25.3785 C   0  0  0  0  0  0  0  0  0  0  0  0
   18.9581   16.5482   26.1031 H   0  0  0  0  0  0  0  0  0  0  0  0
   19.2209   15.3576   24.8279 H   0  0  0  0  0  0  0  0  0  0  0  0
   20.0767   17.3137   24.3995 C   0  0  0  0  0  0  0  0  0  0  0  0
   20.5608   18.1231   24.9611 H   0  0  0  0  0  0  0  0  0  0  0  0
   20.8144   16.9403   23.6759 H   0  0  0  0  0  0  0  0  0  0  0  0
   18.8395   17.8570   23.6447 C   0  0  0  0  0  0  0  0  0  0  0  0
   18.1257   18.2851   24.3620 H   0  0  0  0  0  0  0  0  0  0  0  0
   18.3222   17.0180   23.1591 H   0  0  0  0  0  0  0  0  0  0  0  0
   19.1833   18.9104   22.5629 C   0  0  0  0  0  0  0  0  0  0  0  0
   19.8949   18.4802   21.8445 H   0  0  0  0  0  0  0  0  0  0  0  0
   18.2671   19.1274   21.9983 H   0  0  0  0  0  0  0  0  0  0  0  0
   19.7587   20.2283   23.1428 C   0  0  0  0  0  0  0  0  0  0  0  0
   20.6877   20.0115   23.6842 H   0  0  0  0  0  0  0  0  0  0  0  0
   19.0577   20.6493   23.8757 H   0  0  0  0  0  0  0  0  0  0  0  0
   20.0658   21.2807   22.0551 C   0  0  2  0  0  0  0  0  0  0  0  0
   20.7357   20.8270   21.3182 H   0  0  0  0  0  0  0  0  0  0  0  0
   20.7787   22.4945   22.6724 C   0  0  0  0  0  0  0  0  0  0  0  0
   21.7133   22.1914   23.1606 H   0  0  0  0  0  0  0  0  0  0  0  0
   21.0312   23.2310   21.8996 H   0  0  0  0  0  0  0  0  0  0  0  0
   20.1464   22.9878   23.4213 H   0  0  0  0  0  0  0  0  0  0  0  0
   18.8341   21.7181   21.3103 N   0  3  0  0  0  0  0  0  0  0  0  0
   19.0603   22.4022   20.5826 H   0  0  0  0  0  0  0  0  0  0  0  0
   18.1530   22.1526   21.9386 H   0  0  0  0  0  0  0  0  0  0  0  0
   18.3723   20.9270   20.8537 H   0  0  0  0  0  0  0  0  0  0  0  0
  1  2  1  0  0  0  0
  1  3  1  0  0  0  0
  1  4  1  0  0  0  0
  1  5  1  0  0  0  0
  5  6  1  0  0  0  0
  5  7  1  0  0  0  0
  5  8  1  0  0  0  0
  8  9  1  0  0  0  0
  8 10  1  0  0  0  0
  8 11  1  0  0  0  0
 11 12  1  0  0  0  0
 11 13  1  0  0  0  0
 11 14  1  0  0  0  0
 14 15  1  0  0  0  0
 14 16  1  0  0  0  0
 14 17  1  0  0  0  0
 17 18  1  0  0  0  0
 17 19  1  0  0  0  0
 17 20  1  0  0  0  0
 20 21  1  0  0  0  0
 20 22  1  0  0  0  0
 22 23  1  0  0  0  0
 22 24  1  0  0  0  0
 22 25  1  0  0  0  0
 20 26  1  0  0  0  0
 26 27  1  0  0  0  0
 26 28  1  0  0  0  0
 26 29  1  0  0  0  0
M  END
> <VConfSearch Rank>
267

> <Conf_Id>
111

> <Delta U+W>
0.580

> <U+W>
-27.246

> <U>
24.710

> <W>
-51.957

> <W(PB)>
-54.511

> <W(SA)>
2.555

> <Valence>
3.735

> <Coulomb>
19.760

> <VdW>
1.216

> <VdW6>
-8.624

> <VdW12>
9.840

> <Bond>
0.236

> <Angle>
1.168

> <Pdih>
2.330

> <Idih>
0.000

> <Tether>
0.000

$$$$
VeraChem MOL file


 29 28  0  0  0  0  0  0  0  0999 V2000     
   22.0143   22.3132   21.6439 C   0  0  0  0  0  0  0  0  0  0  0  0
   21.3721   23.0885   22.0817 H   0  0  0  0  0  0  0  0  0  0  0  0
   22.7486   22.0094   22.4014 H   0  0  0  0  0  0  0  0  0  0  0  0
   22.5616   22.7628   20.8052 H   0  0  0  0  0  0  0  0  0  0  0  0
   21.1794   21.1066   21.1654 C   0  0  0  0  0  0  0  0  0  0  0  0
   21.8441   20.3634   20.7032 H   0  0  0  0  0  0  0  0  0  0  0  0
   20.4791   21.4350   20.3847 H   0  0  0  0  0  0  0  0  0  0  0  0
   20.3977   20.4551   22.3276 C   0  0  0  0  0  0  0  0  0  0  0  0
   21.1072   20.1400   23.1039 H   0  0  0  0  0  0  0  0  0  0  0  0
   19.7335   21.2011   22.7852 H   0  0  0  0  0  0  0  0  0  0  0  0
   19.5633   19.2426   21.8497 C   0  0  0  0  0  0  0  0  0  0  0  0
   20.2305   18.4724   21.4387 H   0  0  0  0  0  0  0  0  0  0  0  0
   18.9123   19.5593   21.0231 H   0  0  0  0  0  0  0  0  0  0  0  0
   18.6796   18.6250   22.9611 C   0  0  0  0  0  0  0  0  0  0  0  0
   17.9952   19.3940   23.3429 H   0  0  0  0  0  0  0  0  0  0  0  0
   18.0509   17.8434   22.5126 H   0  0  0  0  0  0  0  0  0  0  0  0
   19.4964   18.0091   24.1262 C   0  0  0  0  0  0  0  0  0  0  0  0
   20.0247   18.7988   24.6752 H   0  0  0  0  0  0  0  0  0  0  0  0
   20.2672   17.3509   23.7040 H   0  0  0  0  0  0  0  0  0  0  0  0
   18.6390   17.1875   25.1155 C   0  0  2  0  0  0  0  0  0  0  0  0
   18.0926   16.4282   24.5475 H   0  0  0  0  0  0  0  0  0  0  0  0
   17.6189   18.0643   25.8636 C   0  0  0  0  0  0  0  0  0  0  0  0
   18.1167   18.8798   26.4029 H   0  0  0  0  0  0  0  0  0  0  0  0
   16.8891   18.5034   25.1736 H   0  0  0  0  0  0  0  0  0  0  0  0
   17.0575   17.4672   26.5927 H   0  0  0  0  0  0  0  0  0  0  0  0
   19.5036   16.4437   26.0951 N   0  3  0  0  0  0  0  0  0  0  0  0
   20.1622   15.8203   25.6192 H   0  0  0  0  0  0  0  0  0  0  0  0
   18.9411   15.8669   26.7272 H   0  0  0  0  0  0  0  0  0  0  0  0
   20.0512   17.0863   26.6738 H   0  0  0  0  0  0  0  0  0  0  0  0
  1  2  1  0  0  0  0
  1  3  1  0  0  0  0
  1  4  1  0  0  0  0
  1  5  1  0  0  0  0
  5  6  1  0  0  0  0
  5  7  1  0  0  0  0
  5  8  1  0  0  0  0
  8  9  1  0  0  0  0
  8 10  1  0  0  0  0
  8 11  1  0  0  0  0
 11 12  1  0  0  0  0
 11 13  1  0  0  0  0
 11 14  1  0  0  0  0
 14 15  1  0  0  0  0
 14 16  1  0  0  0  0
 14 17  1  0  0  0  0
 17 18  1  0  0  0  0
 17 19  1  0  0  0  0
 17 20  1  0  0  0  0
 20 21  1  0  0  0  0
 20 22  1  0  0  0  0
 22 23  1  0  0  0  0
 22 24  1  0  0  0  0
 22 25  1  0  0  0  0
 20 26  1  0  0  0  0
 26 27  1  0  0  0  0
 26 28  1  0  0  0  0
 26 29  1  0  0  0  0
M  END
> <VConfSearch Rank>
268

> <Conf_Id>
39

> <Delta U+W>
0.965

> <U+W>
-26.861

> <U>
25.129

> <W>
-51.990

> <W(PB)>
-54.526

> <W(SA)>
2.536

> <Valence>
4.206

> <Coulomb>
19.678

> <VdW>
1.245

> <VdW6>
-8.834

> <VdW12>
10.079

> <Bond>
0.240

> <Angle>
1.353

> <Pdih>
2.613

> <Idih>
0.000

> <Tether>
0.000

$$$$
VeraChem MOL file


 29 28  0  0  0  0  0  0  0  0999 V2000     
   17.6945   17.3775   26.8147 C   0  0  0  0  0  0  0  0  0  0  0  0
   16.8340   17.1433   26.1746 H   0  0  0  0  0  0  0  0  0  0  0  0
   18.4823   16.6405   26.6161 H   0  0  0  0  0  0  0  0  0  0  0  0
   17.3805   17.2502   27.8588 H   0  0  0  0  0  0  0  0  0  0  0  0
   18.1910   18.8210   26.5723 C   0  0  0  0  0  0  0  0  0  0  0  0
   19.0728   19.0193   27.1975 H   0  0  0  0  0  0  0  0  0  0  0  0
   17.4133   19.5217   26.9069 H   0  0  0  0  0  0  0  0  0  0  0  0
   18.5219   19.1202   25.0900 C   0  0  0  0  0  0  0  0  0  0  0  0
   17.6373   18.9213   24.4697 H   0  0  0  0  0  0  0  0  0  0  0  0
   18.7289   20.1941   25.0001 H   0  0  0  0  0  0  0  0  0  0  0  0
   19.7306   18.3121   24.5528 C   0  0  0  0  0  0  0  0  0  0  0  0
   19.5241   17.2387   24.6516 H   0  0  0  0  0  0  0  0  0  0  0  0
   20.6164   18.5145   25.1704 H   0  0  0  0  0  0  0  0  0  0  0  0
   20.0567   18.6002   23.0665 C   0  0  0  0  0  0  0  0  0  0  0  0
   20.8266   17.8876   22.7431 H   0  0  0  0  0  0  0  0  0  0  0  0
   19.1668   18.3929   22.4576 H   0  0  0  0  0  0  0  0  0  0  0  0
   20.5539   20.0496   22.8121 C   0  0  0  0  0  0  0  0  0  0  0  0
   21.3707   20.2794   23.5087 H   0  0  0  0  0  0  0  0  0  0  0  0
   19.7511   20.7619   23.0392 H   0  0  0  0  0  0  0  0  0  0  0  0
   21.0475   20.3225   21.3716 C   0  0  2  0  0  0  0  0  0  0  0  0
   21.3733   21.3665   21.3320 H   0  0  0  0  0  0  0  0  0  0  0  0
   19.9259   20.1447   20.3336 C   0  0  0  0  0  0  0  0  0  0  0  0
   19.6116   19.0974   20.2521 H   0  0  0  0  0  0  0  0  0  0  0  0
   19.0488   20.7475   20.6003 H   0  0  0  0  0  0  0  0  0  0  0  0
   20.2649   20.4710   19.3427 H   0  0  0  0  0  0  0  0  0  0  0  0
   22.2519   19.4974   21.0101 N   0  3  0  0  0  0  0  0  0  0  0  0
   23.0190   19.6427   21.6727 H   0  0  0  0  0  0  0  0  0  0  0  0
   22.6028   19.7362   20.0782 H   0  0  0  0  0  0  0  0  0  0  0  0
   22.0309   18.4986   21.0083 H   0  0  0  0  0  0  0  0  0  0  0  0
  1  2  1  0  0  0  0
  1  3  1  0  0  0  0
  1  4  1  0  0  0  0
  1  5  1  0  0  0  0
  5  6  1  0  0  0  0
  5  7  1  0  0  0  0
  5  8  1  0  0  0  0
  8  9  1  0  0  0  0
  8 10  1  0  0  0  0
  8 11  1  0  0  0  0
 11 12  1  0  0  0  0
 11 13  1  0  0  0  0
 11 14  1  0  0  0  0
 14 15  1  0  0  0  0
 14 16  1  0  0  0  0
 14 17  1  0  0  0  0
 17 18  1  0  0  0  0
 17 19  1  0  0  0  0
 17 20  1  0  0  0  0
 20 21  1  0  0  0  0
 20 22  1  0  0  0  0
 22 23  1  0  0  0  0
 22 24  1  0  0  0  0
 22 25  1  0  0  0  0
 20 26  1  0  0  0  0
 26 27  1  0  0  0  0
 26 28  1  0  0  0  0
 26 29  1  0  0  0  0
M  END
> <VConfSearch Rank>
269

> <Conf_Id>
155

> <Delta U+W>
1.624

> <U+W>
-26.202

> <U>
25.894

> <W>
-52.096

> <W(PB)>
-54.602

> <W(SA)>
2.506

> <Valence>
4.779

> <Coulomb>
19.659

> <VdW>
1.456

> <VdW6>
-9.843

> <VdW12>
11.299

> <Bond>
0.315

> <Angle>
1.725

> <Pdih>
2.740

> <Idih>
0.000

> <Tether>
0.000

$$$$
VeraChem MOL file


 29 28  0  0  0  0  0  0  0  0999 V2000     
   23.6369   20.1738   23.9303 C   0  0  0  0  0  0  0  0  0  0  0  0
   23.4192   19.6169   24.8501 H   0  0  0  0  0  0  0  0  0  0  0  0
   23.7066   19.4568   23.1020 H   0  0  0  0  0  0  0  0  0  0  0  0
   24.6220   20.6422   24.0530 H   0  0  0  0  0  0  0  0  0  0  0  0
   22.5597   21.2455   23.6481 C   0  0  0  0  0  0  0  0  0  0  0  0
   22.8785   21.8512   22.7884 H   0  0  0  0  0  0  0  0  0  0  0  0
   22.4917   21.9347   24.5014 H   0  0  0  0  0  0  0  0  0  0  0  0
   21.1648   20.6474   23.3454 C   0  0  0  0  0  0  0  0  0  0  0  0
   20.4888   21.4651   23.0599 H   0  0  0  0  0  0  0  0  0  0  0  0
   21.2416   19.9870   22.4720 H   0  0  0  0  0  0  0  0  0  0  0  0
   20.5541   19.8794   24.5450 C   0  0  0  0  0  0  0  0  0  0  0  0
   20.6126   20.5136   25.4404 H   0  0  0  0  0  0  0  0  0  0  0  0
   21.1499   18.9828   24.7613 H   0  0  0  0  0  0  0  0  0  0  0  0
   19.0759   19.4695   24.3318 C   0  0  0  0  0  0  0  0  0  0  0  0
   18.7011   19.0609   25.2789 H   0  0  0  0  0  0  0  0  0  0  0  0
   18.4731   20.3634   24.1198 H   0  0  0  0  0  0  0  0  0  0  0  0
   18.8808   18.4261   23.2010 C   0  0  0  0  0  0  0  0  0  0  0  0
   19.4739   17.5281   23.4188 H   0  0  0  0  0  0  0  0  0  0  0  0
   19.2724   18.8385   22.2633 H   0  0  0  0  0  0  0  0  0  0  0  0
   17.4047   18.0301   22.9671 C   0  0  2  0  0  0  0  0  0  0  0  0
   16.8241   18.9448   22.8127 H   0  0  0  0  0  0  0  0  0  0  0  0
   16.8080   17.2694   24.1650 C   0  0  0  0  0  0  0  0  0  0  0  0
   17.3994   16.3763   24.4025 H   0  0  0  0  0  0  0  0  0  0  0  0
   16.7648   17.9014   25.0592 H   0  0  0  0  0  0  0  0  0  0  0  0
   15.7819   16.9489   23.9464 H   0  0  0  0  0  0  0  0  0  0  0  0
   17.2552   17.2166   21.7115 N   0  3  0  0  0  0  0  0  0  0  0  0
   17.6045   17.7209   20.8914 H   0  0  0  0  0  0  0  0  0  0  0  0
   16.2742   16.9845   21.5310 H   0  0  0  0  0  0  0  0  0  0  0  0
   17.7712   16.3348   21.7737 H   0  0  0  0  0  0  0  0  0  0  0  0
  1  2  1  0  0  0  0
  1  3  1  0  0  0  0
  1  4  1  0  0  0  0
  1  5  1  0  0  0  0
  5  6  1  0  0  0  0
  5  7  1  0  0  0  0
  5  8  1  0  0  0  0
  8  9  1  0  0  0  0
  8 10  1  0  0  0  0
  8 11  1  0  0  0  0
 11 12  1  0  0  0  0
 11 13  1  0  0  0  0
 11 14  1  0  0  0  0
 14 15  1  0  0  0  0
 14 16  1  0  0  0  0
 14 17  1  0  0  0  0
 17 18  1  0  0  0  0
 17 19  1  0  0  0  0
 17 20  1  0  0  0  0
 20 21  1  0  0  0  0
 20 22  1  0  0  0  0
 22 23  1  0  0  0  0
 22 24  1  0  0  0  0
 22 25  1  0  0  0  0
 20 26  1  0  0  0  0
 26 27  1  0  0  0  0
 26 28  1  0  0  0  0
 26 29  1  0  0  0  0
M  END
> <VConfSearch Rank>
270

> <Conf_Id>
135

> <Delta U+W>
1.581

> <U+W>
-26.245

> <U>
25.974

> <W>
-52.219

> <W(PB)>
-54.709

> <W(SA)>
2.490

> <Valence>
4.811

> <Coulomb>
19.700

> <VdW>
1.463

> <VdW6>
-9.391

> <VdW12>
10.854

> <Bond>
0.285

> <Angle>
1.671

> <Pdih>
2.855

> <Idih>
0.000

> <Tether>
0.000

$$$$
VeraChem MOL file


 29 28  0  0  0  0  0  0  0  0999 V2000     
   18.9916   16.0769   20.9477 C   0  0  0  0  0  0  0  0  0  0  0  0
   20.0432   16.2907   20.7165 H   0  0  0  0  0  0  0  0  0  0  0  0
   18.9503   15.5565   21.9126 H   0  0  0  0  0  0  0  0  0  0  0  0
   18.6134   15.3857   20.1833 H   0  0  0  0  0  0  0  0  0  0  0  0
   18.1521   17.3743   20.9668 C   0  0  0  0  0  0  0  0  0  0  0  0
   17.1108   17.1369   21.2259 H   0  0  0  0  0  0  0  0  0  0  0  0
   18.1280   17.7961   19.9523 H   0  0  0  0  0  0  0  0  0  0  0  0
   18.7022   18.4462   21.9380 C   0  0  0  0  0  0  0  0  0  0  0  0
   19.7320   18.6959   21.6506 H   0  0  0  0  0  0  0  0  0  0  0  0
   18.1127   19.3651   21.8143 H   0  0  0  0  0  0  0  0  0  0  0  0
   18.6548   18.0097   23.4240 C   0  0  0  0  0  0  0  0  0  0  0  0
   19.3332   17.1624   23.5895 H   0  0  0  0  0  0  0  0  0  0  0  0
   17.6443   17.6486   23.6597 H   0  0  0  0  0  0  0  0  0  0  0  0
   19.0128   19.1487   24.4099 C   0  0  0  0  0  0  0  0  0  0  0  0
   18.3074   19.9784   24.2700 H   0  0  0  0  0  0  0  0  0  0  0  0
   18.8638   18.7827   25.4352 H   0  0  0  0  0  0  0  0  0  0  0  0
   20.4709   19.6542   24.2602 C   0  0  0  0  0  0  0  0  0  0  0  0
   20.6012   20.1459   23.2878 H   0  0  0  0  0  0  0  0  0  0  0  0
   21.1442   18.7870   24.2658 H   0  0  0  0  0  0  0  0  0  0  0  0
   20.9082   20.6216   25.3834 C   0  0  2  0  0  0  0  0  0  0  0  0
   20.7381   20.1293   26.3459 H   0  0  0  0  0  0  0  0  0  0  0  0
   20.1073   21.9357   25.3598 C   0  0  0  0  0  0  0  0  0  0  0  0
   20.1988   22.4388   24.3891 H   0  0  0  0  0  0  0  0  0  0  0  0
   19.0436   21.7577   25.5559 H   0  0  0  0  0  0  0  0  0  0  0  0
   20.4693   22.6228   26.1345 H   0  0  0  0  0  0  0  0  0  0  0  0
   22.3821   20.9089   25.3088 N   0  3  0  0  0  0  0  0  0  0  0  0
   22.6834   21.5180   26.0749 H   0  0  0  0  0  0  0  0  0  0  0  0
   22.6282   21.3763   24.4320 H   0  0  0  0  0  0  0  0  0  0  0  0
   22.9371   20.0501   25.3664 H   0  0  0  0  0  0  0  0  0  0  0  0
  1  2  1  0  0  0  0
  1  3  1  0  0  0  0
  1  4  1  0  0  0  0
  1  5  1  0  0  0  0
  5  6  1  0  0  0  0
  5  7  1  0  0  0  0
  5  8  1  0  0  0  0
  8  9  1  0  0  0  0
  8 10  1  0  0  0  0
  8 11  1  0  0  0  0
 11 12  1  0  0  0  0
 11 13  1  0  0  0  0
 11 14  1  0  0  0  0
 14 15  1  0  0  0  0
 14 16  1  0  0  0  0
 14 17  1  0  0  0  0
 17 18  1  0  0  0  0
 17 19  1  0  0  0  0
 17 20  1  0  0  0  0
 20 21  1  0  0  0  0
 20 22  1  0  0  0  0
 22 23  1  0  0  0  0
 22 24  1  0  0  0  0
 22 25  1  0  0  0  0
 20 26  1  0  0  0  0
 26 27  1  0  0  0  0
 26 28  1  0  0  0  0
 26 29  1  0  0  0  0
M  END
> <VConfSearch Rank>
271

> <Conf_Id>
130

> <Delta U+W>
1.359

> <U+W>
-26.467

> <U>
25.687

> <W>
-52.154

> <W(PB)>
-54.643

> <W(SA)>
2.489

> <Valence>
4.682

> <Coulomb>
19.653

> <VdW>
1.352

> <VdW6>
-9.477

> <VdW12>
10.829

> <Bond>
0.274

> <Angle>
1.550

> <Pdih>
2.858

> <Idih>
0.000

> <Tether>
0.000

$$$$
VeraChem MOL file


 29 28  0  0  0  0  0  0  0  0999 V2000     
   18.0897   22.7544   23.1300 C   0  0  0  0  0  0  0  0  0  0  0  0
   17.6907   23.6177   23.6780 H   0  0  0  0  0  0  0  0  0  0  0  0
   18.3745   23.0962   22.1264 H   0  0  0  0  0  0  0  0  0  0  0  0
   17.2767   22.0250   23.0277 H   0  0  0  0  0  0  0  0  0  0  0  0
   19.3018   22.1532   23.8770 C   0  0  0  0  0  0  0  0  0  0  0  0
   18.9841   21.7887   24.8639 H   0  0  0  0  0  0  0  0  0  0  0  0
   20.0325   22.9522   24.0652 H   0  0  0  0  0  0  0  0  0  0  0  0
   20.0029   21.0134   23.0992 C   0  0  0  0  0  0  0  0  0  0  0  0
   20.3343   21.3887   22.1212 H   0  0  0  0  0  0  0  0  0  0  0  0
   20.9135   20.7370   23.6455 H   0  0  0  0  0  0  0  0  0  0  0  0
   19.1087   19.7626   22.9012 C   0  0  0  0  0  0  0  0  0  0  0  0
   18.2359   20.0390   22.2956 H   0  0  0  0  0  0  0  0  0  0  0  0
   18.7181   19.4312   23.8708 H   0  0  0  0  0  0  0  0  0  0  0  0
   19.8404   18.5987   22.1833 C   0  0  0  0  0  0  0  0  0  0  0  0
   19.1024   17.8758   21.8091 H   0  0  0  0  0  0  0  0  0  0  0  0
   20.3347   19.0008   21.2882 H   0  0  0  0  0  0  0  0  0  0  0  0
   20.8938   17.8572   23.0524 C   0  0  0  0  0  0  0  0  0  0  0  0
   21.3047   18.5206   23.8227 H   0  0  0  0  0  0  0  0  0  0  0  0
   21.7388   17.5959   22.4018 H   0  0  0  0  0  0  0  0  0  0  0  0
   20.3859   16.5490   23.7046 C   0  0  2  0  0  0  0  0  0  0  0  0
   20.0200   15.8917   22.9099 H   0  0  0  0  0  0  0  0  0  0  0  0
   19.2363   16.7879   24.6981 C   0  0  0  0  0  0  0  0  0  0  0  0
   18.3431   17.1608   24.1838 H   0  0  0  0  0  0  0  0  0  0  0  0
   18.9546   15.8521   25.1963 H   0  0  0  0  0  0  0  0  0  0  0  0
   19.5224   17.5127   25.4703 H   0  0  0  0  0  0  0  0  0  0  0  0
   21.5091   15.8110   24.3785 N   0  3  0  0  0  0  0  0  0  0  0  0
   22.2674   15.5987   23.7236 H   0  0  0  0  0  0  0  0  0  0  0  0
   21.1888   14.9215   24.7721 H   0  0  0  0  0  0  0  0  0  0  0  0
   21.9088   16.3582   25.1455 H   0  0  0  0  0  0  0  0  0  0  0  0
  1  2  1  0  0  0  0
  1  3  1  0  0  0  0
  1  4  1  0  0  0  0
  1  5  1  0  0  0  0
  5  6  1  0  0  0  0
  5  7  1  0  0  0  0
  5  8  1  0  0  0  0
  8  9  1  0  0  0  0
  8 10  1  0  0  0  0
  8 11  1  0  0  0  0
 11 12  1  0  0  0  0
 11 13  1  0  0  0  0
 11 14  1  0  0  0  0
 14 15  1  0  0  0  0
 14 16  1  0  0  0  0
 14 17  1  0  0  0  0
 17 18  1  0  0  0  0
 17 19  1  0  0  0  0
 17 20  1  0  0  0  0
 20 21  1  0  0  0  0
 20 22  1  0  0  0  0
 22 23  1  0  0  0  0
 22 24  1  0  0  0  0
 22 25  1  0  0  0  0
 20 26  1  0  0  0  0
 26 27  1  0  0  0  0
 26 28  1  0  0  0  0
 26 29  1  0  0  0  0
M  END
> <VConfSearch Rank>
272

> <Conf_Id>
157

> <Delta U+W>
4.354

> <U+W>
-23.472

> <U>
28.780

> <W>
-52.252

> <W(PB)>
-54.715

> <W(SA)>
2.462

> <Valence>
7.566

> <Coulomb>
19.822

> <VdW>
1.392

> <VdW6>
-10.248

> <VdW12>
11.641

> <Bond>
0.340

> <Angle>
2.096

> <Pdih>
5.129

> <Idih>
0.000

> <Tether>
0.000

$$$$
VeraChem MOL file


 29 28  0  0  0  0  0  0  0  0999 V2000     
   17.8244   20.1917   26.5291 C   0  0  0  0  0  0  0  0  0  0  0  0
   17.0241   19.8816   27.2134 H   0  0  0  0  0  0  0  0  0  0  0  0
   18.5531   19.3752   26.4783 H   0  0  0  0  0  0  0  0  0  0  0  0
   18.3237   21.0623   26.9738 H   0  0  0  0  0  0  0  0  0  0  0  0
   17.2427   20.5405   25.1392 C   0  0  0  0  0  0  0  0  0  0  0  0
   16.5113   21.3499   25.2720 H   0  0  0  0  0  0  0  0  0  0  0  0
   16.6793   19.6877   24.7355 H   0  0  0  0  0  0  0  0  0  0  0  0
   18.3171   21.0069   24.1234 C   0  0  0  0  0  0  0  0  0  0  0  0
   17.8760   21.7955   23.4981 H   0  0  0  0  0  0  0  0  0  0  0  0
   19.1564   21.4824   24.6494 H   0  0  0  0  0  0  0  0  0  0  0  0
   18.8421   19.8991   23.1740 C   0  0  0  0  0  0  0  0  0  0  0  0
   19.5334   20.3689   22.4625 H   0  0  0  0  0  0  0  0  0  0  0  0
   18.0079   19.5070   22.5762 H   0  0  0  0  0  0  0  0  0  0  0  0
   19.5524   18.7269   23.8947 C   0  0  0  0  0  0  0  0  0  0  0  0
   20.3337   19.1157   24.5610 H   0  0  0  0  0  0  0  0  0  0  0  0
   18.8285   18.2082   24.5360 H   0  0  0  0  0  0  0  0  0  0  0  0
   20.1543   17.6821   22.9198 C   0  0  0  0  0  0  0  0  0  0  0  0
   19.3420   17.2484   22.3214 H   0  0  0  0  0  0  0  0  0  0  0  0
   20.5799   16.8549   23.5032 H   0  0  0  0  0  0  0  0  0  0  0  0
   21.2360   18.2429   21.9693 C   0  0  2  0  0  0  0  0  0  0  0  0
   20.7904   19.0438   21.3723 H   0  0  0  0  0  0  0  0  0  0  0  0
   21.7239   17.1467   21.0090 C   0  0  0  0  0  0  0  0  0  0  0  0
   22.1887   16.3171   21.5564 H   0  0  0  0  0  0  0  0  0  0  0  0
   20.8893   16.7437   20.4218 H   0  0  0  0  0  0  0  0  0  0  0  0
   22.4631   17.5483   20.3049 H   0  0  0  0  0  0  0  0  0  0  0  0
   22.3939   18.8500   22.7125 N   0  3  0  0  0  0  0  0  0  0  0  0
   22.0834   19.6080   23.3266 H   0  0  0  0  0  0  0  0  0  0  0  0
   23.0894   19.2392   22.0696 H   0  0  0  0  0  0  0  0  0  0  0  0
   22.8685   18.1549   23.2948 H   0  0  0  0  0  0  0  0  0  0  0  0
  1  2  1  0  0  0  0
  1  3  1  0  0  0  0
  1  4  1  0  0  0  0
  1  5  1  0  0  0  0
  5  6  1  0  0  0  0
  5  7  1  0  0  0  0
  5  8  1  0  0  0  0
  8  9  1  0  0  0  0
  8 10  1  0  0  0  0
  8 11  1  0  0  0  0
 11 12  1  0  0  0  0
 11 13  1  0  0  0  0
 11 14  1  0  0  0  0
 14 15  1  0  0  0  0
 14 16  1  0  0  0  0
 14 17  1  0  0  0  0
 17 18  1  0  0  0  0
 17 19  1  0  0  0  0
 17 20  1  0  0  0  0
 20 21  1  0  0  0  0
 20 22  1  0  0  0  0
 22 23  1  0  0  0  0
 22 24  1  0  0  0  0
 22 25  1  0  0  0  0
 20 26  1  0  0  0  0
 26 27  1  0  0  0  0
 26 28  1  0  0  0  0
 26 29  1  0  0  0  0
M  END
> <VConfSearch Rank>
273

> <Conf_Id>
158

> <Delta U+W>
3.648

> <U+W>
-24.178

> <U>
28.057

> <W>
-52.235

> <W(PB)>
-54.696

> <W(SA)>
2.460

> <Valence>
6.543

> <Coulomb>
20.387

> <VdW>
1.127

> <VdW6>
-10.342

> <VdW12>
11.469

> <Bond>
0.308

> <Angle>
1.938

> <Pdih>
4.297

> <Idih>
0.000

> <Tether>
0.000

$$$$
VeraChem MOL file


 29 28  0  0  0  0  0  0  0  0999 V2000     
   19.5652   21.3431   20.6451 C   0  0  0  0  0  0  0  0  0  0  0  0
   19.8692   22.1553   21.3181 H   0  0  0  0  0  0  0  0  0  0  0  0
   20.3259   20.5541   20.6917 H   0  0  0  0  0  0  0  0  0  0  0  0
   19.5630   21.7386   19.6211 H   0  0  0  0  0  0  0  0  0  0  0  0
   18.1653   20.8055   21.0198 C   0  0  0  0  0  0  0  0  0  0  0  0
   17.8982   19.9735   20.3534 H   0  0  0  0  0  0  0  0  0  0  0  0
   17.4230   21.5953   20.8383 H   0  0  0  0  0  0  0  0  0  0  0  0
   18.0554   20.3510   22.4951 C   0  0  0  0  0  0  0  0  0  0  0  0
   18.3060   21.1914   23.1570 H   0  0  0  0  0  0  0  0  0  0  0  0
   17.0075   20.0947   22.7040 H   0  0  0  0  0  0  0  0  0  0  0  0
   18.9504   19.1352   22.8340 C   0  0  0  0  0  0  0  0  0  0  0  0
   20.0028   19.3978   22.6804 H   0  0  0  0  0  0  0  0  0  0  0  0
   18.7272   18.3138   22.1393 H   0  0  0  0  0  0  0  0  0  0  0  0
   18.7300   18.6506   24.2881 C   0  0  0  0  0  0  0  0  0  0  0  0
   18.8746   19.4788   24.9956 H   0  0  0  0  0  0  0  0  0  0  0  0
   17.6796   18.3447   24.3910 H   0  0  0  0  0  0  0  0  0  0  0  0
   19.6322   17.4507   24.6811 C   0  0  0  0  0  0  0  0  0  0  0  0
   19.8926   16.8621   23.7914 H   0  0  0  0  0  0  0  0  0  0  0  0
   19.0397   16.7815   25.3190 H   0  0  0  0  0  0  0  0  0  0  0  0
   20.9117   17.8285   25.4658 C   0  0  2  0  0  0  0  0  0  0  0  0
   20.6100   18.3689   26.3683 H   0  0  0  0  0  0  0  0  0  0  0  0
   21.8621   18.7316   24.6619 C   0  0  0  0  0  0  0  0  0  0  0  0
   22.1233   18.2766   23.6984 H   0  0  0  0  0  0  0  0  0  0  0  0
   21.4082   19.7115   24.4741 H   0  0  0  0  0  0  0  0  0  0  0  0
   22.7909   18.9084   25.2181 H   0  0  0  0  0  0  0  0  0  0  0  0
   21.6379   16.5983   25.9346 N   0  3  0  0  0  0  0  0  0  0  0  0
   21.0381   16.0038   26.5140 H   0  0  0  0  0  0  0  0  0  0  0  0
   22.4598   16.8403   26.4956 H   0  0  0  0  0  0  0  0  0  0  0  0
   21.9624   16.0325   25.1458 H   0  0  0  0  0  0  0  0  0  0  0  0
  1  2  1  0  0  0  0
  1  3  1  0  0  0  0
  1  4  1  0  0  0  0
  1  5  1  0  0  0  0
  5  6  1  0  0  0  0
  5  7  1  0  0  0  0
  5  8  1  0  0  0  0
  8  9  1  0  0  0  0
  8 10  1  0  0  0  0
  8 11  1  0  0  0  0
 11 12  1  0  0  0  0
 11 13  1  0  0  0  0
 11 14  1  0  0  0  0
 14 15  1  0  0  0  0
 14 16  1  0  0  0  0
 14 17  1  0  0  0  0
 17 18  1  0  0  0  0
 17 19  1  0  0  0  0
 17 20  1  0  0  0  0
 20 21  1  0  0  0  0
 20 22  1  0  0  0  0
 22 23  1  0  0  0  0
 22 24  1  0  0  0  0
 22 25  1  0  0  0  0
 20 26  1  0  0  0  0
 26 27  1  0  0  0  0
 26 28  1  0  0  0  0
 26 29  1  0  0  0  0
M  END
> <VConfSearch Rank>
274

> <Conf_Id>
156

> <Delta U+W>
3.393

> <U+W>
-24.433

> <U>
27.713

> <W>
-52.146

> <W(PB)>
-54.603

> <W(SA)>
2.458

> <Valence>
6.758

> <Coulomb>
19.720

> <VdW>
1.235

> <VdW6>
-9.782

> <VdW12>
11.017

> <Bond>
0.287

> <Angle>
1.880

> <Pdih>
4.591

> <Idih>
0.000

> <Tether>
0.000

$$$$
VeraChem MOL file


 29 28  0  0  0  0  0  0  0  0999 V2000     
   20.2585   15.5022   22.2849 C   0  0  0  0  0  0  0  0  0  0  0  0
   19.1971   15.5288   22.0057 H   0  0  0  0  0  0  0  0  0  0  0  0
   20.8369   15.1986   21.4026 H   0  0  0  0  0  0  0  0  0  0  0  0
   20.3857   14.7289   23.0536 H   0  0  0  0  0  0  0  0  0  0  0  0
   20.7276   16.8752   22.8107 C   0  0  0  0  0  0  0  0  0  0  0  0
   21.7831   16.8104   23.1095 H   0  0  0  0  0  0  0  0  0  0  0  0
   20.1549   17.1250   23.7136 H   0  0  0  0  0  0  0  0  0  0  0  0
   20.5537   17.9832   21.7456 C   0  0  0  0  0  0  0  0  0  0  0  0
   21.0702   17.6770   20.8255 H   0  0  0  0  0  0  0  0  0  0  0  0
   19.4935   18.0771   21.4767 H   0  0  0  0  0  0  0  0  0  0  0  0
   21.1159   19.3607   22.1832 C   0  0  0  0  0  0  0  0  0  0  0  0
   20.9725   20.0767   21.3623 H   0  0  0  0  0  0  0  0  0  0  0  0
   22.2029   19.2729   22.3175 H   0  0  0  0  0  0  0  0  0  0  0  0
   20.5023   19.9521   23.4789 C   0  0  0  0  0  0  0  0  0  0  0  0
   20.7449   19.3041   24.3305 H   0  0  0  0  0  0  0  0  0  0  0  0
   20.9994   20.9104   23.6763 H   0  0  0  0  0  0  0  0  0  0  0  0
   18.9673   20.1712   23.3903 C   0  0  0  0  0  0  0  0  0  0  0  0
   18.4684   19.2089   23.2219 H   0  0  0  0  0  0  0  0  0  0  0  0
   18.7385   20.7897   22.5124 H   0  0  0  0  0  0  0  0  0  0  0  0
   18.3297   20.8234   24.6397 C   0  0  2  0  0  0  0  0  0  0  0  0
   17.2500   20.8691   24.4663 H   0  0  0  0  0  0  0  0  0  0  0  0
   18.8243   22.2637   24.8603 C   0  0  0  0  0  0  0  0  0  0  0  0
   18.2519   22.7464   25.6619 H   0  0  0  0  0  0  0  0  0  0  0  0
   19.8832   22.2914   25.1430 H   0  0  0  0  0  0  0  0  0  0  0  0
   18.6945   22.8642   23.9514 H   0  0  0  0  0  0  0  0  0  0  0  0
   18.5178   19.9931   25.8794 N   0  3  0  0  0  0  0  0  0  0  0  0
   18.1472   19.0464   25.7568 H   0  0  0  0  0  0  0  0  0  0  0  0
   18.0383   20.4082   26.6834 H   0  0  0  0  0  0  0  0  0  0  0  0
   19.5080   19.9090   26.1221 H   0  0  0  0  0  0  0  0  0  0  0  0
  1  2  1  0  0  0  0
  1  3  1  0  0  0  0
  1  4  1  0  0  0  0
  1  5  1  0  0  0  0
  5  6  1  0  0  0  0
  5  7  1  0  0  0  0
  5  8  1  0  0  0  0
  8  9  1  0  0  0  0
  8 10  1  0  0  0  0
  8 11  1  0  0  0  0
 11 12  1  0  0  0  0
 11 13  1  0  0  0  0
 11 14  1  0  0  0  0
 14 15  1  0  0  0  0
 14 16  1  0  0  0  0
 14 17  1  0  0  0  0
 17 18  1  0  0  0  0
 17 19  1  0  0  0  0
 17 20  1  0  0  0  0
 20 21  1  0  0  0  0
 20 22  1  0  0  0  0
 22 23  1  0  0  0  0
 22 24  1  0  0  0  0
 22 25  1  0  0  0  0
 20 26  1  0  0  0  0
 26 27  1  0  0  0  0
 26 28  1  0  0  0  0
 26 29  1  0  0  0  0
M  END
> <VConfSearch Rank>
275

> <Conf_Id>
78

> <Delta U+W>
1.477

> <U+W>
-26.349

> <U>
26.385

> <W>
-52.734

> <W(PB)>
-55.179

> <W(SA)>
2.445

> <Valence>
4.726

> <Coulomb>
20.482

> <VdW>
1.177

> <VdW6>
-10.349

> <VdW12>
11.526

> <Bond>
0.319

> <Angle>
1.933

> <Pdih>
2.474

> <Idih>
0.000

> <Tether>
0.000

$$$$
VeraChem MOL file


 29 28  0  0  0  0  0  0  0  0999 V2000     
   19.3760   16.1083   25.7548 C   0  0  0  0  0  0  0  0  0  0  0  0
   20.0173   15.2944   25.3922 H   0  0  0  0  0  0  0  0  0  0  0  0
   20.0133   16.9781   25.9486 H   0  0  0  0  0  0  0  0  0  0  0  0
   18.9453   15.7908   26.7132 H   0  0  0  0  0  0  0  0  0  0  0  0
   18.2558   16.4226   24.7360 C   0  0  0  0  0  0  0  0  0  0  0  0
   17.5734   17.1830   25.1404 H   0  0  0  0  0  0  0  0  0  0  0  0
   17.6519   15.5136   24.6058 H   0  0  0  0  0  0  0  0  0  0  0  0
   18.7928   16.8621   23.3496 C   0  0  0  0  0  0  0  0  0  0  0  0
   19.7781   16.4129   23.1637 H   0  0  0  0  0  0  0  0  0  0  0  0
   18.1288   16.4467   22.5789 H   0  0  0  0  0  0  0  0  0  0  0  0
   18.8574   18.3958   23.1311 C   0  0  0  0  0  0  0  0  0  0  0  0
   17.8465   18.8184   23.2130 H   0  0  0  0  0  0  0  0  0  0  0  0
   19.1806   18.5723   22.0970 H   0  0  0  0  0  0  0  0  0  0  0  0
   19.8052   19.1382   24.1049 C   0  0  0  0  0  0  0  0  0  0  0  0
   19.4281   19.0260   25.1293 H   0  0  0  0  0  0  0  0  0  0  0  0
   20.7986   18.6711   24.0896 H   0  0  0  0  0  0  0  0  0  0  0  0
   19.9231   20.6560   23.8089 C   0  0  0  0  0  0  0  0  0  0  0  0
   20.5764   21.1149   24.5629 H   0  0  0  0  0  0  0  0  0  0  0  0
   18.9342   21.1133   23.9447 H   0  0  0  0  0  0  0  0  0  0  0  0
   20.4462   21.0164   22.3981 C   0  0  2  0  0  0  0  0  0  0  0  0
   19.7777   20.5701   21.6562 H   0  0  0  0  0  0  0  0  0  0  0  0
   21.8693   20.4837   22.1541 C   0  0  0  0  0  0  0  0  0  0  0  0
   22.2356   20.7966   21.1686 H   0  0  0  0  0  0  0  0  0  0  0  0
   22.5684   20.8581   22.9121 H   0  0  0  0  0  0  0  0  0  0  0  0
   21.8924   19.3879   22.1757 H   0  0  0  0  0  0  0  0  0  0  0  0
   20.3987   22.5010   22.1667 N   0  3  0  0  0  0  0  0  0  0  0  0
   21.0060   23.0011   22.8215 H   0  0  0  0  0  0  0  0  0  0  0  0
   19.4506   22.8706   22.2826 H   0  0  0  0  0  0  0  0  0  0  0  0
   20.7060   22.7422   21.2201 H   0  0  0  0  0  0  0  0  0  0  0  0
  1  2  1  0  0  0  0
  1  3  1  0  0  0  0
  1  4  1  0  0  0  0
  1  5  1  0  0  0  0
  5  6  1  0  0  0  0
  5  7  1  0  0  0  0
  5  8  1  0  0  0  0
  8  9  1  0  0  0  0
  8 10  1  0  0  0  0
  8 11  1  0  0  0  0
 11 12  1  0  0  0  0
 11 13  1  0  0  0  0
 11 14  1  0  0  0  0
 14 15  1  0  0  0  0
 14 16  1  0  0  0  0
 14 17  1  0  0  0  0
 17 18  1  0  0  0  0
 17 19  1  0  0  0  0
 17 20  1  0  0  0  0
 20 21  1  0  0  0  0
 20 22  1  0  0  0  0
 22 23  1  0  0  0  0
 22 24  1  0  0  0  0
 22 25  1  0  0  0  0
 20 26  1  0  0  0  0
 26 27  1  0  0  0  0
 26 28  1  0  0  0  0
 26 29  1  0  0  0  0
M  END
> <VConfSearch Rank>
276

> <Conf_Id>
145

> <Delta U+W>
3.784

> <U+W>
-24.042

> <U>
28.220

> <W>
-52.262

> <W(PB)>
-54.724

> <W(SA)>
2.462

> <Valence>
7.040

> <Coulomb>
19.984

> <VdW>
1.197

> <VdW6>
-10.566

> <VdW12>
11.763

> <Bond>
0.320

> <Angle>
2.280

> <Pdih>
4.439

> <Idih>
0.000

> <Tether>
0.000

$$$$
VeraChem MOL file


 29 28  0  0  0  0  0  0  0  0999 V2000     
   19.4387   20.7391   19.9262 C   0  0  0  0  0  0  0  0  0  0  0  0
   18.8445   21.6336   19.6979 H   0  0  0  0  0  0  0  0  0  0  0  0
   20.4611   21.0595   20.1654 H   0  0  0  0  0  0  0  0  0  0  0  0
   19.4822   20.1228   19.0188 H   0  0  0  0  0  0  0  0  0  0  0  0
   18.8191   19.9449   21.0953 C   0  0  0  0  0  0  0  0  0  0  0  0
   19.4112   19.0380   21.2675 H   0  0  0  0  0  0  0  0  0  0  0  0
   17.8117   19.6099   20.8114 H   0  0  0  0  0  0  0  0  0  0  0  0
   18.7364   20.7984   22.3837 C   0  0  0  0  0  0  0  0  0  0  0  0
   19.7261   21.1985   22.6435 H   0  0  0  0  0  0  0  0  0  0  0  0
   18.1030   21.6715   22.1741 H   0  0  0  0  0  0  0  0  0  0  0  0
   18.1351   20.0342   23.5920 C   0  0  0  0  0  0  0  0  0  0  0  0
   17.4478   19.2506   23.2444 H   0  0  0  0  0  0  0  0  0  0  0  0
   17.5151   20.7366   24.1662 H   0  0  0  0  0  0  0  0  0  0  0  0
   19.1809   19.4324   24.5659 C   0  0  0  0  0  0  0  0  0  0  0  0
   19.7877   20.2457   24.9854 H   0  0  0  0  0  0  0  0  0  0  0  0
   18.6355   18.9890   25.4086 H   0  0  0  0  0  0  0  0  0  0  0  0
   20.1059   18.3647   23.9230 C   0  0  0  0  0  0  0  0  0  0  0  0
   20.7125   18.8368   23.1407 H   0  0  0  0  0  0  0  0  0  0  0  0
   19.4931   17.6036   23.4224 H   0  0  0  0  0  0  0  0  0  0  0  0
   21.0707   17.6609   24.9065 C   0  0  2  0  0  0  0  0  0  0  0  0
   21.7088   16.9971   24.3151 H   0  0  0  0  0  0  0  0  0  0  0  0
   20.3231   16.7903   25.9317 C   0  0  0  0  0  0  0  0  0  0  0  0
   21.0335   16.1951   26.5185 H   0  0  0  0  0  0  0  0  0  0  0  0
   19.7380   17.3973   26.6323 H   0  0  0  0  0  0  0  0  0  0  0  0
   19.6420   16.0929   25.4283 H   0  0  0  0  0  0  0  0  0  0  0  0
   21.9966   18.6270   25.5928 N   0  3  0  0  0  0  0  0  0  0  0  0
   21.4772   19.2830   26.1814 H   0  0  0  0  0  0  0  0  0  0  0  0
   22.5337   19.1771   24.9164 H   0  0  0  0  0  0  0  0  0  0  0  0
   22.6676   18.1396   26.1934 H   0  0  0  0  0  0  0  0  0  0  0  0
  1  2  1  0  0  0  0
  1  3  1  0  0  0  0
  1  4  1  0  0  0  0
  1  5  1  0  0  0  0
  5  6  1  0  0  0  0
  5  7  1  0  0  0  0
  5  8  1  0  0  0  0
  8  9  1  0  0  0  0
  8 10  1  0  0  0  0
  8 11  1  0  0  0  0
 11 12  1  0  0  0  0
 11 13  1  0  0  0  0
 11 14  1  0  0  0  0
 14 15  1  0  0  0  0
 14 16  1  0  0  0  0
 14 17  1  0  0  0  0
 17 18  1  0  0  0  0
 17 19  1  0  0  0  0
 17 20  1  0  0  0  0
 20 21  1  0  0  0  0
 20 22  1  0  0  0  0
 22 23  1  0  0  0  0
 22 24  1  0  0  0  0
 22 25  1  0  0  0  0
 20 26  1  0  0  0  0
 26 27  1  0  0  0  0
 26 28  1  0  0  0  0
 26 29  1  0  0  0  0
M  END
> <VConfSearch Rank>
277

> <Conf_Id>
71

> <Delta U+W>
3.542

> <U+W>
-24.284

> <U>
28.217

> <W>
-52.501

> <W(PB)>
-54.947

> <W(SA)>
2.446

> <Valence>
6.821

> <Coulomb>
20.147

> <VdW>
1.249

> <VdW6>
-10.237

> <VdW12>
11.486

> <Bond>
0.317

> <Angle>
1.990

> <Pdih>
4.515

> <Idih>
0.000

> <Tether>
0.000

$$$$
VeraChem MOL file


 29 28  0  0  0  0  0  0  0  0999 V2000     
   23.1023   17.9878   21.6080 C   0  0  0  0  0  0  0  0  0  0  0  0
   22.3794   17.3207   21.1207 H   0  0  0  0  0  0  0  0  0  0  0  0
   23.6026   18.5777   20.8289 H   0  0  0  0  0  0  0  0  0  0  0  0
   23.8610   17.3631   22.0971 H   0  0  0  0  0  0  0  0  0  0  0  0
   22.4054   18.9038   22.6360 C   0  0  0  0  0  0  0  0  0  0  0  0
   23.1592   19.5333   23.1292 H   0  0  0  0  0  0  0  0  0  0  0  0
   21.9550   18.2847   23.4210 H   0  0  0  0  0  0  0  0  0  0  0  0
   21.3380   19.8028   21.9667 C   0  0  0  0  0  0  0  0  0  0  0  0
   21.8406   20.4246   21.2129 H   0  0  0  0  0  0  0  0  0  0  0  0
   20.6105   19.1900   21.4169 H   0  0  0  0  0  0  0  0  0  0  0  0
   20.6039   20.7377   22.9630 C   0  0  0  0  0  0  0  0  0  0  0  0
   20.4108   21.6930   22.4553 H   0  0  0  0  0  0  0  0  0  0  0  0
   21.2583   20.9815   23.8112 H   0  0  0  0  0  0  0  0  0  0  0  0
   19.2430   20.1996   23.4753 C   0  0  0  0  0  0  0  0  0  0  0  0
   18.7856   20.9774   24.1003 H   0  0  0  0  0  0  0  0  0  0  0  0
   18.5711   20.0593   22.6181 H   0  0  0  0  0  0  0  0  0  0  0  0
   19.3466   18.8791   24.2836 C   0  0  0  0  0  0  0  0  0  0  0  0
   20.1221   18.9847   25.0534 H   0  0  0  0  0  0  0  0  0  0  0  0
   19.6772   18.0710   23.6193 H   0  0  0  0  0  0  0  0  0  0  0  0
   18.0334   18.4318   24.9681 C   0  0  2  0  0  0  0  0  0  0  0  0
   18.2448   17.4980   25.4982 H   0  0  0  0  0  0  0  0  0  0  0  0
   16.9185   18.1460   23.9471 C   0  0  0  0  0  0  0  0  0  0  0  0
   17.2602   17.4338   23.1859 H   0  0  0  0  0  0  0  0  0  0  0  0
   16.0453   17.7071   24.4453 H   0  0  0  0  0  0  0  0  0  0  0  0
   16.5900   19.0608   23.4395 H   0  0  0  0  0  0  0  0  0  0  0  0
   17.5690   19.4073   26.0143 N   0  3  0  0  0  0  0  0  0  0  0  0
   18.2907   19.5704   26.7223 H   0  0  0  0  0  0  0  0  0  0  0  0
   16.7349   19.0656   26.5003 H   0  0  0  0  0  0  0  0  0  0  0  0
   17.3335   20.3124   25.5999 H   0  0  0  0  0  0  0  0  0  0  0  0
  1  2  1  0  0  0  0
  1  3  1  0  0  0  0
  1  4  1  0  0  0  0
  1  5  1  0  0  0  0
  5  6  1  0  0  0  0
  5  7  1  0  0  0  0
  5  8  1  0  0  0  0
  8  9  1  0  0  0  0
  8 10  1  0  0  0  0
  8 11  1  0  0  0  0
 11 12  1  0  0  0  0
 11 13  1  0  0  0  0
 11 14  1  0  0  0  0
 14 15  1  0  0  0  0
 14 16  1  0  0  0  0
 14 17  1  0  0  0  0
 17 18  1  0  0  0  0
 17 19  1  0  0  0  0
 17 20  1  0  0  0  0
 20 21  1  0  0  0  0
 20 22  1  0  0  0  0
 22 23  1  0  0  0  0
 22 24  1  0  0  0  0
 22 25  1  0  0  0  0
 20 26  1  0  0  0  0
 26 27  1  0  0  0  0
 26 28  1  0  0  0  0
 26 29  1  0  0  0  0
M  END
> <VConfSearch Rank>
278

> <Conf_Id>
163

> <Delta U+W>
3.309

> <U+W>
-24.517

> <U>
27.916

> <W>
-52.433

> <W(PB)>
-54.866

> <W(SA)>
2.433

> <Valence>
6.693

> <Coulomb>
20.015

> <VdW>
1.208

> <VdW6>
-10.294

> <VdW12>
11.503

> <Bond>
0.312

> <Angle>
1.939

> <Pdih>
4.441

> <Idih>
0.000

> <Tether>
0.000

$$$$
VeraChem MOL file


 29 28  0  0  0  0  0  0  0  0999 V2000     
   22.8865   21.5858   24.2409 C   0  0  0  0  0  0  0  0  0  0  0  0
   23.3694   21.6847   23.2601 H   0  0  0  0  0  0  0  0  0  0  0  0
   22.0427   22.2855   24.2816 H   0  0  0  0  0  0  0  0  0  0  0  0
   23.6105   21.8987   25.0044 H   0  0  0  0  0  0  0  0  0  0  0  0
   22.4318   20.1302   24.4922 C   0  0  0  0  0  0  0  0  0  0  0  0
   21.9209   20.0643   25.4630 H   0  0  0  0  0  0  0  0  0  0  0  0
   23.3226   19.4913   24.5699 H   0  0  0  0  0  0  0  0  0  0  0  0
   21.5153   19.5681   23.3787 C   0  0  0  0  0  0  0  0  0  0  0  0
   22.0316   19.6323   22.4111 H   0  0  0  0  0  0  0  0  0  0  0  0
   21.3589   18.5000   23.5770 H   0  0  0  0  0  0  0  0  0  0  0  0
   20.1442   20.2846   23.2886 C   0  0  0  0  0  0  0  0  0  0  0  0
   20.3032   21.3526   23.0914 H   0  0  0  0  0  0  0  0  0  0  0  0
   19.6337   20.2284   24.2590 H   0  0  0  0  0  0  0  0  0  0  0  0
   19.2264   19.7268   22.1696 C   0  0  0  0  0  0  0  0  0  0  0  0
   18.3056   20.3245   22.1365 H   0  0  0  0  0  0  0  0  0  0  0  0
   19.7140   19.8819   21.1973 H   0  0  0  0  0  0  0  0  0  0  0  0
   18.8582   18.2253   22.3085 C   0  0  0  0  0  0  0  0  0  0  0  0
   19.7558   17.6166   22.1408 H   0  0  0  0  0  0  0  0  0  0  0  0
   18.1595   17.9545   21.5058 H   0  0  0  0  0  0  0  0  0  0  0  0
   18.2383   17.8509   23.6728 C   0  0  2  0  0  0  0  0  0  0  0  0
   18.9479   18.1240   24.4595 H   0  0  0  0  0  0  0  0  0  0  0  0
   17.9932   16.3360   23.7527 C   0  0  0  0  0  0  0  0  0  0  0  0
   17.5877   16.0596   24.7337 H   0  0  0  0  0  0  0  0  0  0  0  0
   17.2824   16.0077   22.9840 H   0  0  0  0  0  0  0  0  0  0  0  0
   18.9296   15.7820   23.6114 H   0  0  0  0  0  0  0  0  0  0  0  0
   16.9695   18.6092   23.9503 N   0  3  0  0  0  0  0  0  0  0  0  0
   17.1296   19.6200   23.9289 H   0  0  0  0  0  0  0  0  0  0  0  0
   16.5869   18.3763   24.8712 H   0  0  0  0  0  0  0  0  0  0  0  0
   16.2490   18.3961   23.2554 H   0  0  0  0  0  0  0  0  0  0  0  0
  1  2  1  0  0  0  0
  1  3  1  0  0  0  0
  1  4  1  0  0  0  0
  1  5  1  0  0  0  0
  5  6  1  0  0  0  0
  5  7  1  0  0  0  0
  5  8  1  0  0  0  0
  8  9  1  0  0  0  0
  8 10  1  0  0  0  0
  8 11  1  0  0  0  0
 11 12  1  0  0  0  0
 11 13  1  0  0  0  0
 11 14  1  0  0  0  0
 14 15  1  0  0  0  0
 14 16  1  0  0  0  0
 14 17  1  0  0  0  0
 17 18  1  0  0  0  0
 17 19  1  0  0  0  0
 17 20  1  0  0  0  0
 20 21  1  0  0  0  0
 20 22  1  0  0  0  0
 22 23  1  0  0  0  0
 22 24  1  0  0  0  0
 22 25  1  0  0  0  0
 20 26  1  0  0  0  0
 26 27  1  0  0  0  0
 26 28  1  0  0  0  0
 26 29  1  0  0  0  0
M  END
> <VConfSearch Rank>
279

> <Conf_Id>
173

> <Delta U+W>
1.363

> <U+W>
-26.462

> <U>
25.816

> <W>
-52.279

> <W(PB)>
-54.727

> <W(SA)>
2.449

> <Valence>
4.504

> <Coulomb>
20.342

> <VdW>
0.971

> <VdW6>
-10.532

> <VdW12>
11.503

> <Bond>
0.307

> <Angle>
1.715

> <Pdih>
2.481

> <Idih>
0.000

> <Tether>
0.000

$$$$
VeraChem MOL file


 29 28  0  0  0  0  0  0  0  0999 V2000     
   18.1336   20.8132   20.5047 C   0  0  0  0  0  0  0  0  0  0  0  0
   17.2802   20.1359   20.3697 H   0  0  0  0  0  0  0  0  0  0  0  0
   17.7531   21.8427   20.5273 H   0  0  0  0  0  0  0  0  0  0  0  0
   18.7849   20.7142   19.6266 H   0  0  0  0  0  0  0  0  0  0  0  0
   18.9074   20.4787   21.7974 C   0  0  0  0  0  0  0  0  0  0  0  0
   19.7691   21.1540   21.8914 H   0  0  0  0  0  0  0  0  0  0  0  0
   19.3019   19.4570   21.7188 H   0  0  0  0  0  0  0  0  0  0  0  0
   18.0075   20.6007   23.0482 C   0  0  0  0  0  0  0  0  0  0  0  0
   17.5269   21.5887   23.0469 H   0  0  0  0  0  0  0  0  0  0  0  0
   17.1936   19.8654   22.9844 H   0  0  0  0  0  0  0  0  0  0  0  0
   18.7547   20.4253   24.3956 C   0  0  0  0  0  0  0  0  0  0  0  0
   18.0217   20.5723   25.2010 H   0  0  0  0  0  0  0  0  0  0  0  0
   19.4969   21.2254   24.5226 H   0  0  0  0  0  0  0  0  0  0  0  0
   19.4176   19.0370   24.5923 C   0  0  0  0  0  0  0  0  0  0  0  0
   19.3143   18.7556   25.6486 H   0  0  0  0  0  0  0  0  0  0  0  0
   18.8637   18.2819   24.0199 H   0  0  0  0  0  0  0  0  0  0  0  0
   20.9269   19.0236   24.2221 C   0  0  0  0  0  0  0  0  0  0  0  0
   21.4536   19.7524   24.8520 H   0  0  0  0  0  0  0  0  0  0  0  0
   21.0690   19.3671   23.1914 H   0  0  0  0  0  0  0  0  0  0  0  0
   21.6230   17.6516   24.3811 C   0  0  2  0  0  0  0  0  0  0  0  0
   22.6832   17.7969   24.1516 H   0  0  0  0  0  0  0  0  0  0  0  0
   21.0736   16.6080   23.3929 C   0  0  0  0  0  0  0  0  0  0  0  0
   21.1102   16.9876   22.3643 H   0  0  0  0  0  0  0  0  0  0  0  0
   21.6749   15.6913   23.4303 H   0  0  0  0  0  0  0  0  0  0  0  0
   20.0365   16.3367   23.6226 H   0  0  0  0  0  0  0  0  0  0  0  0
   21.5691   17.1382   25.7936 N   0  3  0  0  0  0  0  0  0  0  0  0
   21.9744   17.8091   26.4525 H   0  0  0  0  0  0  0  0  0  0  0  0
   22.0869   16.2603   25.8927 H   0  0  0  0  0  0  0  0  0  0  0  0
   20.6051   16.9612   26.0871 H   0  0  0  0  0  0  0  0  0  0  0  0
  1  2  1  0  0  0  0
  1  3  1  0  0  0  0
  1  4  1  0  0  0  0
  1  5  1  0  0  0  0
  5  6  1  0  0  0  0
  5  7  1  0  0  0  0
  5  8  1  0  0  0  0
  8  9  1  0  0  0  0
  8 10  1  0  0  0  0
  8 11  1  0  0  0  0
 11 12  1  0  0  0  0
 11 13  1  0  0  0  0
 11 14  1  0  0  0  0
 14 15  1  0  0  0  0
 14 16  1  0  0  0  0
 14 17  1  0  0  0  0
 17 18  1  0  0  0  0
 17 19  1  0  0  0  0
 17 20  1  0  0  0  0
 20 21  1  0  0  0  0
 20 22  1  0  0  0  0
 22 23  1  0  0  0  0
 22 24  1  0  0  0  0
 22 25  1  0  0  0  0
 20 26  1  0  0  0  0
 26 27  1  0  0  0  0
 26 28  1  0  0  0  0
 26 29  1  0  0  0  0
M  END
> <VConfSearch Rank>
280

> <Conf_Id>
117

> <Delta U+W>
3.377

> <U+W>
-24.449

> <U>
27.947

> <W>
-52.396

> <W(PB)>
-54.842

> <W(SA)>
2.447

> <Valence>
6.731

> <Coulomb>
20.067

> <VdW>
1.149

> <VdW6>
-10.427

> <VdW12>
11.575

> <Bond>
0.324

> <Angle>
1.943

> <Pdih>
4.465

> <Idih>
0.000

> <Tether>
0.000

$$$$
VeraChem MOL file


 29 28  0  0  0  0  0  0  0  0999 V2000     
   24.2472   17.3115   23.4607 C   0  0  0  0  0  0  0  0  0  0  0  0
   24.0452   16.6869   22.5808 H   0  0  0  0  0  0  0  0  0  0  0  0
   24.7264   18.2384   23.1194 H   0  0  0  0  0  0  0  0  0  0  0  0
   24.9639   16.7760   24.0968 H   0  0  0  0  0  0  0  0  0  0  0  0
   22.9480   17.6123   24.2375 C   0  0  0  0  0  0  0  0  0  0  0  0
   23.1861   18.2092   25.1291 H   0  0  0  0  0  0  0  0  0  0  0  0
   22.5102   16.6696   24.5946 H   0  0  0  0  0  0  0  0  0  0  0  0
   21.9211   18.3664   23.3641 C   0  0  0  0  0  0  0  0  0  0  0  0
   22.3640   19.3067   23.0077 H   0  0  0  0  0  0  0  0  0  0  0  0
   21.6880   17.7669   22.4732 H   0  0  0  0  0  0  0  0  0  0  0  0
   20.6187   18.6694   24.1386 C   0  0  0  0  0  0  0  0  0  0  0  0
   20.8535   19.2677   25.0299 H   0  0  0  0  0  0  0  0  0  0  0  0
   20.1763   17.7286   24.4945 H   0  0  0  0  0  0  0  0  0  0  0  0
   19.5919   19.4245   23.2647 C   0  0  0  0  0  0  0  0  0  0  0  0
   20.0338   20.3669   22.9122 H   0  0  0  0  0  0  0  0  0  0  0  0
   19.3675   18.8235   22.3735 H   0  0  0  0  0  0  0  0  0  0  0  0
   18.2878   19.7257   24.0426 C   0  0  0  0  0  0  0  0  0  0  0  0
   18.5399   20.2794   24.9569 H   0  0  0  0  0  0  0  0  0  0  0  0
   17.8214   18.7850   24.3644 H   0  0  0  0  0  0  0  0  0  0  0  0
   17.2748   20.5538   23.2228 C   0  0  2  0  0  0  0  0  0  0  0  0
   17.7695   21.4730   22.8940 H   0  0  0  0  0  0  0  0  0  0  0  0
   16.0697   20.9397   24.0952 C   0  0  0  0  0  0  0  0  0  0  0  0
   15.3631   21.5592   23.5292 H   0  0  0  0  0  0  0  0  0  0  0  0
   15.5356   20.0496   24.4505 H   0  0  0  0  0  0  0  0  0  0  0  0
   16.3913   21.5174   24.9708 H   0  0  0  0  0  0  0  0  0  0  0  0
   16.8186   19.8391   21.9803 N   0  3  0  0  0  0  0  0  0  0  0  0
   17.6070   19.6146   21.3674 H   0  0  0  0  0  0  0  0  0  0  0  0
   16.1630   20.4105   21.4395 H   0  0  0  0  0  0  0  0  0  0  0  0
   16.3446   18.9610   22.2079 H   0  0  0  0  0  0  0  0  0  0  0  0
  1  2  1  0  0  0  0
  1  3  1  0  0  0  0
  1  4  1  0  0  0  0
  1  5  1  0  0  0  0
  5  6  1  0  0  0  0
  5  7  1  0  0  0  0
  5  8  1  0  0  0  0
  8  9  1  0  0  0  0
  8 10  1  0  0  0  0
  8 11  1  0  0  0  0
 11 12  1  0  0  0  0
 11 13  1  0  0  0  0
 11 14  1  0  0  0  0
 14 15  1  0  0  0  0
 14 16  1  0  0  0  0
 14 17  1  0  0  0  0
 17 18  1  0  0  0  0
 17 19  1  0  0  0  0
 17 20  1  0  0  0  0
 20 21  1  0  0  0  0
 20 22  1  0  0  0  0
 22 23  1  0  0  0  0
 22 24  1  0  0  0  0
 22 25  1  0  0  0  0
 20 26  1  0  0  0  0
 26 27  1  0  0  0  0
 26 28  1  0  0  0  0
 26 29  1  0  0  0  0
M  END
> <VConfSearch Rank>
281

> <Conf_Id>
164

> <Delta U+W>
0.000

> <U+W>
-27.826

> <U>
23.963

> <W>
-51.789

> <W(PB)>
-54.342

> <W(SA)>
2.554

> <Valence>
3.166

> <Coulomb>
19.734

> <VdW>
1.062

> <VdW6>
-7.938

> <VdW12>
9.001

> <Bond>
0.188

> <Angle>
0.880

> <Pdih>
2.098

> <Idih>
0.000

> <Tether>
0.000

$$$$
VeraChem MOL file


 29 28  0  0  0  0  0  0  0  0999 V2000     
   18.6224   19.6356   18.8417 C   0  0  0  0  0  0  0  0  0  0  0  0
   19.1624   20.5829   18.7133 H   0  0  0  0  0  0  0  0  0  0  0  0
   19.2808   18.8198   18.5158 H   0  0  0  0  0  0  0  0  0  0  0  0
   17.7503   19.6517   18.1752 H   0  0  0  0  0  0  0  0  0  0  0  0
   18.1837   19.4418   20.3086 C   0  0  0  0  0  0  0  0  0  0  0  0
   17.6178   18.5040   20.3990 H   0  0  0  0  0  0  0  0  0  0  0  0
   17.5002   20.2535   20.5950 H   0  0  0  0  0  0  0  0  0  0  0  0
   19.3935   19.4156   21.2686 C   0  0  0  0  0  0  0  0  0  0  0  0
   20.0748   18.6043   20.9769 H   0  0  0  0  0  0  0  0  0  0  0  0
   19.9572   20.3539   21.1731 H   0  0  0  0  0  0  0  0  0  0  0  0
   18.9581   19.2216   22.7386 C   0  0  0  0  0  0  0  0  0  0  0  0
   18.3947   18.2829   22.8334 H   0  0  0  0  0  0  0  0  0  0  0  0
   18.2757   20.0327   23.0283 H   0  0  0  0  0  0  0  0  0  0  0  0
   20.1688   19.1959   23.6988 C   0  0  0  0  0  0  0  0  0  0  0  0
   20.8477   18.3882   23.3955 H   0  0  0  0  0  0  0  0  0  0  0  0
   20.7291   20.1368   23.6076 H   0  0  0  0  0  0  0  0  0  0  0  0
   19.7300   18.9967   25.1704 C   0  0  0  0  0  0  0  0  0  0  0  0
   19.2268   18.0267   25.2789 H   0  0  0  0  0  0  0  0  0  0  0  0
   18.9846   19.7635   25.4195 H   0  0  0  0  0  0  0  0  0  0  0  0
   20.8914   19.0964   26.1857 C   0  0  2  0  0  0  0  0  0  0  0  0
   21.4023   20.0516   26.0301 H   0  0  0  0  0  0  0  0  0  0  0  0
   21.9159   17.9612   26.0095 C   0  0  0  0  0  0  0  0  0  0  0  0
   21.4369   16.9778   26.0938 H   0  0  0  0  0  0  0  0  0  0  0  0
   22.4124   18.0197   25.0341 H   0  0  0  0  0  0  0  0  0  0  0  0
   22.6985   18.0250   26.7755 H   0  0  0  0  0  0  0  0  0  0  0  0
   20.3761   19.1165   27.5979 N   0  3  0  0  0  0  0  0  0  0  0  0
   21.1389   19.2223   28.2729 H   0  0  0  0  0  0  0  0  0  0  0  0
   19.8824   18.2499   27.8283 H   0  0  0  0  0  0  0  0  0  0  0  0
   19.7246   19.8918   27.7508 H   0  0  0  0  0  0  0  0  0  0  0  0
  1  2  1  0  0  0  0
  1  3  1  0  0  0  0
  1  4  1  0  0  0  0
  1  5  1  0  0  0  0
  5  6  1  0  0  0  0
  5  7  1  0  0  0  0
  5  8  1  0  0  0  0
  8  9  1  0  0  0  0
  8 10  1  0  0  0  0
  8 11  1  0  0  0  0
 11 12  1  0  0  0  0
 11 13  1  0  0  0  0
 11 14  1  0  0  0  0
 14 15  1  0  0  0  0
 14 16  1  0  0  0  0
 14 17  1  0  0  0  0
 17 18  1  0  0  0  0
 17 19  1  0  0  0  0
 17 20  1  0  0  0  0
 20 21  1  0  0  0  0
 20 22  1  0  0  0  0
 22 23  1  0  0  0  0
 22 24  1  0  0  0  0
 22 25  1  0  0  0  0
 20 26  1  0  0  0  0
 26 27  1  0  0  0  0
 26 28  1  0  0  0  0
 26 29  1  0  0  0  0
M  END
> <VConfSearch Rank>
282

> <Conf_Id>
58

> <Delta U+W>
0.412

> <U+W>
-27.414

> <U>
24.279

> <W>
-51.694

> <W(PB)>
-54.271

> <W(SA)>
2.577

> <Valence>
3.709

> <Coulomb>
19.380

> <VdW>
1.191

> <VdW6>
-8.093

> <VdW12>
9.284

> <Bond>
0.200

> <Angle>
1.161

> <Pdih>
2.348

> <Idih>
0.000

> <Tether>
0.000

$$$$
VeraChem MOL file


 29 28  0  0  0  0  0  0  0  0999 V2000     
   20.7689   14.7208   24.7932 C   0  0  0  0  0  0  0  0  0  0  0  0
   20.1696   14.2825   23.9844 H   0  0  0  0  0  0  0  0  0  0  0  0
   21.8047   14.8112   24.4408 H   0  0  0  0  0  0  0  0  0  0  0  0
   20.7600   14.0193   25.6375 H   0  0  0  0  0  0  0  0  0  0  0  0
   20.2062   16.0933   25.2192 C   0  0  0  0  0  0  0  0  0  0  0  0
   20.8049   16.4905   26.0509 H   0  0  0  0  0  0  0  0  0  0  0  0
   19.1823   15.9659   25.5979 H   0  0  0  0  0  0  0  0  0  0  0  0
   20.2075   17.1004   24.0481 C   0  0  0  0  0  0  0  0  0  0  0  0
   21.2325   17.2228   23.6716 H   0  0  0  0  0  0  0  0  0  0  0  0
   19.6100   16.6979   23.2184 H   0  0  0  0  0  0  0  0  0  0  0  0
   19.6444   18.4760   24.4709 C   0  0  0  0  0  0  0  0  0  0  0  0
   20.2423   18.8771   25.3010 H   0  0  0  0  0  0  0  0  0  0  0  0
   18.6196   18.3523   24.8477 H   0  0  0  0  0  0  0  0  0  0  0  0
   19.6456   19.4834   23.2990 C   0  0  0  0  0  0  0  0  0  0  0  0
   20.6717   19.6011   22.9264 H   0  0  0  0  0  0  0  0  0  0  0  0
   19.0502   19.0717   22.4735 H   0  0  0  0  0  0  0  0  0  0  0  0
   19.0763   20.8605   23.7287 C   0  0  0  0  0  0  0  0  0  0  0  0
   19.6502   21.2362   24.5861 H   0  0  0  0  0  0  0  0  0  0  0  0
   18.0467   20.7314   24.0879 H   0  0  0  0  0  0  0  0  0  0  0  0
   19.0849   21.9429   22.6235 C   0  0  2  0  0  0  0  0  0  0  0  0
   18.6897   22.8626   23.0661 H   0  0  0  0  0  0  0  0  0  0  0  0
   18.1760   21.5688   21.4397 C   0  0  0  0  0  0  0  0  0  0  0  0
   18.0940   22.4087   20.7390 H   0  0  0  0  0  0  0  0  0  0  0  0
   18.5661   20.7073   20.8850 H   0  0  0  0  0  0  0  0  0  0  0  0
   17.1641   21.3254   21.7868 H   0  0  0  0  0  0  0  0  0  0  0  0
   20.4748   22.2711   22.1524 N   0  3  0  0  0  0  0  0  0  0  0  0
   21.0748   22.5643   22.9288 H   0  0  0  0  0  0  0  0  0  0  0  0
   20.4676   23.0318   21.4668 H   0  0  0  0  0  0  0  0  0  0  0  0
   20.9171   21.4622   21.7091 H   0  0  0  0  0  0  0  0  0  0  0  0
  1  2  1  0  0  0  0
  1  3  1  0  0  0  0
  1  4  1  0  0  0  0
  1  5  1  0  0  0  0
  5  6  1  0  0  0  0
  5  7  1  0  0  0  0
  5  8  1  0  0  0  0
  8  9  1  0  0  0  0
  8 10  1  0  0  0  0
  8 11  1  0  0  0  0
 11 12  1  0  0  0  0
 11 13  1  0  0  0  0
 11 14  1  0  0  0  0
 14 15  1  0  0  0  0
 14 16  1  0  0  0  0
 14 17  1  0  0  0  0
 17 18  1  0  0  0  0
 17 19  1  0  0  0  0
 17 20  1  0  0  0  0
 20 21  1  0  0  0  0
 20 22  1  0  0  0  0
 22 23  1  0  0  0  0
 22 24  1  0  0  0  0
 22 25  1  0  0  0  0
 20 26  1  0  0  0  0
 26 27  1  0  0  0  0
 26 28  1  0  0  0  0
 26 29  1  0  0  0  0
M  END
> <VConfSearch Rank>
283

> <Conf_Id>
137

> <Delta U+W>
0.280

> <U+W>
-27.546

> <U>
24.513

> <W>
-52.059

> <W(PB)>
-54.556

> <W(SA)>
2.497

> <Valence>
3.677

> <Coulomb>
19.662

> <VdW>
1.174

> <VdW6>
-8.569

> <VdW12>
9.743

> <Bond>
0.224

> <Angle>
1.211

> <Pdih>
2.243

> <Idih>
0.000

> <Tether>
0.000

$$$$
VeraChem MOL file


 29 28  0  0  0  0  0  0  0  0999 V2000     
   15.5121   17.7672   23.7441 C   0  0  0  0  0  0  0  0  0  0  0  0
   15.9405   17.0450   24.4513 H   0  0  0  0  0  0  0  0  0  0  0  0
   15.1697   18.6413   24.3132 H   0  0  0  0  0  0  0  0  0  0  0  0
   14.6332   17.3026   23.2787 H   0  0  0  0  0  0  0  0  0  0  0  0
   16.5454   18.1736   22.6720 C   0  0  0  0  0  0  0  0  0  0  0  0
   16.0776   18.8684   21.9605 H   0  0  0  0  0  0  0  0  0  0  0  0
   16.8442   17.2852   22.0981 H   0  0  0  0  0  0  0  0  0  0  0  0
   17.7935   18.8317   23.3009 C   0  0  0  0  0  0  0  0  0  0  0  0
   17.4898   19.7203   23.8712 H   0  0  0  0  0  0  0  0  0  0  0  0
   18.2435   18.1311   24.0159 H   0  0  0  0  0  0  0  0  0  0  0  0
   18.8318   19.2355   22.2264 C   0  0  0  0  0  0  0  0  0  0  0  0
   18.3377   19.8665   21.4747 H   0  0  0  0  0  0  0  0  0  0  0  0
   19.1829   18.3406   21.6942 H   0  0  0  0  0  0  0  0  0  0  0  0
   20.0458   20.0126   22.7929 C   0  0  0  0  0  0  0  0  0  0  0  0
   20.6357   20.3783   21.9428 H   0  0  0  0  0  0  0  0  0  0  0  0
   19.6935   20.9031   23.3316 H   0  0  0  0  0  0  0  0  0  0  0  0
   20.9481   19.1606   23.7233 C   0  0  0  0  0  0  0  0  0  0  0  0
   21.3088   18.2761   23.1817 H   0  0  0  0  0  0  0  0  0  0  0  0
   20.3471   18.7891   24.5620 H   0  0  0  0  0  0  0  0  0  0  0  0
   22.1500   19.9381   24.3076 C   0  0  2  0  0  0  0  0  0  0  0  0
   21.7712   20.8452   24.7886 H   0  0  0  0  0  0  0  0  0  0  0  0
   23.1632   20.3471   23.2231 C   0  0  0  0  0  0  0  0  0  0  0  0
   23.5214   19.4732   22.6648 H   0  0  0  0  0  0  0  0  0  0  0  0
   22.7233   21.0542   22.5106 H   0  0  0  0  0  0  0  0  0  0  0  0
   24.0323   20.8419   23.6739 H   0  0  0  0  0  0  0  0  0  0  0  0
   22.8369   19.1437   25.3836 N   0  3  0  0  0  0  0  0  0  0  0  0
   22.1926   18.8976   26.1406 H   0  0  0  0  0  0  0  0  0  0  0  0
   23.6100   19.6699   25.8009 H   0  0  0  0  0  0  0  0  0  0  0  0
   23.2254   18.2716   25.0142 H   0  0  0  0  0  0  0  0  0  0  0  0
  1  2  1  0  0  0  0
  1  3  1  0  0  0  0
  1  4  1  0  0  0  0
  1  5  1  0  0  0  0
  5  6  1  0  0  0  0
  5  7  1  0  0  0  0
  5  8  1  0  0  0  0
  8  9  1  0  0  0  0
  8 10  1  0  0  0  0
  8 11  1  0  0  0  0
 11 12  1  0  0  0  0
 11 13  1  0  0  0  0
 11 14  1  0  0  0  0
 14 15  1  0  0  0  0
 14 16  1  0  0  0  0
 14 17  1  0  0  0  0
 17 18  1  0  0  0  0
 17 19  1  0  0  0  0
 17 20  1  0  0  0  0
 20 21  1  0  0  0  0
 20 22  1  0  0  0  0
 22 23  1  0  0  0  0
 22 24  1  0  0  0  0
 22 25  1  0  0  0  0
 20 26  1  0  0  0  0
 26 27  1  0  0  0  0
 26 28  1  0  0  0  0
 26 29  1  0  0  0  0
M  END
> <VConfSearch Rank>
284

> <Conf_Id>
40

> <Delta U+W>
1.128

> <U+W>
-26.698

> <U>
25.442

> <W>
-52.140

> <W(PB)>
-54.658

> <W(SA)>
2.519

> <Valence>
4.343

> <Coulomb>
19.740

> <VdW>
1.360

> <VdW6>
-8.739

> <VdW12>
10.099

> <Bond>
0.251

> <Angle>
1.483

> <Pdih>
2.608

> <Idih>
0.000

> <Tether>
0.000

$$$$
VeraChem MOL file


 29 28  0  0  0  0  0  0  0  0999 V2000     
   20.4285   14.9289   24.5205 C   0  0  0  0  0  0  0  0  0  0  0  0
   19.5167   14.8740   23.9133 H   0  0  0  0  0  0  0  0  0  0  0  0
   21.2941   14.8368   23.8517 H   0  0  0  0  0  0  0  0  0  0  0  0
   20.4294   14.0605   25.1919 H   0  0  0  0  0  0  0  0  0  0  0  0
   20.4923   16.2411   25.3348 C   0  0  0  0  0  0  0  0  0  0  0  0
   21.3510   16.1895   26.0187 H   0  0  0  0  0  0  0  0  0  0  0  0
   19.5991   16.3272   25.9692 H   0  0  0  0  0  0  0  0  0  0  0  0
   20.6351   17.5078   24.4564 C   0  0  0  0  0  0  0  0  0  0  0  0
   20.8116   18.3617   25.1224 H   0  0  0  0  0  0  0  0  0  0  0  0
   21.5292   17.4165   23.8246 H   0  0  0  0  0  0  0  0  0  0  0  0
   19.3940   17.7866   23.5705 C   0  0  0  0  0  0  0  0  0  0  0  0
   18.5006   17.8837   24.2024 H   0  0  0  0  0  0  0  0  0  0  0  0
   19.2156   16.9253   22.9141 H   0  0  0  0  0  0  0  0  0  0  0  0
   19.5374   19.0437   22.6771 C   0  0  0  0  0  0  0  0  0  0  0  0
   20.4420   18.9544   22.0597 H   0  0  0  0  0  0  0  0  0  0  0  0
   18.6889   19.0614   21.9807 H   0  0  0  0  0  0  0  0  0  0  0  0
   19.5772   20.3726   23.4752 C   0  0  0  0  0  0  0  0  0  0  0  0
   20.4414   20.3659   24.1505 H   0  0  0  0  0  0  0  0  0  0  0  0
   18.6836   20.4531   24.1082 H   0  0  0  0  0  0  0  0  0  0  0  0
   19.6826   21.6170   22.5667 C   0  0  2  0  0  0  0  0  0  0  0  0
   20.5578   21.4970   21.9208 H   0  0  0  0  0  0  0  0  0  0  0  0
   19.8796   22.8832   23.4157 C   0  0  0  0  0  0  0  0  0  0  0  0
   19.9902   23.7669   22.7753 H   0  0  0  0  0  0  0  0  0  0  0  0
   19.0254   23.0498   24.0840 H   0  0  0  0  0  0  0  0  0  0  0  0
   20.7844   22.8034   24.0311 H   0  0  0  0  0  0  0  0  0  0  0  0
   18.4924   21.7730   21.6600 N   0  3  0  0  0  0  0  0  0  0  0  0
   17.6279   21.8874   22.1958 H   0  0  0  0  0  0  0  0  0  0  0  0
   18.3743   20.9568   21.0539 H   0  0  0  0  0  0  0  0  0  0  0  0
   18.5887   22.5929   21.0541 H   0  0  0  0  0  0  0  0  0  0  0  0
  1  2  1  0  0  0  0
  1  3  1  0  0  0  0
  1  4  1  0  0  0  0
  1  5  1  0  0  0  0
  5  6  1  0  0  0  0
  5  7  1  0  0  0  0
  5  8  1  0  0  0  0
  8  9  1  0  0  0  0
  8 10  1  0  0  0  0
  8 11  1  0  0  0  0
 11 12  1  0  0  0  0
 11 13  1  0  0  0  0
 11 14  1  0  0  0  0
 14 15  1  0  0  0  0
 14 16  1  0  0  0  0
 14 17  1  0  0  0  0
 17 18  1  0  0  0  0
 17 19  1  0  0  0  0
 17 20  1  0  0  0  0
 20 21  1  0  0  0  0
 20 22  1  0  0  0  0
 22 23  1  0  0  0  0
 22 24  1  0  0  0  0
 22 25  1  0  0  0  0
 20 26  1  0  0  0  0
 26 27  1  0  0  0  0
 26 28  1  0  0  0  0
 26 29  1  0  0  0  0
M  END
> <VConfSearch Rank>
285

> <Conf_Id>
134

> <Delta U+W>
1.228

> <U+W>
-26.598

> <U>
25.451

> <W>
-52.048

> <W(PB)>
-54.539

> <W(SA)>
2.490

> <Valence>
4.319

> <Coulomb>
19.732

> <VdW>
1.400

> <VdW6>
-9.173

> <VdW12>
10.573

> <Bond>
0.281

> <Angle>
1.459

> <Pdih>
2.580

> <Idih>
0.000

> <Tether>
0.000

$$$$
VeraChem MOL file


 29 28  0  0  0  0  0  0  0  0999 V2000     
   20.1231   15.3977   25.7478 C   0  0  0  0  0  0  0  0  0  0  0  0
   19.6554   16.0264   26.5155 H   0  0  0  0  0  0  0  0  0  0  0  0
   19.3275   14.9362   25.1485 H   0  0  0  0  0  0  0  0  0  0  0  0
   20.6627   14.5938   26.2650 H   0  0  0  0  0  0  0  0  0  0  0  0
   21.0895   16.2109   24.8570 C   0  0  0  0  0  0  0  0  0  0  0  0
   21.6253   15.5172   24.1940 H   0  0  0  0  0  0  0  0  0  0  0  0
   21.8549   16.6907   25.4828 H   0  0  0  0  0  0  0  0  0  0  0  0
   20.3796   17.2771   23.9880 C   0  0  0  0  0  0  0  0  0  0  0  0
   21.1215   17.7013   23.2994 H   0  0  0  0  0  0  0  0  0  0  0  0
   19.6172   16.7923   23.3629 H   0  0  0  0  0  0  0  0  0  0  0  0
   19.7312   18.4155   24.8161 C   0  0  0  0  0  0  0  0  0  0  0  0
   20.4940   18.9012   25.4399 H   0  0  0  0  0  0  0  0  0  0  0  0
   18.9925   17.9896   25.5071 H   0  0  0  0  0  0  0  0  0  0  0  0
   19.0154   19.4795   23.9477 C   0  0  0  0  0  0  0  0  0  0  0  0
   18.2451   18.9865   23.3401 H   0  0  0  0  0  0  0  0  0  0  0  0
   18.4876   20.1748   24.6150 H   0  0  0  0  0  0  0  0  0  0  0  0
   19.9786   20.2873   23.0399 C   0  0  0  0  0  0  0  0  0  0  0  0
   20.4077   19.6349   22.2690 H   0  0  0  0  0  0  0  0  0  0  0  0
   20.8176   20.6458   23.6506 H   0  0  0  0  0  0  0  0  0  0  0  0
   19.3114   21.5051   22.3611 C   0  0  2  0  0  0  0  0  0  0  0  0
   18.8592   22.1270   23.1398 H   0  0  0  0  0  0  0  0  0  0  0  0
   18.2094   21.0844   21.3723 C   0  0  0  0  0  0  0  0  0  0  0  0
   18.6036   20.4093   20.6025 H   0  0  0  0  0  0  0  0  0  0  0  0
   17.3856   20.5759   21.8864 H   0  0  0  0  0  0  0  0  0  0  0  0
   17.7855   21.9626   20.8698 H   0  0  0  0  0  0  0  0  0  0  0  0
   20.3307   22.3667   21.6690 N   0  3  0  0  0  0  0  0  0  0  0  0
   21.0514   22.6940   22.3189 H   0  0  0  0  0  0  0  0  0  0  0  0
   19.8980   23.1957   21.2517 H   0  0  0  0  0  0  0  0  0  0  0  0
   20.8027   21.8572   20.9171 H   0  0  0  0  0  0  0  0  0  0  0  0
  1  2  1  0  0  0  0
  1  3  1  0  0  0  0
  1  4  1  0  0  0  0
  1  5  1  0  0  0  0
  5  6  1  0  0  0  0
  5  7  1  0  0  0  0
  5  8  1  0  0  0  0
  8  9  1  0  0  0  0
  8 10  1  0  0  0  0
  8 11  1  0  0  0  0
 11 12  1  0  0  0  0
 11 13  1  0  0  0  0
 11 14  1  0  0  0  0
 14 15  1  0  0  0  0
 14 16  1  0  0  0  0
 14 17  1  0  0  0  0
 17 18  1  0  0  0  0
 17 19  1  0  0  0  0
 17 20  1  0  0  0  0
 20 21  1  0  0  0  0
 20 22  1  0  0  0  0
 22 23  1  0  0  0  0
 22 24  1  0  0  0  0
 22 25  1  0  0  0  0
 20 26  1  0  0  0  0
 26 27  1  0  0  0  0
 26 28  1  0  0  0  0
 26 29  1  0  0  0  0
M  END
> <VConfSearch Rank>
286

> <Conf_Id>
73

> <Delta U+W>
1.580

> <U+W>
-26.246

> <U>
25.821

> <W>
-52.067

> <W(PB)>
-54.581

> <W(SA)>
2.514

> <Valence>
4.779

> <Coulomb>
19.614

> <VdW>
1.428

> <VdW6>
-9.390

> <VdW12>
10.818

> <Bond>
0.283

> <Angle>
1.640

> <Pdih>
2.856

> <Idih>
0.000

> <Tether>
0.000

$$$$
VeraChem MOL file


 29 28  0  0  0  0  0  0  0  0999 V2000     
   22.9541   22.2657   23.6061 C   0  0  0  0  0  0  0  0  0  0  0  0
   22.9365   22.0455   24.6815 H   0  0  0  0  0  0  0  0  0  0  0  0
   23.9612   22.6202   23.3512 H   0  0  0  0  0  0  0  0  0  0  0  0
   22.2494   23.0851   23.4132 H   0  0  0  0  0  0  0  0  0  0  0  0
   22.5907   21.0152   22.7778 C   0  0  0  0  0  0  0  0  0  0  0  0
   23.3309   20.2250   22.9664 H   0  0  0  0  0  0  0  0  0  0  0  0
   22.6510   21.2573   21.7074 H   0  0  0  0  0  0  0  0  0  0  0  0
   21.1760   20.4957   23.1169 C   0  0  0  0  0  0  0  0  0  0  0  0
   21.1275   20.2678   24.1895 H   0  0  0  0  0  0  0  0  0  0  0  0
   20.4397   21.2881   22.9242 H   0  0  0  0  0  0  0  0  0  0  0  0
   20.8130   19.2388   22.2899 C   0  0  0  0  0  0  0  0  0  0  0  0
   21.5127   18.4249   22.5251 H   0  0  0  0  0  0  0  0  0  0  0  0
   20.9493   19.4632   21.2229 H   0  0  0  0  0  0  0  0  0  0  0  0
   19.3588   18.7512   22.5042 C   0  0  0  0  0  0  0  0  0  0  0  0
   18.6598   19.5649   22.2658 H   0  0  0  0  0  0  0  0  0  0  0  0
   19.1598   17.9507   21.7797 H   0  0  0  0  0  0  0  0  0  0  0  0
   19.0852   18.2311   23.9390 C   0  0  0  0  0  0  0  0  0  0  0  0
   19.2600   19.0409   24.6580 H   0  0  0  0  0  0  0  0  0  0  0  0
   19.7958   17.4313   24.1864 H   0  0  0  0  0  0  0  0  0  0  0  0
   17.6408   17.7183   24.1280 C   0  0  2  0  0  0  0  0  0  0  0  0
   16.9522   18.5190   23.8411 H   0  0  0  0  0  0  0  0  0  0  0  0
   17.3867   17.3689   25.6031 C   0  0  0  0  0  0  0  0  0  0  0  0
   17.5499   18.2436   26.2450 H   0  0  0  0  0  0  0  0  0  0  0  0
   16.3517   17.0369   25.7508 H   0  0  0  0  0  0  0  0  0  0  0  0
   18.0547   16.5671   25.9419 H   0  0  0  0  0  0  0  0  0  0  0  0
   17.3265   16.5396   23.2476 N   0  3  0  0  0  0  0  0  0  0  0  0
   16.3601   16.2253   23.3744 H   0  0  0  0  0  0  0  0  0  0  0  0
   17.9372   15.7452   23.4559 H   0  0  0  0  0  0  0  0  0  0  0  0
   17.4461   16.7697   22.2575 H   0  0  0  0  0  0  0  0  0  0  0  0
  1  2  1  0  0  0  0
  1  3  1  0  0  0  0
  1  4  1  0  0  0  0
  1  5  1  0  0  0  0
  5  6  1  0  0  0  0
  5  7  1  0  0  0  0
  5  8  1  0  0  0  0
  8  9  1  0  0  0  0
  8 10  1  0  0  0  0
  8 11  1  0  0  0  0
 11 12  1  0  0  0  0
 11 13  1  0  0  0  0
 11 14  1  0  0  0  0
 14 15  1  0  0  0  0
 14 16  1  0  0  0  0
 14 17  1  0  0  0  0
 17 18  1  0  0  0  0
 17 19  1  0  0  0  0
 17 20  1  0  0  0  0
 20 21  1  0  0  0  0
 20 22  1  0  0  0  0
 22 23  1  0  0  0  0
 22 24  1  0  0  0  0
 22 25  1  0  0  0  0
 20 26  1  0  0  0  0
 26 27  1  0  0  0  0
 26 28  1  0  0  0  0
 26 29  1  0  0  0  0
M  END
> <VConfSearch Rank>
287

> <Conf_Id>
111

> <Delta U+W>
0.580

> <U+W>
-27.246

> <U>
24.710

> <W>
-51.957

> <W(PB)>
-54.511

> <W(SA)>
2.555

> <Valence>
3.735

> <Coulomb>
19.760

> <VdW>
1.216

> <VdW6>
-8.624

> <VdW12>
9.840

> <Bond>
0.236

> <Angle>
1.168

> <Pdih>
2.330

> <Idih>
0.000

> <Tether>
0.000

$$$$
VeraChem MOL file


 29 28  0  0  0  0  0  0  0  0999 V2000     
   21.6474   22.8936   24.5002 C   0  0  0  0  0  0  0  0  0  0  0  0
   22.0395   22.4989   25.4467 H   0  0  0  0  0  0  0  0  0  0  0  0
   22.3198   22.5762   23.6926 H   0  0  0  0  0  0  0  0  0  0  0  0
   21.6783   23.9896   24.5535 H   0  0  0  0  0  0  0  0  0  0  0  0
   20.2067   22.4007   24.2484 C   0  0  0  0  0  0  0  0  0  0  0  0
   19.8300   22.8376   23.3129 H   0  0  0  0  0  0  0  0  0  0  0  0
   19.5520   22.7626   25.0536 H   0  0  0  0  0  0  0  0  0  0  0  0
   20.1349   20.8597   24.1698 C   0  0  0  0  0  0  0  0  0  0  0  0
   20.7993   20.5109   23.3685 H   0  0  0  0  0  0  0  0  0  0  0  0
   20.5106   20.4277   25.1076 H   0  0  0  0  0  0  0  0  0  0  0  0
   18.6914   20.3646   23.9133 C   0  0  0  0  0  0  0  0  0  0  0  0
   18.3318   20.7532   22.9505 H   0  0  0  0  0  0  0  0  0  0  0  0
   18.0272   20.7834   24.6820 H   0  0  0  0  0  0  0  0  0  0  0  0
   18.5550   18.8224   23.9345 C   0  0  0  0  0  0  0  0  0  0  0  0
   18.8867   18.4471   24.9116 H   0  0  0  0  0  0  0  0  0  0  0  0
   17.4902   18.5653   23.8474 H   0  0  0  0  0  0  0  0  0  0  0  0
   19.3389   18.1191   22.7965 C   0  0  0  0  0  0  0  0  0  0  0  0
   20.4182   18.2490   22.9459 H   0  0  0  0  0  0  0  0  0  0  0  0
   19.0923   18.6103   21.8460 H   0  0  0  0  0  0  0  0  0  0  0  0
   19.0206   16.6123   22.6664 C   0  0  2  0  0  0  0  0  0  0  0  0
   17.9380   16.4986   22.5536 H   0  0  0  0  0  0  0  0  0  0  0  0
   19.4674   15.8173   23.9063 C   0  0  0  0  0  0  0  0  0  0  0  0
   20.5401   15.9482   24.0963 H   0  0  0  0  0  0  0  0  0  0  0  0
   18.9187   16.1330   24.8012 H   0  0  0  0  0  0  0  0  0  0  0  0
   19.2746   14.7462   23.7686 H   0  0  0  0  0  0  0  0  0  0  0  0
   19.6395   16.0321   21.4252 N   0  3  0  0  0  0  0  0  0  0  0  0
   19.3217   16.5193   20.5822 H   0  0  0  0  0  0  0  0  0  0  0  0
   19.3981   15.0431   21.3143 H   0  0  0  0  0  0  0  0  0  0  0  0
   20.6607   16.0961   21.4513 H   0  0  0  0  0  0  0  0  0  0  0  0
  1  2  1  0  0  0  0
  1  3  1  0  0  0  0
  1  4  1  0  0  0  0
  1  5  1  0  0  0  0
  5  6  1  0  0  0  0
  5  7  1  0  0  0  0
  5  8  1  0  0  0  0
  8  9  1  0  0  0  0
  8 10  1  0  0  0  0
  8 11  1  0  0  0  0
 11 12  1  0  0  0  0
 11 13  1  0  0  0  0
 11 14  1  0  0  0  0
 14 15  1  0  0  0  0
 14 16  1  0  0  0  0
 14 17  1  0  0  0  0
 17 18  1  0  0  0  0
 17 19  1  0  0  0  0
 17 20  1  0  0  0  0
 20 21  1  0  0  0  0
 20 22  1  0  0  0  0
 22 23  1  0  0  0  0
 22 24  1  0  0  0  0
 22 25  1  0  0  0  0
 20 26  1  0  0  0  0
 26 27  1  0  0  0  0
 26 28  1  0  0  0  0
 26 29  1  0  0  0  0
M  END
> <VConfSearch Rank>
288

> <Conf_Id>
39

> <Delta U+W>
0.965

> <U+W>
-26.861

> <U>
25.129

> <W>
-51.990

> <W(PB)>
-54.526

> <W(SA)>
2.536

> <Valence>
4.206

> <Coulomb>
19.678

> <VdW>
1.245

> <VdW6>
-8.834

> <VdW12>
10.079

> <Bond>
0.240

> <Angle>
1.353

> <Pdih>
2.613

> <Idih>
0.000

> <Tether>
0.000

$$$$
VeraChem MOL file


 29 28  0  0  0  0  0  0  0  0999 V2000     
   21.3931   22.2552   25.8225 C   0  0  0  0  0  0  0  0  0  0  0  0
   20.5259   22.2299   26.4951 H   0  0  0  0  0  0  0  0  0  0  0  0
   22.0480   21.4117   26.0730 H   0  0  0  0  0  0  0  0  0  0  0  0
   21.9511   23.1776   26.0291 H   0  0  0  0  0  0  0  0  0  0  0  0
   20.9500   22.2121   24.3424 C   0  0  0  0  0  0  0  0  0  0  0  0
   21.8350   22.2028   23.6910 H   0  0  0  0  0  0  0  0  0  0  0  0
   20.4074   23.1391   24.1102 H   0  0  0  0  0  0  0  0  0  0  0  0
   20.0384   21.0074   24.0048 C   0  0  0  0  0  0  0  0  0  0  0  0
   19.1551   21.0219   24.6580 H   0  0  0  0  0  0  0  0  0  0  0  0
   19.6688   21.1400   22.9801 H   0  0  0  0  0  0  0  0  0  0  0  0
   20.7558   19.6387   24.1246 C   0  0  0  0  0  0  0  0  0  0  0  0
   21.1314   19.5125   25.1481 H   0  0  0  0  0  0  0  0  0  0  0  0
   21.6365   19.6226   23.4680 H   0  0  0  0  0  0  0  0  0  0  0  0
   19.8431   18.4306   23.7992 C   0  0  0  0  0  0  0  0  0  0  0  0
   20.3932   17.5130   24.0450 H   0  0  0  0  0  0  0  0  0  0  0  0
   18.9676   18.4542   24.4616 H   0  0  0  0  0  0  0  0  0  0  0  0
   19.3899   18.3800   22.3144 C   0  0  0  0  0  0  0  0  0  0  0  0
   20.2698   18.4721   21.6643 H   0  0  0  0  0  0  0  0  0  0  0  0
   18.7549   19.2462   22.0911 H   0  0  0  0  0  0  0  0  0  0  0  0
   18.6179   17.1003   21.9151 C   0  0  2  0  0  0  0  0  0  0  0  0
   18.3678   17.1895   20.8534 H   0  0  0  0  0  0  0  0  0  0  0  0
   17.2989   16.9552   22.6938 C   0  0  0  0  0  0  0  0  0  0  0  0
   17.4761   16.7686   23.7597 H   0  0  0  0  0  0  0  0  0  0  0  0
   16.6891   17.8624   22.6000 H   0  0  0  0  0  0  0  0  0  0  0  0
   16.7111   16.1170   22.3000 H   0  0  0  0  0  0  0  0  0  0  0  0
   19.4575   15.8589   22.0414 N   0  3  0  0  0  0  0  0  0  0  0  0
   20.3181   15.9303   21.4911 H   0  0  0  0  0  0  0  0  0  0  0  0
   18.9522   15.0307   21.7136 H   0  0  0  0  0  0  0  0  0  0  0  0
   19.7262   15.6896   23.0138 H   0  0  0  0  0  0  0  0  0  0  0  0
  1  2  1  0  0  0  0
  1  3  1  0  0  0  0
  1  4  1  0  0  0  0
  1  5  1  0  0  0  0
  5  6  1  0  0  0  0
  5  7  1  0  0  0  0
  5  8  1  0  0  0  0
  8  9  1  0  0  0  0
  8 10  1  0  0  0  0
  8 11  1  0  0  0  0
 11 12  1  0  0  0  0
 11 13  1  0  0  0  0
 11 14  1  0  0  0  0
 14 15  1  0  0  0  0
 14 16  1  0  0  0  0
 14 17  1  0  0  0  0
 17 18  1  0  0  0  0
 17 19  1  0  0  0  0
 17 20  1  0  0  0  0
 20 21  1  0  0  0  0
 20 22  1  0  0  0  0
 22 23  1  0  0  0  0
 22 24  1  0  0  0  0
 22 25  1  0  0  0  0
 20 26  1  0  0  0  0
 26 27  1  0  0  0  0
 26 28  1  0  0  0  0
 26 29  1  0  0  0  0
M  END
> <VConfSearch Rank>
289

> <Conf_Id>
155

> <Delta U+W>
1.624

> <U+W>
-26.202

> <U>
25.894

> <W>
-52.096

> <W(PB)>
-54.602

> <W(SA)>
2.506

> <Valence>
4.779

> <Coulomb>
19.659

> <VdW>
1.456

> <VdW6>
-9.843

> <VdW12>
11.299

> <Bond>
0.315

> <Angle>
1.725

> <Pdih>
2.740

> <Idih>
0.000

> <Tether>
0.000

$$$$
VeraChem MOL file


 29 28  0  0  0  0  0  0  0  0999 V2000     
   21.6742   18.3656   20.0297 C   0  0  0  0  0  0  0  0  0  0  0  0
   22.2462   19.1837   20.4846 H   0  0  0  0  0  0  0  0  0  0  0  0
   21.8943   17.4429   20.5821 H   0  0  0  0  0  0  0  0  0  0  0  0
   22.0402   18.2378   19.0027 H   0  0  0  0  0  0  0  0  0  0  0  0
   20.1580   18.6652   20.0304 C   0  0  0  0  0  0  0  0  0  0  0  0
   19.6405   17.8778   19.4646 H   0  0  0  0  0  0  0  0  0  0  0  0
   19.9669   19.6052   19.4942 H   0  0  0  0  0  0  0  0  0  0  0  0
   19.5486   18.7391   21.4510 C   0  0  0  0  0  0  0  0  0  0  0  0
   18.4599   18.8541   21.3584 H   0  0  0  0  0  0  0  0  0  0  0  0
   19.7188   17.7829   21.9626 H   0  0  0  0  0  0  0  0  0  0  0  0
   20.1121   19.9074   22.2992 C   0  0  0  0  0  0  0  0  0  0  0  0
   20.0548   20.8338   21.7113 H   0  0  0  0  0  0  0  0  0  0  0  0
   21.1765   19.7405   22.5109 H   0  0  0  0  0  0  0  0  0  0  0  0
   19.3559   20.1272   23.6328 C   0  0  0  0  0  0  0  0  0  0  0  0
   19.7374   21.0507   24.0866 H   0  0  0  0  0  0  0  0  0  0  0  0
   18.2904   20.2999   23.4275 H   0  0  0  0  0  0  0  0  0  0  0  0
   19.5127   18.9522   24.6330 C   0  0  0  0  0  0  0  0  0  0  0  0
   20.5769   18.7873   24.8474 H   0  0  0  0  0  0  0  0  0  0  0  0
   19.1429   18.0324   24.1640 H   0  0  0  0  0  0  0  0  0  0  0  0
   18.7410   19.1547   25.9573 C   0  0  2  0  0  0  0  0  0  0  0  0
   17.6970   19.3771   25.7159 H   0  0  0  0  0  0  0  0  0  0  0  0
   19.3079   20.3181   26.7909 C   0  0  0  0  0  0  0  0  0  0  0  0
   20.3750   20.1729   27.0007 H   0  0  0  0  0  0  0  0  0  0  0  0
   19.1861   21.2770   26.2744 H   0  0  0  0  0  0  0  0  0  0  0  0
   18.7810   20.3986   27.7496 H   0  0  0  0  0  0  0  0  0  0  0  0
   18.7270   17.8923   26.7739 N   0  3  0  0  0  0  0  0  0  0  0  0
   18.3118   17.1124   26.2559 H   0  0  0  0  0  0  0  0  0  0  0  0
   18.1840   18.0096   27.6342 H   0  0  0  0  0  0  0  0  0  0  0  0
   19.6733   17.6123   27.0457 H   0  0  0  0  0  0  0  0  0  0  0  0
  1  2  1  0  0  0  0
  1  3  1  0  0  0  0
  1  4  1  0  0  0  0
  1  5  1  0  0  0  0
  5  6  1  0  0  0  0
  5  7  1  0  0  0  0
  5  8  1  0  0  0  0
  8  9  1  0  0  0  0
  8 10  1  0  0  0  0
  8 11  1  0  0  0  0
 11 12  1  0  0  0  0
 11 13  1  0  0  0  0
 11 14  1  0  0  0  0
 14 15  1  0  0  0  0
 14 16  1  0  0  0  0
 14 17  1  0  0  0  0
 17 18  1  0  0  0  0
 17 19  1  0  0  0  0
 17 20  1  0  0  0  0
 20 21  1  0  0  0  0
 20 22  1  0  0  0  0
 22 23  1  0  0  0  0
 22 24  1  0  0  0  0
 22 25  1  0  0  0  0
 20 26  1  0  0  0  0
 26 27  1  0  0  0  0
 26 28  1  0  0  0  0
 26 29  1  0  0  0  0
M  END
> <VConfSearch Rank>
290

> <Conf_Id>
135

> <Delta U+W>
1.581

> <U+W>
-26.245

> <U>
25.974

> <W>
-52.219

> <W(PB)>
-54.709

> <W(SA)>
2.490

> <Valence>
4.811

> <Coulomb>
19.700

> <VdW>
1.463

> <VdW6>
-9.391

> <VdW12>
10.854

> <Bond>
0.285

> <Angle>
1.671

> <Pdih>
2.855

> <Idih>
0.000

> <Tether>
0.000

$$$$
VeraChem MOL file


 29 28  0  0  0  0  0  0  0  0999 V2000     
   18.1595   22.4492   21.7892 C   0  0  0  0  0  0  0  0  0  0  0  0
   18.5121   22.8610   22.7437 H   0  0  0  0  0  0  0  0  0  0  0  0
   19.0319   22.2698   21.1486 H   0  0  0  0  0  0  0  0  0  0  0  0
   17.5428   23.2145   21.3005 H   0  0  0  0  0  0  0  0  0  0  0  0
   17.3426   21.1560   22.0099 C   0  0  0  0  0  0  0  0  0  0  0  0
   17.0242   20.7499   21.0396 H   0  0  0  0  0  0  0  0  0  0  0  0
   16.4221   21.4068   22.5554 H   0  0  0  0  0  0  0  0  0  0  0  0
   18.1118   20.0730   22.8040 C   0  0  0  0  0  0  0  0  0  0  0  0
   18.3984   20.4812   23.7821 H   0  0  0  0  0  0  0  0  0  0  0  0
   17.4292   19.2356   23.0037 H   0  0  0  0  0  0  0  0  0  0  0  0
   19.3633   19.5409   22.0614 C   0  0  0  0  0  0  0  0  0  0  0  0
   20.1086   20.3406   21.9586 H   0  0  0  0  0  0  0  0  0  0  0  0
   19.0782   19.2497   21.0411 H   0  0  0  0  0  0  0  0  0  0  0  0
   20.0172   18.3217   22.7567 C   0  0  0  0  0  0  0  0  0  0  0  0
   19.2815   17.5092   22.8214 H   0  0  0  0  0  0  0  0  0  0  0  0
   20.8332   17.9528   22.1200 H   0  0  0  0  0  0  0  0  0  0  0  0
   20.5811   18.6472   24.1637 C   0  0  0  0  0  0  0  0  0  0  0  0
   19.7610   18.8884   24.8518 H   0  0  0  0  0  0  0  0  0  0  0  0
   21.2047   19.5480   24.0911 H   0  0  0  0  0  0  0  0  0  0  0  0
   21.4342   17.5081   24.7666 C   0  0  2  0  0  0  0  0  0  0  0  0
   22.2244   17.2562   24.0526 H   0  0  0  0  0  0  0  0  0  0  0  0
   20.6011   16.2426   25.0379 C   0  0  0  0  0  0  0  0  0  0  0  0
   19.7573   16.4585   25.7051 H   0  0  0  0  0  0  0  0  0  0  0  0
   20.2045   15.8195   24.1077 H   0  0  0  0  0  0  0  0  0  0  0  0
   21.2179   15.4677   25.5095 H   0  0  0  0  0  0  0  0  0  0  0  0
   22.1259   17.9554   26.0243 N   0  3  0  0  0  0  0  0  0  0  0  0
   22.7235   17.2162   26.4054 H   0  0  0  0  0  0  0  0  0  0  0  0
   21.4521   18.2090   26.7519 H   0  0  0  0  0  0  0  0  0  0  0  0
   22.7209   18.7721   25.8573 H   0  0  0  0  0  0  0  0  0  0  0  0
  1  2  1  0  0  0  0
  1  3  1  0  0  0  0
  1  4  1  0  0  0  0
  1  5  1  0  0  0  0
  5  6  1  0  0  0  0
  5  7  1  0  0  0  0
  5  8  1  0  0  0  0
  8  9  1  0  0  0  0
  8 10  1  0  0  0  0
  8 11  1  0  0  0  0
 11 12  1  0  0  0  0
 11 13  1  0  0  0  0
 11 14  1  0  0  0  0
 14 15  1  0  0  0  0
 14 16  1  0  0  0  0
 14 17  1  0  0  0  0
 17 18  1  0  0  0  0
 17 19  1  0  0  0  0
 17 20  1  0  0  0  0
 20 21  1  0  0  0  0
 20 22  1  0  0  0  0
 22 23  1  0  0  0  0
 22 24  1  0  0  0  0
 22 25  1  0  0  0  0
 20 26  1  0  0  0  0
 26 27  1  0  0  0  0
 26 28  1  0  0  0  0
 26 29  1  0  0  0  0
M  END
> <VConfSearch Rank>
291

> <Conf_Id>
130

> <Delta U+W>
1.359

> <U+W>
-26.467

> <U>
25.687

> <W>
-52.154

> <W(PB)>
-54.643

> <W(SA)>
2.489

> <Valence>
4.682

> <Coulomb>
19.653

> <VdW>
1.352

> <VdW6>
-9.477

> <VdW12>
10.829

> <Bond>
0.274

> <Angle>
1.550

> <Pdih>
2.858

> <Idih>
0.000

> <Tether>
0.000

$$$$
VeraChem MOL file


 29 28  0  0  0  0  0  0  0  0999 V2000     
   23.4843   17.5031   24.2227 C   0  0  0  0  0  0  0  0  0  0  0  0
   24.1873   17.1847   25.0033 H   0  0  0  0  0  0  0  0  0  0  0  0
   23.7642   16.9946   23.2910 H   0  0  0  0  0  0  0  0  0  0  0  0
   23.6181   18.5825   24.0797 H   0  0  0  0  0  0  0  0  0  0  0  0
   22.0334   17.1594   24.6292 C   0  0  0  0  0  0  0  0  0  0  0  0
   21.7666   17.7058   25.5446 H   0  0  0  0  0  0  0  0  0  0  0  0
   21.9812   16.0913   24.8827 H   0  0  0  0  0  0  0  0  0  0  0  0
   20.9948   17.4571   23.5208 C   0  0  0  0  0  0  0  0  0  0  0  0
   21.2565   16.8940   22.6144 H   0  0  0  0  0  0  0  0  0  0  0  0
   20.0225   17.0706   23.8511 H   0  0  0  0  0  0  0  0  0  0  0  0
   20.8730   18.9645   23.1802 C   0  0  0  0  0  0  0  0  0  0  0  0
   21.8338   19.3214   22.7872 H   0  0  0  0  0  0  0  0  0  0  0  0
   20.6843   19.5357   24.0972 H   0  0  0  0  0  0  0  0  0  0  0  0
   19.7813   19.2627   22.1197 C   0  0  0  0  0  0  0  0  0  0  0  0
   19.9366   20.2684   21.7051 H   0  0  0  0  0  0  0  0  0  0  0  0
   19.9225   18.5741   21.2752 H   0  0  0  0  0  0  0  0  0  0  0  0
   18.3208   19.1375   22.6355 C   0  0  0  0  0  0  0  0  0  0  0  0
   18.2575   18.4246   23.4662 H   0  0  0  0  0  0  0  0  0  0  0  0
   17.7169   18.7068   21.8260 H   0  0  0  0  0  0  0  0  0  0  0  0
   17.6644   20.4778   23.0443 C   0  0  2  0  0  0  0  0  0  0  0  0
   17.7059   21.1538   22.1848 H   0  0  0  0  0  0  0  0  0  0  0  0
   18.3820   21.1554   24.2238 C   0  0  0  0  0  0  0  0  0  0  0  0
   19.3963   21.4620   23.9435 H   0  0  0  0  0  0  0  0  0  0  0  0
   17.8458   22.0604   24.5349 H   0  0  0  0  0  0  0  0  0  0  0  0
   18.4471   20.4835   25.0886 H   0  0  0  0  0  0  0  0  0  0  0  0
   16.2070   20.2895   23.3626 N   0  3  0  0  0  0  0  0  0  0  0  0
   15.6980   19.8822   22.5727 H   0  0  0  0  0  0  0  0  0  0  0  0
   15.7557   21.1804   23.5889 H   0  0  0  0  0  0  0  0  0  0  0  0
   16.0771   19.6685   24.1658 H   0  0  0  0  0  0  0  0  0  0  0  0
  1  2  1  0  0  0  0
  1  3  1  0  0  0  0
  1  4  1  0  0  0  0
  1  5  1  0  0  0  0
  5  6  1  0  0  0  0
  5  7  1  0  0  0  0
  5  8  1  0  0  0  0
  8  9  1  0  0  0  0
  8 10  1  0  0  0  0
  8 11  1  0  0  0  0
 11 12  1  0  0  0  0
 11 13  1  0  0  0  0
 11 14  1  0  0  0  0
 14 15  1  0  0  0  0
 14 16  1  0  0  0  0
 14 17  1  0  0  0  0
 17 18  1  0  0  0  0
 17 19  1  0  0  0  0
 17 20  1  0  0  0  0
 20 21  1  0  0  0  0
 20 22  1  0  0  0  0
 22 23  1  0  0  0  0
 22 24  1  0  0  0  0
 22 25  1  0  0  0  0
 20 26  1  0  0  0  0
 26 27  1  0  0  0  0
 26 28  1  0  0  0  0
 26 29  1  0  0  0  0
M  END
> <VConfSearch Rank>
292

> <Conf_Id>
157

> <Delta U+W>
4.354

> <U+W>
-23.472

> <U>
28.780

> <W>
-52.252

> <W(PB)>
-54.715

> <W(SA)>
2.462

> <Valence>
7.566

> <Coulomb>
19.822

> <VdW>
1.392

> <VdW6>
-10.248

> <VdW12>
11.641

> <Bond>
0.340

> <Angle>
2.096

> <Pdih>
5.129

> <Idih>
0.000

> <Tether>
0.000

$$$$
VeraChem MOL file


 29 28  0  0  0  0  0  0  0  0999 V2000     
   20.8668   18.3035   20.1076 C   0  0  0  0  0  0  0  0  0  0  0  0
   21.0768   18.7413   19.1232 H   0  0  0  0  0  0  0  0  0  0  0  0
   21.4237   18.8808   20.8538 H   0  0  0  0  0  0  0  0  0  0  0  0
   21.2635   17.2800   20.1082 H   0  0  0  0  0  0  0  0  0  0  0  0
   19.3456   18.3050   20.3867 C   0  0  0  0  0  0  0  0  0  0  0  0
   18.8553   17.7251   19.5922 H   0  0  0  0  0  0  0  0  0  0  0  0
   18.9434   19.3246   20.3084 H   0  0  0  0  0  0  0  0  0  0  0  0
   18.9720   17.6814   21.7561 C   0  0  0  0  0  0  0  0  0  0  0  0
   18.0284   17.1317   21.6347 H   0  0  0  0  0  0  0  0  0  0  0  0
   19.7171   16.9280   22.0466 H   0  0  0  0  0  0  0  0  0  0  0  0
   18.7711   18.7028   22.9053 C   0  0  0  0  0  0  0  0  0  0  0  0
   18.4399   18.1472   23.7920 H   0  0  0  0  0  0  0  0  0  0  0  0
   17.9490   19.3842   22.6467 H   0  0  0  0  0  0  0  0  0  0  0  0
   20.0341   19.5300   23.2499 C   0  0  0  0  0  0  0  0  0  0  0  0
   20.8843   18.8583   23.4272 H   0  0  0  0  0  0  0  0  0  0  0  0
   20.3042   20.1500   22.3856 H   0  0  0  0  0  0  0  0  0  0  0  0
   19.8369   20.4728   24.4650 C   0  0  0  0  0  0  0  0  0  0  0  0
   19.0368   21.1877   24.2311 H   0  0  0  0  0  0  0  0  0  0  0  0
   20.7486   21.0688   24.6045 H   0  0  0  0  0  0  0  0  0  0  0  0
   19.4953   19.7495   25.7872 C   0  0  2  0  0  0  0  0  0  0  0  0
   18.5689   19.1858   25.6438 H   0  0  0  0  0  0  0  0  0  0  0  0
   19.2630   20.7716   26.9110 C   0  0  0  0  0  0  0  0  0  0  0  0
   20.1669   21.3632   27.1030 H   0  0  0  0  0  0  0  0  0  0  0  0
   18.4521   21.4622   26.6478 H   0  0  0  0  0  0  0  0  0  0  0  0
   18.9808   20.2665   27.8429 H   0  0  0  0  0  0  0  0  0  0  0  0
   20.5501   18.7544   26.1857 N   0  3  0  0  0  0  0  0  0  0  0  0
   20.6847   18.0460   25.4590 H   0  0  0  0  0  0  0  0  0  0  0  0
   20.2974   18.2659   27.0495 H   0  0  0  0  0  0  0  0  0  0  0  0
   21.4524   19.2110   26.3435 H   0  0  0  0  0  0  0  0  0  0  0  0
  1  2  1  0  0  0  0
  1  3  1  0  0  0  0
  1  4  1  0  0  0  0
  1  5  1  0  0  0  0
  5  6  1  0  0  0  0
  5  7  1  0  0  0  0
  5  8  1  0  0  0  0
  8  9  1  0  0  0  0
  8 10  1  0  0  0  0
  8 11  1  0  0  0  0
 11 12  1  0  0  0  0
 11 13  1  0  0  0  0
 11 14  1  0  0  0  0
 14 15  1  0  0  0  0
 14 16  1  0  0  0  0
 14 17  1  0  0  0  0
 17 18  1  0  0  0  0
 17 19  1  0  0  0  0
 17 20  1  0  0  0  0
 20 21  1  0  0  0  0
 20 22  1  0  0  0  0
 22 23  1  0  0  0  0
 22 24  1  0  0  0  0
 22 25  1  0  0  0  0
 20 26  1  0  0  0  0
 26 27  1  0  0  0  0
 26 28  1  0  0  0  0
 26 29  1  0  0  0  0
M  END
> <VConfSearch Rank>
293

> <Conf_Id>
158

> <Delta U+W>
3.648

> <U+W>
-24.178

> <U>
28.057

> <W>
-52.235

> <W(PB)>
-54.696

> <W(SA)>
2.460

> <Valence>
6.543

> <Coulomb>
20.387

> <VdW>
1.127

> <VdW6>
-10.342

> <VdW12>
11.469

> <Bond>
0.308

> <Angle>
1.938

> <Pdih>
4.297

> <Idih>
0.000

> <Tether>
0.000

$$$$
VeraChem MOL file


 29 28  0  0  0  0  0  0  0  0999 V2000     
   20.9332   17.5662   26.7303 C   0  0  0  0  0  0  0  0  0  0  0  0
   19.9402   17.7898   27.1413 H   0  0  0  0  0  0  0  0  0  0  0  0
   20.8032   16.9543   25.8291 H   0  0  0  0  0  0  0  0  0  0  0  0
   21.4722   16.9569   27.4673 H   0  0  0  0  0  0  0  0  0  0  0  0
   21.7147   18.8648   26.4276 C   0  0  0  0  0  0  0  0  0  0  0  0
   22.6904   18.6153   25.9877 H   0  0  0  0  0  0  0  0  0  0  0  0
   21.9272   19.3789   27.3754 H   0  0  0  0  0  0  0  0  0  0  0  0
   20.9535   19.8379   25.4953 C   0  0  0  0  0  0  0  0  0  0  0  0
   19.9868   20.0981   25.9481 H   0  0  0  0  0  0  0  0  0  0  0  0
   21.5248   20.7740   25.4267 H   0  0  0  0  0  0  0  0  0  0  0  0
   20.7283   19.2775   24.0707 C   0  0  0  0  0  0  0  0  0  0  0  0
   20.1134   18.3725   24.1234 H   0  0  0  0  0  0  0  0  0  0  0  0
   21.6937   18.9766   23.6411 H   0  0  0  0  0  0  0  0  0  0  0  0
   20.0586   20.3223   23.1446 C   0  0  0  0  0  0  0  0  0  0  0  0
   19.1268   20.6932   23.5937 H   0  0  0  0  0  0  0  0  0  0  0  0
   20.7262   21.1921   23.0714 H   0  0  0  0  0  0  0  0  0  0  0  0
   19.7849   19.7907   21.7126 C   0  0  0  0  0  0  0  0  0  0  0  0
   20.5053   19.0032   21.4542 H   0  0  0  0  0  0  0  0  0  0  0  0
   19.9751   20.6119   21.0089 H   0  0  0  0  0  0  0  0  0  0  0  0
   18.3394   19.2944   21.4681 C   0  0  2  0  0  0  0  0  0  0  0  0
   17.6549   20.1195   21.6880 H   0  0  0  0  0  0  0  0  0  0  0  0
   17.9564   18.1031   22.3622 C   0  0  0  0  0  0  0  0  0  0  0  0
   18.6696   17.2769   22.2512 H   0  0  0  0  0  0  0  0  0  0  0  0
   17.9243   18.3979   23.4175 H   0  0  0  0  0  0  0  0  0  0  0  0
   16.9585   17.7291   22.1020 H   0  0  0  0  0  0  0  0  0  0  0  0
   18.1280   18.9459   20.0210 N   0  3  0  0  0  0  0  0  0  0  0  0
   18.3305   19.7409   19.4079 H   0  0  0  0  0  0  0  0  0  0  0  0
   17.1603   18.6623   19.8422 H   0  0  0  0  0  0  0  0  0  0  0  0
   18.7317   18.1719   19.7309 H   0  0  0  0  0  0  0  0  0  0  0  0
  1  2  1  0  0  0  0
  1  3  1  0  0  0  0
  1  4  1  0  0  0  0
  1  5  1  0  0  0  0
  5  6  1  0  0  0  0
  5  7  1  0  0  0  0
  5  8  1  0  0  0  0
  8  9  1  0  0  0  0
  8 10  1  0  0  0  0
  8 11  1  0  0  0  0
 11 12  1  0  0  0  0
 11 13  1  0  0  0  0
 11 14  1  0  0  0  0
 14 15  1  0  0  0  0
 14 16  1  0  0  0  0
 14 17  1  0  0  0  0
 17 18  1  0  0  0  0
 17 19  1  0  0  0  0
 17 20  1  0  0  0  0
 20 21  1  0  0  0  0
 20 22  1  0  0  0  0
 22 23  1  0  0  0  0
 22 24  1  0  0  0  0
 22 25  1  0  0  0  0
 20 26  1  0  0  0  0
 26 27  1  0  0  0  0
 26 28  1  0  0  0  0
 26 29  1  0  0  0  0
M  END
> <VConfSearch Rank>
294

> <Conf_Id>
156

> <Delta U+W>
3.393

> <U+W>
-24.433

> <U>
27.713

> <W>
-52.146

> <W(PB)>
-54.603

> <W(SA)>
2.458

> <Valence>
6.758

> <Coulomb>
19.720

> <VdW>
1.235

> <VdW6>
-9.782

> <VdW12>
11.017

> <Bond>
0.287

> <Angle>
1.880

> <Pdih>
4.591

> <Idih>
0.000

> <Tether>
0.000

$$$$
VeraChem MOL file


 29 28  0  0  0  0  0  0  0  0999 V2000     
   18.0745   19.4474   27.0305 C   0  0  0  0  0  0  0  0  0  0  0  0
   18.8673   20.1697   27.2650 H   0  0  0  0  0  0  0  0  0  0  0  0
   17.1069   19.9203   27.2434 H   0  0  0  0  0  0  0  0  0  0  0  0
   18.1872   18.5911   27.7081 H   0  0  0  0  0  0  0  0  0  0  0  0
   18.1578   18.9917   25.5584 C   0  0  0  0  0  0  0  0  0  0  0  0
   17.3724   18.2488   25.3613 H   0  0  0  0  0  0  0  0  0  0  0  0
   19.1205   18.4896   25.3953 H   0  0  0  0  0  0  0  0  0  0  0  0
   18.0060   20.1829   24.5835 C   0  0  0  0  0  0  0  0  0  0  0  0
   17.0738   20.7163   24.8152 H   0  0  0  0  0  0  0  0  0  0  0  0
   18.8145   20.9062   24.7518 H   0  0  0  0  0  0  0  0  0  0  0  0
   17.9682   19.7643   23.0907 C   0  0  0  0  0  0  0  0  0  0  0  0
   17.8349   20.6648   22.4755 H   0  0  0  0  0  0  0  0  0  0  0  0
   17.0746   19.1489   22.9182 H   0  0  0  0  0  0  0  0  0  0  0  0
   19.2108   18.9879   22.5826 C   0  0  0  0  0  0  0  0  0  0  0  0
   19.2847   18.0271   23.1070 H   0  0  0  0  0  0  0  0  0  0  0  0
   19.0427   18.7440   21.5258 H   0  0  0  0  0  0  0  0  0  0  0  0
   20.5370   19.7831   22.7280 C   0  0  0  0  0  0  0  0  0  0  0  0
   20.7195   20.0016   23.7873 H   0  0  0  0  0  0  0  0  0  0  0  0
   20.4336   20.7564   22.2305 H   0  0  0  0  0  0  0  0  0  0  0  0
   21.7895   19.0678   22.1689 C   0  0  2  0  0  0  0  0  0  0  0  0
   22.6510   19.7079   22.3829 H   0  0  0  0  0  0  0  0  0  0  0  0
   21.7198   18.8805   20.6432 C   0  0  0  0  0  0  0  0  0  0  0  0
   22.6761   18.5043   20.2597 H   0  0  0  0  0  0  0  0  0  0  0  0
   20.9404   18.1648   20.3563 H   0  0  0  0  0  0  0  0  0  0  0  0
   21.5130   19.8343   20.1422 H   0  0  0  0  0  0  0  0  0  0  0  0
   22.0600   17.7601   22.8606 N   0  3  0  0  0  0  0  0  0  0  0  0
   22.1556   17.8836   23.8726 H   0  0  0  0  0  0  0  0  0  0  0  0
   22.9250   17.3298   22.5212 H   0  0  0  0  0  0  0  0  0  0  0  0
   21.3014   17.0926   22.7005 H   0  0  0  0  0  0  0  0  0  0  0  0
  1  2  1  0  0  0  0
  1  3  1  0  0  0  0
  1  4  1  0  0  0  0
  1  5  1  0  0  0  0
  5  6  1  0  0  0  0
  5  7  1  0  0  0  0
  5  8  1  0  0  0  0
  8  9  1  0  0  0  0
  8 10  1  0  0  0  0
  8 11  1  0  0  0  0
 11 12  1  0  0  0  0
 11 13  1  0  0  0  0
 11 14  1  0  0  0  0
 14 15  1  0  0  0  0
 14 16  1  0  0  0  0
 14 17  1  0  0  0  0
 17 18  1  0  0  0  0
 17 19  1  0  0  0  0
 17 20  1  0  0  0  0
 20 21  1  0  0  0  0
 20 22  1  0  0  0  0
 22 23  1  0  0  0  0
 22 24  1  0  0  0  0
 22 25  1  0  0  0  0
 20 26  1  0  0  0  0
 26 27  1  0  0  0  0
 26 28  1  0  0  0  0
 26 29  1  0  0  0  0
M  END
> <VConfSearch Rank>
295

> <Conf_Id>
78

> <Delta U+W>
1.477

> <U+W>
-26.349

> <U>
26.385

> <W>
-52.734

> <W(PB)>
-55.179

> <W(SA)>
2.445

> <Valence>
4.726

> <Coulomb>
20.482

> <VdW>
1.177

> <VdW6>
-10.349

> <VdW12>
11.526

> <Bond>
0.319

> <Angle>
1.933

> <Pdih>
2.474

> <Idih>
0.000

> <Tether>
0.000

$$$$
VeraChem MOL file


 29 28  0  0  0  0  0  0  0  0999 V2000     
   23.0983   20.7610   23.2617 C   0  0  0  0  0  0  0  0  0  0  0  0
   23.1826   21.2180   22.2672 H   0  0  0  0  0  0  0  0  0  0  0  0
   22.1997   21.1636   23.7421 H   0  0  0  0  0  0  0  0  0  0  0  0
   23.9652   21.0856   23.8517 H   0  0  0  0  0  0  0  0  0  0  0  0
   23.0616   19.2184   23.1579 C   0  0  0  0  0  0  0  0  0  0  0  0
   23.0560   18.7676   24.1601 H   0  0  0  0  0  0  0  0  0  0  0  0
   23.9968   18.8888   22.6838 H   0  0  0  0  0  0  0  0  0  0  0  0
   21.8693   18.6878   22.3210 C   0  0  0  0  0  0  0  0  0  0  0  0
   21.5745   19.4299   21.5663 H   0  0  0  0  0  0  0  0  0  0  0  0
   22.2129   17.8112   21.7545 H   0  0  0  0  0  0  0  0  0  0  0  0
   20.6334   18.2515   23.1495 C   0  0  0  0  0  0  0  0  0  0  0  0
   20.9181   17.4332   23.8250 H   0  0  0  0  0  0  0  0  0  0  0  0
   19.8960   17.8317   22.4531 H   0  0  0  0  0  0  0  0  0  0  0  0
   19.9819   19.3921   23.9697 C   0  0  0  0  0  0  0  0  0  0  0  0
   20.6984   19.7501   24.7198 H   0  0  0  0  0  0  0  0  0  0  0  0
   19.7669   20.2476   23.3162 H   0  0  0  0  0  0  0  0  0  0  0  0
   18.6958   18.9532   24.7171 C   0  0  0  0  0  0  0  0  0  0  0  0
   18.3197   19.8014   25.3042 H   0  0  0  0  0  0  0  0  0  0  0  0
   18.9659   18.1762   25.4444 H   0  0  0  0  0  0  0  0  0  0  0  0
   17.5582   18.4154   23.8169 C   0  0  2  0  0  0  0  0  0  0  0  0
   17.9387   17.5600   23.2514 H   0  0  0  0  0  0  0  0  0  0  0  0
   17.0587   19.4753   22.8191 C   0  0  0  0  0  0  0  0  0  0  0  0
   16.2192   19.0863   22.2298 H   0  0  0  0  0  0  0  0  0  0  0  0
   16.7200   20.3805   23.3382 H   0  0  0  0  0  0  0  0  0  0  0  0
   17.8474   19.7585   22.1123 H   0  0  0  0  0  0  0  0  0  0  0  0
   16.4141   17.8972   24.6430 N   0  3  0  0  0  0  0  0  0  0  0  0
   15.9920   18.6410   25.2053 H   0  0  0  0  0  0  0  0  0  0  0  0
   16.7168   17.1595   25.2857 H   0  0  0  0  0  0  0  0  0  0  0  0
   15.6752   17.5033   24.0534 H   0  0  0  0  0  0  0  0  0  0  0  0
  1  2  1  0  0  0  0
  1  3  1  0  0  0  0
  1  4  1  0  0  0  0
  1  5  1  0  0  0  0
  5  6  1  0  0  0  0
  5  7  1  0  0  0  0
  5  8  1  0  0  0  0
  8  9  1  0  0  0  0
  8 10  1  0  0  0  0
  8 11  1  0  0  0  0
 11 12  1  0  0  0  0
 11 13  1  0  0  0  0
 11 14  1  0  0  0  0
 14 15  1  0  0  0  0
 14 16  1  0  0  0  0
 14 17  1  0  0  0  0
 17 18  1  0  0  0  0
 17 19  1  0  0  0  0
 17 20  1  0  0  0  0
 20 21  1  0  0  0  0
 20 22  1  0  0  0  0
 22 23  1  0  0  0  0
 22 24  1  0  0  0  0
 22 25  1  0  0  0  0
 20 26  1  0  0  0  0
 26 27  1  0  0  0  0
 26 28  1  0  0  0  0
 26 29  1  0  0  0  0
M  END
> <VConfSearch Rank>
296

> <Conf_Id>
145

> <Delta U+W>
3.784

> <U+W>
-24.042

> <U>
28.220

> <W>
-52.262

> <W(PB)>
-54.724

> <W(SA)>
2.462

> <Valence>
7.040

> <Coulomb>
19.984

> <VdW>
1.197

> <VdW6>
-10.566

> <VdW12>
11.763

> <Bond>
0.320

> <Angle>
2.280

> <Pdih>
4.439

> <Idih>
0.000

> <Tether>
0.000

$$$$
VeraChem MOL file


 29 28  0  0  0  0  0  0  0  0999 V2000     
   20.2470   19.5534   19.6251 C   0  0  0  0  0  0  0  0  0  0  0  0
   21.2137   19.6968   19.1250 H   0  0  0  0  0  0  0  0  0  0  0  0
   20.0456   18.4755   19.6777 H   0  0  0  0  0  0  0  0  0  0  0  0
   19.4716   20.0110   18.9972 H   0  0  0  0  0  0  0  0  0  0  0  0
   20.2515   20.1855   21.0329 C   0  0  0  0  0  0  0  0  0  0  0  0
   19.2601   20.0626   21.4854 H   0  0  0  0  0  0  0  0  0  0  0  0
   20.4209   21.2676   20.9431 H   0  0  0  0  0  0  0  0  0  0  0  0
   21.3459   19.5637   21.9335 C   0  0  0  0  0  0  0  0  0  0  0  0
   21.2316   18.4720   21.9785 H   0  0  0  0  0  0  0  0  0  0  0  0
   22.3208   19.7464   21.4606 H   0  0  0  0  0  0  0  0  0  0  0  0
   21.3762   20.1574   23.3661 C   0  0  0  0  0  0  0  0  0  0  0  0
   20.9994   21.1894   23.3597 H   0  0  0  0  0  0  0  0  0  0  0  0
   22.4256   20.2286   23.6841 H   0  0  0  0  0  0  0  0  0  0  0  0
   20.6221   19.3211   24.4320 C   0  0  0  0  0  0  0  0  0  0  0  0
   21.0847   18.3275   24.4992 H   0  0  0  0  0  0  0  0  0  0  0  0
   20.7808   19.8010   25.4060 H   0  0  0  0  0  0  0  0  0  0  0  0
   19.1004   19.1750   24.1637 C   0  0  0  0  0  0  0  0  0  0  0  0
   18.9503   18.6155   23.2325 H   0  0  0  0  0  0  0  0  0  0  0  0
   18.6604   20.1679   24.0027 H   0  0  0  0  0  0  0  0  0  0  0  0
   18.3083   18.4532   25.2796 C   0  0  2  0  0  0  0  0  0  0  0  0
   17.2759   18.3524   24.9306 H   0  0  0  0  0  0  0  0  0  0  0  0
   18.2766   19.2634   26.5875 C   0  0  0  0  0  0  0  0  0  0  0  0
   17.5926   18.7992   27.3085 H   0  0  0  0  0  0  0  0  0  0  0  0
   19.2662   19.3204   27.0557 H   0  0  0  0  0  0  0  0  0  0  0  0
   17.9227   20.2856   26.4048 H   0  0  0  0  0  0  0  0  0  0  0  0
   18.8045   17.0547   25.5234 N   0  3  0  0  0  0  0  0  0  0  0  0
   19.7684   17.0583   25.8660 H   0  0  0  0  0  0  0  0  0  0  0  0
   18.7830   16.4941   24.6668 H   0  0  0  0  0  0  0  0  0  0  0  0
   18.2318   16.5708   26.2210 H   0  0  0  0  0  0  0  0  0  0  0  0
  1  2  1  0  0  0  0
  1  3  1  0  0  0  0
  1  4  1  0  0  0  0
  1  5  1  0  0  0  0
  5  6  1  0  0  0  0
  5  7  1  0  0  0  0
  5  8  1  0  0  0  0
  8  9  1  0  0  0  0
  8 10  1  0  0  0  0
  8 11  1  0  0  0  0
 11 12  1  0  0  0  0
 11 13  1  0  0  0  0
 11 14  1  0  0  0  0
 14 15  1  0  0  0  0
 14 16  1  0  0  0  0
 14 17  1  0  0  0  0
 17 18  1  0  0  0  0
 17 19  1  0  0  0  0
 17 20  1  0  0  0  0
 20 21  1  0  0  0  0
 20 22  1  0  0  0  0
 22 23  1  0  0  0  0
 22 24  1  0  0  0  0
 22 25  1  0  0  0  0
 20 26  1  0  0  0  0
 26 27  1  0  0  0  0
 26 28  1  0  0  0  0
 26 29  1  0  0  0  0
M  END
> <VConfSearch Rank>
297

> <Conf_Id>
71

> <Delta U+W>
3.542

> <U+W>
-24.284

> <U>
28.217

> <W>
-52.501

> <W(PB)>
-54.947

> <W(SA)>
2.446

> <Valence>
6.821

> <Coulomb>
20.147

> <VdW>
1.249

> <VdW6>
-10.237

> <VdW12>
11.486

> <Bond>
0.317

> <Angle>
1.990

> <Pdih>
4.515

> <Idih>
0.000

> <Tether>
0.000

$$$$
VeraChem MOL file


 29 28  0  0  0  0  0  0  0  0999 V2000     
   21.7895   16.7320   25.9878 C   0  0  0  0  0  0  0  0  0  0  0  0
   21.5673   17.5498   26.6857 H   0  0  0  0  0  0  0  0  0  0  0  0
   21.3797   15.8038   26.4069 H   0  0  0  0  0  0  0  0  0  0  0  0
   22.8805   16.6237   25.9319 H   0  0  0  0  0  0  0  0  0  0  0  0
   21.1981   17.0191   24.5916 C   0  0  0  0  0  0  0  0  0  0  0  0
   21.4667   16.2003   23.9096 H   0  0  0  0  0  0  0  0  0  0  0  0
   21.6607   17.9267   24.1857 H   0  0  0  0  0  0  0  0  0  0  0  0
   19.6582   17.1649   24.6441 C   0  0  0  0  0  0  0  0  0  0  0  0
   19.2398   16.2232   25.0255 H   0  0  0  0  0  0  0  0  0  0  0  0
   19.3707   17.9391   25.3687 H   0  0  0  0  0  0  0  0  0  0  0  0
   19.0177   17.4620   23.2631 C   0  0  0  0  0  0  0  0  0  0  0  0
   18.0541   16.9362   23.2138 H   0  0  0  0  0  0  0  0  0  0  0  0
   19.6295   17.0326   22.4578 H   0  0  0  0  0  0  0  0  0  0  0  0
   18.7438   18.9624   22.9841 C   0  0  0  0  0  0  0  0  0  0  0  0
   18.2187   19.0372   22.0230 H   0  0  0  0  0  0  0  0  0  0  0  0
   18.0495   19.3441   23.7445 H   0  0  0  0  0  0  0  0  0  0  0  0
   20.0201   19.8443   22.9478 C   0  0  0  0  0  0  0  0  0  0  0  0
   20.7640   19.3790   22.2881 H   0  0  0  0  0  0  0  0  0  0  0  0
   20.4692   19.8754   23.9482 H   0  0  0  0  0  0  0  0  0  0  0  0
   19.7904   21.3003   22.4784 C   0  0  2  0  0  0  0  0  0  0  0  0
   20.7611   21.8055   22.4990 H   0  0  0  0  0  0  0  0  0  0  0  0
   18.8454   22.0679   23.4191 C   0  0  0  0  0  0  0  0  0  0  0  0
   19.1972   22.0105   24.4567 H   0  0  0  0  0  0  0  0  0  0  0  0
   18.8039   23.1279   23.1400 H   0  0  0  0  0  0  0  0  0  0  0  0
   17.8241   21.6706   23.3797 H   0  0  0  0  0  0  0  0  0  0  0  0
   19.3125   21.3769   21.0544 N   0  3  0  0  0  0  0  0  0  0  0  0
   19.9588   20.9048   20.4156 H   0  0  0  0  0  0  0  0  0  0  0  0
   19.2264   22.3479   20.7406 H   0  0  0  0  0  0  0  0  0  0  0  0
   18.3954   20.9369   20.9462 H   0  0  0  0  0  0  0  0  0  0  0  0
  1  2  1  0  0  0  0
  1  3  1  0  0  0  0
  1  4  1  0  0  0  0
  1  5  1  0  0  0  0
  5  6  1  0  0  0  0
  5  7  1  0  0  0  0
  5  8  1  0  0  0  0
  8  9  1  0  0  0  0
  8 10  1  0  0  0  0
  8 11  1  0  0  0  0
 11 12  1  0  0  0  0
 11 13  1  0  0  0  0
 11 14  1  0  0  0  0
 14 15  1  0  0  0  0
 14 16  1  0  0  0  0
 14 17  1  0  0  0  0
 17 18  1  0  0  0  0
 17 19  1  0  0  0  0
 17 20  1  0  0  0  0
 20 21  1  0  0  0  0
 20 22  1  0  0  0  0
 22 23  1  0  0  0  0
 22 24  1  0  0  0  0
 22 25  1  0  0  0  0
 20 26  1  0  0  0  0
 26 27  1  0  0  0  0
 26 28  1  0  0  0  0
 26 29  1  0  0  0  0
M  END
> <VConfSearch Rank>
298

> <Conf_Id>
163

> <Delta U+W>
3.309

> <U+W>
-24.517

> <U>
27.916

> <W>
-52.433

> <W(PB)>
-54.866

> <W(SA)>
2.433

> <Valence>
6.693

> <Coulomb>
20.015

> <VdW>
1.208

> <VdW6>
-10.294

> <VdW12>
11.503

> <Bond>
0.312

> <Angle>
1.939

> <Pdih>
4.441

> <Idih>
0.000

> <Tether>
0.000

$$$$
VeraChem MOL file


 29 28  0  0  0  0  0  0  0  0999 V2000     
   18.2534   21.1076   20.4100 C   0  0  0  0  0  0  0  0  0  0  0  0
   17.7836   21.9866   20.8701 H   0  0  0  0  0  0  0  0  0  0  0  0
   19.3230   21.3152   20.2836 H   0  0  0  0  0  0  0  0  0  0  0  0
   17.8220   20.9821   19.4085 H   0  0  0  0  0  0  0  0  0  0  0  0
   18.0163   19.8406   21.2629 C   0  0  0  0  0  0  0  0  0  0  0  0
   18.5250   18.9829   20.8010 H   0  0  0  0  0  0  0  0  0  0  0  0
   16.9432   19.6040   21.2513 H   0  0  0  0  0  0  0  0  0  0  0  0
   18.4740   19.9912   22.7338 C   0  0  0  0  0  0  0  0  0  0  0  0
   17.9600   20.8471   23.1924 H   0  0  0  0  0  0  0  0  0  0  0  0
   18.1442   19.1001   23.2832 H   0  0  0  0  0  0  0  0  0  0  0  0
   20.0070   20.1575   22.8885 C   0  0  0  0  0  0  0  0  0  0  0  0
   20.3345   21.0484   22.3375 H   0  0  0  0  0  0  0  0  0  0  0  0
   20.5197   19.3066   22.4210 H   0  0  0  0  0  0  0  0  0  0  0  0
   20.4672   20.3144   24.3612 C   0  0  0  0  0  0  0  0  0  0  0  0
   21.5521   20.4845   24.3767 H   0  0  0  0  0  0  0  0  0  0  0  0
   20.0196   21.2261   24.7801 H   0  0  0  0  0  0  0  0  0  0  0  0
   20.1227   19.1186   25.2890 C   0  0  0  0  0  0  0  0  0  0  0  0
   19.0355   19.0743   25.4321 H   0  0  0  0  0  0  0  0  0  0  0  0
   20.5474   19.3062   26.2841 H   0  0  0  0  0  0  0  0  0  0  0  0
   20.6225   17.7524   24.7698 C   0  0  2  0  0  0  0  0  0  0  0  0
   20.1876   17.5804   23.7807 H   0  0  0  0  0  0  0  0  0  0  0  0
   20.1575   16.6222   25.7014 C   0  0  0  0  0  0  0  0  0  0  0  0
   20.4779   15.6459   25.3173 H   0  0  0  0  0  0  0  0  0  0  0  0
   20.5697   16.7446   26.7108 H   0  0  0  0  0  0  0  0  0  0  0  0
   19.0632   16.6066   25.7787 H   0  0  0  0  0  0  0  0  0  0  0  0
   22.1164   17.7187   24.5992 N   0  3  0  0  0  0  0  0  0  0  0  0
   22.4324   18.4498   23.9562 H   0  0  0  0  0  0  0  0  0  0  0  0
   22.4309   16.8195   24.2236 H   0  0  0  0  0  0  0  0  0  0  0  0
   22.5962   17.8639   25.4914 H   0  0  0  0  0  0  0  0  0  0  0  0
  1  2  1  0  0  0  0
  1  3  1  0  0  0  0
  1  4  1  0  0  0  0
  1  5  1  0  0  0  0
  5  6  1  0  0  0  0
  5  7  1  0  0  0  0
  5  8  1  0  0  0  0
  8  9  1  0  0  0  0
  8 10  1  0  0  0  0
  8 11  1  0  0  0  0
 11 12  1  0  0  0  0
 11 13  1  0  0  0  0
 11 14  1  0  0  0  0
 14 15  1  0  0  0  0
 14 16  1  0  0  0  0
 14 17  1  0  0  0  0
 17 18  1  0  0  0  0
 17 19  1  0  0  0  0
 17 20  1  0  0  0  0
 20 21  1  0  0  0  0
 20 22  1  0  0  0  0
 22 23  1  0  0  0  0
 22 24  1  0  0  0  0
 22 25  1  0  0  0  0
 20 26  1  0  0  0  0
 26 27  1  0  0  0  0
 26 28  1  0  0  0  0
 26 29  1  0  0  0  0
M  END
> <VConfSearch Rank>
299

> <Conf_Id>
173

> <Delta U+W>
1.363

> <U+W>
-26.462

> <U>
25.816

> <W>
-52.279

> <W(PB)>
-54.727

> <W(SA)>
2.449

> <Valence>
4.504

> <Coulomb>
20.342

> <VdW>
0.971

> <VdW6>
-10.532

> <VdW12>
11.503

> <Bond>
0.307

> <Angle>
1.715

> <Pdih>
2.481

> <Idih>
0.000

> <Tether>
0.000

$$$$
VeraChem MOL file


 29 28  0  0  0  0  0  0  0  0999 V2000     
   21.7471   22.3759   23.8117 C   0  0  0  0  0  0  0  0  0  0  0  0
   22.2521   22.3620   22.8370 H   0  0  0  0  0  0  0  0  0  0  0  0
   21.2728   23.3580   23.9372 H   0  0  0  0  0  0  0  0  0  0  0  0
   22.5138   22.2703   24.5902 H   0  0  0  0  0  0  0  0  0  0  0  0
   20.7074   21.2400   23.9134 C   0  0  0  0  0  0  0  0  0  0  0  0
   20.2387   21.2629   24.9070 H   0  0  0  0  0  0  0  0  0  0  0  0
   21.2261   20.2767   23.8205 H   0  0  0  0  0  0  0  0  0  0  0  0
   19.6220   21.3611   22.8195 C   0  0  0  0  0  0  0  0  0  0  0  0
   19.1961   22.3735   22.8500 H   0  0  0  0  0  0  0  0  0  0  0  0
   20.0886   21.2560   21.8304 H   0  0  0  0  0  0  0  0  0  0  0  0
   18.4613   20.3413   22.9518 C   0  0  0  0  0  0  0  0  0  0  0  0
   17.7425   20.5534   22.1483 H   0  0  0  0  0  0  0  0  0  0  0  0
   17.9145   20.5113   23.8895 H   0  0  0  0  0  0  0  0  0  0  0  0
   18.8895   18.8549   22.8379 C   0  0  0  0  0  0  0  0  0  0  0  0
   18.1019   18.3129   22.2979 H   0  0  0  0  0  0  0  0  0  0  0  0
   19.7917   18.7799   22.2175 H   0  0  0  0  0  0  0  0  0  0  0  0
   19.1017   18.1736   24.2185 C   0  0  0  0  0  0  0  0  0  0  0  0
   18.1634   18.2222   24.7865 H   0  0  0  0  0  0  0  0  0  0  0  0
   19.8345   18.7331   24.8104 H   0  0  0  0  0  0  0  0  0  0  0  0
   19.5526   16.6955   24.1514 C   0  0  2  0  0  0  0  0  0  0  0  0
   19.6020   16.3241   25.1797 H   0  0  0  0  0  0  0  0  0  0  0  0
   20.9557   16.5478   23.5373 C   0  0  0  0  0  0  0  0  0  0  0  0
   21.6780   17.1905   24.0556 H   0  0  0  0  0  0  0  0  0  0  0  0
   21.3066   15.5126   23.6287 H   0  0  0  0  0  0  0  0  0  0  0  0
   20.9636   16.8104   22.4729 H   0  0  0  0  0  0  0  0  0  0  0  0
   18.5573   15.8210   23.4400 N   0  3  0  0  0  0  0  0  0  0  0  0
   17.6303   15.8797   23.8713 H   0  0  0  0  0  0  0  0  0  0  0  0
   18.8424   14.8377   23.4589 H   0  0  0  0  0  0  0  0  0  0  0  0
   18.4590   16.0936   22.4588 H   0  0  0  0  0  0  0  0  0  0  0  0
  1  2  1  0  0  0  0
  1  3  1  0  0  0  0
  1  4  1  0  0  0  0
  1  5  1  0  0  0  0
  5  6  1  0  0  0  0
  5  7  1  0  0  0  0
  5  8  1  0  0  0  0
  8  9  1  0  0  0  0
  8 10  1  0  0  0  0
  8 11  1  0  0  0  0
 11 12  1  0  0  0  0
 11 13  1  0  0  0  0
 11 14  1  0  0  0  0
 14 15  1  0  0  0  0
 14 16  1  0  0  0  0
 14 17  1  0  0  0  0
 17 18  1  0  0  0  0
 17 19  1  0  0  0  0
 17 20  1  0  0  0  0
 20 21  1  0  0  0  0
 20 22  1  0  0  0  0
 22 23  1  0  0  0  0
 22 24  1  0  0  0  0
 22 25  1  0  0  0  0
 20 26  1  0  0  0  0
 26 27  1  0  0  0  0
 26 28  1  0  0  0  0
 26 29  1  0  0  0  0
M  END
> <VConfSearch Rank>
300

> <Conf_Id>
117

> <Delta U+W>
3.377

> <U+W>
-24.449

> <U>
27.947

> <W>
-52.396

> <W(PB)>
-54.842

> <W(SA)>
2.447

> <Valence>
6.731

> <Coulomb>
20.067

> <VdW>
1.149

> <VdW6>
-10.427

> <VdW12>
11.575

> <Bond>
0.324

> <Angle>
1.943

> <Pdih>
4.465

> <Idih>
0.000

> <Tether>
0.000

$$$$
VeraChem MOL file


 29 28  0  0  0  0  0  0  0  0999 V2000     
   23.3696   21.5892   25.6089 C   0  0  0  0  0  0  0  0  0  0  0  0
   24.1379   20.9109   25.2151 H   0  0  0  0  0  0  0  0  0  0  0  0
   23.3018   22.4555   24.9379 H   0  0  0  0  0  0  0  0  0  0  0  0
   23.7075   21.9482   26.5897 H   0  0  0  0  0  0  0  0  0  0  0  0
   22.0076   20.8737   25.7302 C   0  0  0  0  0  0  0  0  0  0  0  0
   21.2688   21.5661   26.1577 H   0  0  0  0  0  0  0  0  0  0  0  0
   22.0984   20.0334   26.4327 H   0  0  0  0  0  0  0  0  0  0  0  0
   21.5086   20.3581   24.3622 C   0  0  0  0  0  0  0  0  0  0  0  0
   21.4216   21.2011   23.6628 H   0  0  0  0  0  0  0  0  0  0  0  0
   22.2514   19.6683   23.9380 H   0  0  0  0  0  0  0  0  0  0  0  0
   20.1448   19.6411   24.4797 C   0  0  0  0  0  0  0  0  0  0  0  0
   19.4035   20.3316   24.9054 H   0  0  0  0  0  0  0  0  0  0  0  0
   20.2327   18.7981   25.1791 H   0  0  0  0  0  0  0  0  0  0  0  0
   19.6456   19.1261   23.1108 C   0  0  0  0  0  0  0  0  0  0  0  0
   19.5546   19.9702   22.4131 H   0  0  0  0  0  0  0  0  0  0  0  0
   20.3943   18.4421   22.6893 H   0  0  0  0  0  0  0  0  0  0  0  0
   18.2800   18.4072   23.2316 C   0  0  0  0  0  0  0  0  0  0  0  0
   17.5607   19.0890   23.7046 H   0  0  0  0  0  0  0  0  0  0  0  0
   18.3745   17.5395   23.8981 H   0  0  0  0  0  0  0  0  0  0  0  0
   17.7143   17.9554   21.8678 C   0  0  2  0  0  0  0  0  0  0  0  0
   17.6523   18.8315   21.2149 H   0  0  0  0  0  0  0  0  0  0  0  0
   16.2992   17.3807   22.0402 C   0  0  0  0  0  0  0  0  0  0  0  0
   15.8768   17.0913   21.0700 H   0  0  0  0  0  0  0  0  0  0  0  0
   16.3065   16.4951   22.6879 H   0  0  0  0  0  0  0  0  0  0  0  0
   15.6279   18.1249   22.4865 H   0  0  0  0  0  0  0  0  0  0  0  0
   18.6060   16.9613   21.1754 N   0  3  0  0  0  0  0  0  0  0  0  0
   19.5404   17.3466   21.0137 H   0  0  0  0  0  0  0  0  0  0  0  0
   18.2254   16.6881   20.2648 H   0  0  0  0  0  0  0  0  0  0  0  0
   18.7154   16.1084   21.7306 H   0  0  0  0  0  0  0  0  0  0  0  0
  1  2  1  0  0  0  0
  1  3  1  0  0  0  0
  1  4  1  0  0  0  0
  1  5  1  0  0  0  0
  5  6  1  0  0  0  0
  5  7  1  0  0  0  0
  5  8  1  0  0  0  0
  8  9  1  0  0  0  0
  8 10  1  0  0  0  0
  8 11  1  0  0  0  0
 11 12  1  0  0  0  0
 11 13  1  0  0  0  0
 11 14  1  0  0  0  0
 14 15  1  0  0  0  0
 14 16  1  0  0  0  0
 14 17  1  0  0  0  0
 17 18  1  0  0  0  0
 17 19  1  0  0  0  0
 17 20  1  0  0  0  0
 20 21  1  0  0  0  0
 20 22  1  0  0  0  0
 22 23  1  0  0  0  0
 22 24  1  0  0  0  0
 22 25  1  0  0  0  0
 20 26  1  0  0  0  0
 26 27  1  0  0  0  0
 26 28  1  0  0  0  0
 26 29  1  0  0  0  0
M  END
> <VConfSearch Rank>
301

> <Conf_Id>
164

> <Delta U+W>
0.000

> <U+W>
-27.826

> <U>
23.963

> <W>
-51.789

> <W(PB)>
-54.342

> <W(SA)>
2.554

> <Valence>
3.166

> <Coulomb>
19.734

> <VdW>
1.062

> <VdW6>
-7.938

> <VdW12>
9.001

> <Bond>
0.188

> <Angle>
0.880

> <Pdih>
2.098

> <Idih>
0.000

> <Tether>
0.000

$$$$
VeraChem MOL file


 29 28  0  0  0  0  0  0  0  0999 V2000     
   15.2442   20.4970   22.7252 C   0  0  0  0  0  0  0  0  0  0  0  0
   15.4571   20.9865   21.7658 H   0  0  0  0  0  0  0  0  0  0  0  0
   14.9024   19.4743   22.5189 H   0  0  0  0  0  0  0  0  0  0  0  0
   14.4179   21.0385   23.2038 H   0  0  0  0  0  0  0  0  0  0  0  0
   16.4914   20.4922   23.6342 C   0  0  0  0  0  0  0  0  0  0  0  0
   16.2387   20.0273   24.5974 H   0  0  0  0  0  0  0  0  0  0  0  0
   16.7891   21.5278   23.8502 H   0  0  0  0  0  0  0  0  0  0  0  0
   17.6704   19.7356   22.9833 C   0  0  0  0  0  0  0  0  0  0  0  0
   17.3673   18.7018   22.7671 H   0  0  0  0  0  0  0  0  0  0  0  0
   17.9180   20.2025   22.0199 H   0  0  0  0  0  0  0  0  0  0  0  0
   18.9213   19.7286   23.8908 C   0  0  0  0  0  0  0  0  0  0  0  0
   18.6731   19.2613   24.8538 H   0  0  0  0  0  0  0  0  0  0  0  0
   19.2223   20.7630   24.1072 H   0  0  0  0  0  0  0  0  0  0  0  0
   20.1008   18.9720   23.2390 C   0  0  0  0  0  0  0  0  0  0  0  0
   19.7869   17.9431   23.0192 H   0  0  0  0  0  0  0  0  0  0  0  0
   20.3521   19.4426   22.2783 H   0  0  0  0  0  0  0  0  0  0  0  0
   21.3513   18.9624   24.1522 C   0  0  0  0  0  0  0  0  0  0  0  0
   21.1227   18.4348   25.0878 H   0  0  0  0  0  0  0  0  0  0  0  0
   21.5895   19.9979   24.4292 H   0  0  0  0  0  0  0  0  0  0  0  0
   22.5998   18.3337   23.4923 C   0  0  2  0  0  0  0  0  0  0  0  0
   22.7821   18.8476   22.5435 H   0  0  0  0  0  0  0  0  0  0  0  0
   22.4117   16.8331   23.2057 C   0  0  0  0  0  0  0  0  0  0  0  0
   22.1627   16.2824   24.1213 H   0  0  0  0  0  0  0  0  0  0  0  0
   21.6131   16.6637   22.4743 H   0  0  0  0  0  0  0  0  0  0  0  0
   23.3298   16.4016   22.7883 H   0  0  0  0  0  0  0  0  0  0  0  0
   23.8257   18.5519   24.3350 N   0  3  0  0  0  0  0  0  0  0  0  0
   24.6625   18.1718   23.8833 H   0  0  0  0  0  0  0  0  0  0  0  0
   23.7379   18.0970   25.2478 H   0  0  0  0  0  0  0  0  0  0  0  0
   23.9959   19.5479   24.5024 H   0  0  0  0  0  0  0  0  0  0  0  0
  1  2  1  0  0  0  0
  1  3  1  0  0  0  0
  1  4  1  0  0  0  0
  1  5  1  0  0  0  0
  5  6  1  0  0  0  0
  5  7  1  0  0  0  0
  5  8  1  0  0  0  0
  8  9  1  0  0  0  0
  8 10  1  0  0  0  0
  8 11  1  0  0  0  0
 11 12  1  0  0  0  0
 11 13  1  0  0  0  0
 11 14  1  0  0  0  0
 14 15  1  0  0  0  0
 14 16  1  0  0  0  0
 14 17  1  0  0  0  0
 17 18  1  0  0  0  0
 17 19  1  0  0  0  0
 17 20  1  0  0  0  0
 20 21  1  0  0  0  0
 20 22  1  0  0  0  0
 22 23  1  0  0  0  0
 22 24  1  0  0  0  0
 22 25  1  0  0  0  0
 20 26  1  0  0  0  0
 26 27  1  0  0  0  0
 26 28  1  0  0  0  0
 26 29  1  0  0  0  0
M  END
> <VConfSearch Rank>
302

> <Conf_Id>
58

> <Delta U+W>
0.412

> <U+W>
-27.414

> <U>
24.279

> <W>
-51.694

> <W(PB)>
-54.271

> <W(SA)>
2.577

> <Valence>
3.709

> <Coulomb>
19.380

> <VdW>
1.191

> <VdW6>
-8.093

> <VdW12>
9.284

> <Bond>
0.200

> <Angle>
1.161

> <Pdih>
2.348

> <Idih>
0.000

> <Tether>
0.000

$$$$
VeraChem MOL file


 29 28  0  0  0  0  0  0  0  0999 V2000     
   23.7680   21.4548   22.9880 C   0  0  0  0  0  0  0  0  0  0  0  0
   24.1649   20.7224   22.2730 H   0  0  0  0  0  0  0  0  0  0  0  0
   23.2851   22.2606   22.4197 H   0  0  0  0  0  0  0  0  0  0  0  0
   24.6168   21.8883   23.5327 H   0  0  0  0  0  0  0  0  0  0  0  0
   22.7739   20.7931   23.9656 C   0  0  0  0  0  0  0  0  0  0  0  0
   22.4204   21.5417   24.6885 H   0  0  0  0  0  0  0  0  0  0  0  0
   23.2933   20.0153   24.5429 H   0  0  0  0  0  0  0  0  0  0  0  0
   21.5685   20.1744   23.2239 C   0  0  0  0  0  0  0  0  0  0  0  0
   21.0538   20.9551   22.6468 H   0  0  0  0  0  0  0  0  0  0  0  0
   21.9270   19.4287   22.5009 H   0  0  0  0  0  0  0  0  0  0  0  0
   20.5709   19.5105   24.1997 C   0  0  0  0  0  0  0  0  0  0  0  0
   20.2137   20.2570   24.9226 H   0  0  0  0  0  0  0  0  0  0  0  0
   21.0868   18.7304   24.7766 H   0  0  0  0  0  0  0  0  0  0  0  0
   19.3651   18.8915   23.4574 C   0  0  0  0  0  0  0  0  0  0  0  0
   18.8553   19.6755   22.8821 H   0  0  0  0  0  0  0  0  0  0  0  0
   19.7323   18.1511   22.7347 H   0  0  0  0  0  0  0  0  0  0  0  0
   18.3696   18.2239   24.4417 C   0  0  0  0  0  0  0  0  0  0  0  0
   18.0497   18.9633   25.1876 H   0  0  0  0  0  0  0  0  0  0  0  0
   18.8878   17.4345   25.0021 H   0  0  0  0  0  0  0  0  0  0  0  0
   17.1080   17.6185   23.7820 C   0  0  2  0  0  0  0  0  0  0  0  0
   16.4845   17.2127   24.5847 H   0  0  0  0  0  0  0  0  0  0  0  0
   17.4520   16.4601   22.8296 C   0  0  0  0  0  0  0  0  0  0  0  0
   16.5371   15.9634   22.4841 H   0  0  0  0  0  0  0  0  0  0  0  0
   17.9971   16.8102   21.9450 H   0  0  0  0  0  0  0  0  0  0  0  0
   18.0674   15.7072   23.3377 H   0  0  0  0  0  0  0  0  0  0  0  0
   16.2697   18.6559   23.0873 N   0  3  0  0  0  0  0  0  0  0  0  0
   15.9988   19.4090   23.7262 H   0  0  0  0  0  0  0  0  0  0  0  0
   15.4087   18.2497   22.7101 H   0  0  0  0  0  0  0  0  0  0  0  0
   16.7766   19.0807   22.3068 H   0  0  0  0  0  0  0  0  0  0  0  0
  1  2  1  0  0  0  0
  1  3  1  0  0  0  0
  1  4  1  0  0  0  0
  1  5  1  0  0  0  0
  5  6  1  0  0  0  0
  5  7  1  0  0  0  0
  5  8  1  0  0  0  0
  8  9  1  0  0  0  0
  8 10  1  0  0  0  0
  8 11  1  0  0  0  0
 11 12  1  0  0  0  0
 11 13  1  0  0  0  0
 11 14  1  0  0  0  0
 14 15  1  0  0  0  0
 14 16  1  0  0  0  0
 14 17  1  0  0  0  0
 17 18  1  0  0  0  0
 17 19  1  0  0  0  0
 17 20  1  0  0  0  0
 20 21  1  0  0  0  0
 20 22  1  0  0  0  0
 22 23  1  0  0  0  0
 22 24  1  0  0  0  0
 22 25  1  0  0  0  0
 20 26  1  0  0  0  0
 26 27  1  0  0  0  0
 26 28  1  0  0  0  0
 26 29  1  0  0  0  0
M  END
> <VConfSearch Rank>
303

> <Conf_Id>
137

> <Delta U+W>
0.280

> <U+W>
-27.546

> <U>
24.513

> <W>
-52.059

> <W(PB)>
-54.556

> <W(SA)>
2.497

> <Valence>
3.677

> <Coulomb>
19.662

> <VdW>
1.174

> <VdW6>
-8.569

> <VdW12>
9.743

> <Bond>
0.224

> <Angle>
1.211

> <Pdih>
2.243

> <Idih>
0.000

> <Tether>
0.000

$$$$
VeraChem MOL file


 29 28  0  0  0  0  0  0  0  0999 V2000     
   20.8851   15.2103   25.2989 C   0  0  0  0  0  0  0  0  0  0  0  0
   21.4539   15.8523   25.9843 H   0  0  0  0  0  0  0  0  0  0  0  0
   19.8963   15.0300   25.7405 H   0  0  0  0  0  0  0  0  0  0  0  0
   21.4050   14.2459   25.2311 H   0  0  0  0  0  0  0  0  0  0  0  0
   20.7597   15.8608   23.9050 C   0  0  0  0  0  0  0  0  0  0  0  0
   20.2172   15.1808   23.2334 H   0  0  0  0  0  0  0  0  0  0  0  0
   21.7618   15.9985   23.4752 H   0  0  0  0  0  0  0  0  0  0  0  0
   20.0301   17.2208   23.9720 C   0  0  0  0  0  0  0  0  0  0  0  0
   19.0283   17.0774   24.3999 H   0  0  0  0  0  0  0  0  0  0  0  0
   20.5769   17.8852   24.6534 H   0  0  0  0  0  0  0  0  0  0  0  0
   19.9079   17.8755   22.5748 C   0  0  0  0  0  0  0  0  0  0  0  0
   19.4353   17.1601   21.8876 H   0  0  0  0  0  0  0  0  0  0  0  0
   20.9093   18.0758   22.1695 H   0  0  0  0  0  0  0  0  0  0  0  0
   19.0742   19.1808   22.5682 C   0  0  0  0  0  0  0  0  0  0  0  0
   18.9235   19.4767   21.5223 H   0  0  0  0  0  0  0  0  0  0  0  0
   18.0756   18.9814   22.9809 H   0  0  0  0  0  0  0  0  0  0  0  0
   19.7398   20.3454   23.3470 C   0  0  0  0  0  0  0  0  0  0  0  0
   20.7334   20.5518   22.9278 H   0  0  0  0  0  0  0  0  0  0  0  0
   19.8982   20.0357   24.3869 H   0  0  0  0  0  0  0  0  0  0  0  0
   18.9015   21.6445   23.3605 C   0  0  2  0  0  0  0  0  0  0  0  0
   17.8981   21.4020   23.7239 H   0  0  0  0  0  0  0  0  0  0  0  0
   18.7753   22.2721   21.9605 C   0  0  0  0  0  0  0  0  0  0  0  0
   19.7622   22.4708   21.5242 H   0  0  0  0  0  0  0  0  0  0  0  0
   18.2221   21.6180   21.2770 H   0  0  0  0  0  0  0  0  0  0  0  0
   18.2289   23.2220   22.0112 H   0  0  0  0  0  0  0  0  0  0  0  0
   19.4711   22.6461   24.3265 N   0  3  0  0  0  0  0  0  0  0  0  0
   19.5230   22.2668   25.2764 H   0  0  0  0  0  0  0  0  0  0  0  0
   18.8974   23.4934   24.3681 H   0  0  0  0  0  0  0  0  0  0  0  0
   20.4165   22.9303   24.0563 H   0  0  0  0  0  0  0  0  0  0  0  0
  1  2  1  0  0  0  0
  1  3  1  0  0  0  0
  1  4  1  0  0  0  0
  1  5  1  0  0  0  0
  5  6  1  0  0  0  0
  5  7  1  0  0  0  0
  5  8  1  0  0  0  0
  8  9  1  0  0  0  0
  8 10  1  0  0  0  0
  8 11  1  0  0  0  0
 11 12  1  0  0  0  0
 11 13  1  0  0  0  0
 11 14  1  0  0  0  0
 14 15  1  0  0  0  0
 14 16  1  0  0  0  0
 14 17  1  0  0  0  0
 17 18  1  0  0  0  0
 17 19  1  0  0  0  0
 17 20  1  0  0  0  0
 20 21  1  0  0  0  0
 20 22  1  0  0  0  0
 22 23  1  0  0  0  0
 22 24  1  0  0  0  0
 22 25  1  0  0  0  0
 20 26  1  0  0  0  0
 26 27  1  0  0  0  0
 26 28  1  0  0  0  0
 26 29  1  0  0  0  0
M  END
> <VConfSearch Rank>
304

> <Conf_Id>
40

> <Delta U+W>
1.128

> <U+W>
-26.698

> <U>
25.442

> <W>
-52.140

> <W(PB)>
-54.658

> <W(SA)>
2.519

> <Valence>
4.343

> <Coulomb>
19.740

> <VdW>
1.360

> <VdW6>
-8.739

> <VdW12>
10.099

> <Bond>
0.251

> <Angle>
1.483

> <Pdih>
2.608

> <Idih>
0.000

> <Tether>
0.000

$$$$
VeraChem MOL file


 29 28  0  0  0  0  0  0  0  0999 V2000     
   23.3936   19.4591   21.1159 C   0  0  0  0  0  0  0  0  0  0  0  0
   22.7170   20.1514   20.6002 H   0  0  0  0  0  0  0  0  0  0  0  0
   23.9338   20.0181   21.8909 H   0  0  0  0  0  0  0  0  0  0  0  0
   24.1294   19.1091   20.3803 H   0  0  0  0  0  0  0  0  0  0  0  0
   22.6281   18.2625   21.7253 C   0  0  0  0  0  0  0  0  0  0  0  0
   23.3582   17.5386   22.1136 H   0  0  0  0  0  0  0  0  0  0  0  0
   22.0679   17.7409   20.9367 H   0  0  0  0  0  0  0  0  0  0  0  0
   21.6689   18.6617   22.8728 C   0  0  0  0  0  0  0  0  0  0  0  0
   21.2843   17.7398   23.3268 H   0  0  0  0  0  0  0  0  0  0  0  0
   22.2339   19.1825   23.6580 H   0  0  0  0  0  0  0  0  0  0  0  0
   20.4839   19.5455   22.4064 C   0  0  0  0  0  0  0  0  0  0  0  0
   19.9152   19.0227   21.6252 H   0  0  0  0  0  0  0  0  0  0  0  0
   20.8741   20.4610   21.9436 H   0  0  0  0  0  0  0  0  0  0  0  0
   19.5295   19.9618   23.5530 C   0  0  0  0  0  0  0  0  0  0  0  0
   20.1025   20.4672   24.3427 H   0  0  0  0  0  0  0  0  0  0  0  0
   18.8287   20.7072   23.1549 H   0  0  0  0  0  0  0  0  0  0  0  0
   18.7331   18.7777   24.1600 C   0  0  0  0  0  0  0  0  0  0  0  0
   19.4332   18.0469   24.5826 H   0  0  0  0  0  0  0  0  0  0  0  0
   18.1765   18.2593   23.3681 H   0  0  0  0  0  0  0  0  0  0  0  0
   17.7596   19.2166   25.2757 C   0  0  2  0  0  0  0  0  0  0  0  0
   18.3301   19.7622   26.0337 H   0  0  0  0  0  0  0  0  0  0  0  0
   17.1229   17.9872   25.9433 C   0  0  0  0  0  0  0  0  0  0  0  0
   16.4565   18.2904   26.7602 H   0  0  0  0  0  0  0  0  0  0  0  0
   16.5368   17.4032   25.2226 H   0  0  0  0  0  0  0  0  0  0  0  0
   17.8930   17.3315   26.3686 H   0  0  0  0  0  0  0  0  0  0  0  0
   16.6939   20.1540   24.7770 N   0  3  0  0  0  0  0  0  0  0  0  0
   16.1164   19.7125   24.0564 H   0  0  0  0  0  0  0  0  0  0  0  0
   17.1007   21.0008   24.3707 H   0  0  0  0  0  0  0  0  0  0  0  0
   16.0694   20.4469   25.5339 H   0  0  0  0  0  0  0  0  0  0  0  0
  1  2  1  0  0  0  0
  1  3  1  0  0  0  0
  1  4  1  0  0  0  0
  1  5  1  0  0  0  0
  5  6  1  0  0  0  0
  5  7  1  0  0  0  0
  5  8  1  0  0  0  0
  8  9  1  0  0  0  0
  8 10  1  0  0  0  0
  8 11  1  0  0  0  0
 11 12  1  0  0  0  0
 11 13  1  0  0  0  0
 11 14  1  0  0  0  0
 14 15  1  0  0  0  0
 14 16  1  0  0  0  0
 14 17  1  0  0  0  0
 17 18  1  0  0  0  0
 17 19  1  0  0  0  0
 17 20  1  0  0  0  0
 20 21  1  0  0  0  0
 20 22  1  0  0  0  0
 22 23  1  0  0  0  0
 22 24  1  0  0  0  0
 22 25  1  0  0  0  0
 20 26  1  0  0  0  0
 26 27  1  0  0  0  0
 26 28  1  0  0  0  0
 26 29  1  0  0  0  0
M  END
> <VConfSearch Rank>
305

> <Conf_Id>
134

> <Delta U+W>
1.228

> <U+W>
-26.598

> <U>
25.451

> <W>
-52.048

> <W(PB)>
-54.539

> <W(SA)>
2.490

> <Valence>
4.319

> <Coulomb>
19.732

> <VdW>
1.400

> <VdW6>
-9.173

> <VdW12>
10.573

> <Bond>
0.281

> <Angle>
1.459

> <Pdih>
2.580

> <Idih>
0.000

> <Tether>
0.000

$$$$
VeraChem MOL file


 29 28  0  0  0  0  0  0  0  0999 V2000     
   23.5446   21.2258   23.5148 C   0  0  0  0  0  0  0  0  0  0  0  0
   22.8667   22.0606   23.2985 H   0  0  0  0  0  0  0  0  0  0  0  0
   23.6280   21.1230   24.6045 H   0  0  0  0  0  0  0  0  0  0  0  0
   24.5349   21.4970   23.1266 H   0  0  0  0  0  0  0  0  0  0  0  0
   23.0527   19.9108   22.8685 C   0  0  0  0  0  0  0  0  0  0  0  0
   23.8255   19.1412   23.0040 H   0  0  0  0  0  0  0  0  0  0  0  0
   22.9439   20.0493   21.7838 H   0  0  0  0  0  0  0  0  0  0  0  0
   21.7237   19.3880   23.4657 C   0  0  0  0  0  0  0  0  0  0  0  0
   21.5312   18.3932   23.0441 H   0  0  0  0  0  0  0  0  0  0  0  0
   21.8383   19.2492   24.5495 H   0  0  0  0  0  0  0  0  0  0  0  0
   20.5136   20.3139   23.1815 C   0  0  0  0  0  0  0  0  0  0  0  0
   20.3983   20.4513   22.0976 H   0  0  0  0  0  0  0  0  0  0  0  0
   20.7091   21.3095   23.6000 H   0  0  0  0  0  0  0  0  0  0  0  0
   19.1848   19.7947   23.7839 C   0  0  0  0  0  0  0  0  0  0  0  0
   19.3057   19.6757   24.8687 H   0  0  0  0  0  0  0  0  0  0  0  0
   18.4138   20.5642   23.6394 H   0  0  0  0  0  0  0  0  0  0  0  0
   18.6950   18.4669   23.1502 C   0  0  0  0  0  0  0  0  0  0  0  0
   19.3806   17.6498   23.4076 H   0  0  0  0  0  0  0  0  0  0  0  0
   18.7238   18.5686   22.0574 H   0  0  0  0  0  0  0  0  0  0  0  0
   17.2592   18.0761   23.5680 C   0  0  2  0  0  0  0  0  0  0  0  0
   16.5943   18.9139   23.3365 H   0  0  0  0  0  0  0  0  0  0  0  0
   17.1568   17.7745   25.0739 C   0  0  0  0  0  0  0  0  0  0  0  0
   17.8510   16.9771   25.3670 H   0  0  0  0  0  0  0  0  0  0  0  0
   17.3810   18.6636   25.6745 H   0  0  0  0  0  0  0  0  0  0  0  0
   16.1407   17.4541   25.3355 H   0  0  0  0  0  0  0  0  0  0  0  0
   16.7607   16.9053   22.7674 N   0  3  0  0  0  0  0  0  0  0  0  0
   16.7796   17.1004   21.7622 H   0  0  0  0  0  0  0  0  0  0  0  0
   15.7953   16.6681   23.0134 H   0  0  0  0  0  0  0  0  0  0  0  0
   17.3310   16.0710   22.9298 H   0  0  0  0  0  0  0  0  0  0  0  0
  1  2  1  0  0  0  0
  1  3  1  0  0  0  0
  1  4  1  0  0  0  0
  1  5  1  0  0  0  0
  5  6  1  0  0  0  0
  5  7  1  0  0  0  0
  5  8  1  0  0  0  0
  8  9  1  0  0  0  0
  8 10  1  0  0  0  0
  8 11  1  0  0  0  0
 11 12  1  0  0  0  0
 11 13  1  0  0  0  0
 11 14  1  0  0  0  0
 14 15  1  0  0  0  0
 14 16  1  0  0  0  0
 14 17  1  0  0  0  0
 17 18  1  0  0  0  0
 17 19  1  0  0  0  0
 17 20  1  0  0  0  0
 20 21  1  0  0  0  0
 20 22  1  0  0  0  0
 22 23  1  0  0  0  0
 22 24  1  0  0  0  0
 22 25  1  0  0  0  0
 20 26  1  0  0  0  0
 26 27  1  0  0  0  0
 26 28  1  0  0  0  0
 26 29  1  0  0  0  0
M  END
> <VConfSearch Rank>
306

> <Conf_Id>
73

> <Delta U+W>
1.580

> <U+W>
-26.246

> <U>
25.821

> <W>
-52.067

> <W(PB)>
-54.581

> <W(SA)>
2.514

> <Valence>
4.779

> <Coulomb>
19.614

> <VdW>
1.428

> <VdW6>
-9.390

> <VdW12>
10.818

> <Bond>
0.283

> <Angle>
1.640

> <Pdih>
2.856

> <Idih>
0.000

> <Tether>
0.000

$$$$
VeraChem MOL file


 29 28  0  0  0  0  0  0  0  0999 V2000     
   16.7395   17.3448   26.2269 C   0  0  0  0  0  0  0  0  0  0  0  0
   16.0576   17.7597   25.4731 H   0  0  0  0  0  0  0  0  0  0  0  0
   16.2507   16.4724   26.6797 H   0  0  0  0  0  0  0  0  0  0  0  0
   16.8799   18.0983   27.0128 H   0  0  0  0  0  0  0  0  0  0  0  0
   18.0893   16.9455   25.5940 C   0  0  0  0  0  0  0  0  0  0  0  0
   17.9209   16.1680   24.8357 H   0  0  0  0  0  0  0  0  0  0  0  0
   18.7358   16.5025   26.3645 H   0  0  0  0  0  0  0  0  0  0  0  0
   18.7994   18.1566   24.9496 C   0  0  0  0  0  0  0  0  0  0  0  0
   18.1389   18.5947   24.1903 H   0  0  0  0  0  0  0  0  0  0  0  0
   18.9679   18.9297   25.7120 H   0  0  0  0  0  0  0  0  0  0  0  0
   20.1509   17.7559   24.3106 C   0  0  0  0  0  0  0  0  0  0  0  0
   19.9796   17.0264   23.5070 H   0  0  0  0  0  0  0  0  0  0  0  0
   20.7637   17.2441   25.0655 H   0  0  0  0  0  0  0  0  0  0  0  0
   20.9587   18.9563   23.7584 C   0  0  0  0  0  0  0  0  0  0  0  0
   21.1320   19.6838   24.5635 H   0  0  0  0  0  0  0  0  0  0  0  0
   21.9479   18.5884   23.4561 H   0  0  0  0  0  0  0  0  0  0  0  0
   20.2781   19.6600   22.5560 C   0  0  0  0  0  0  0  0  0  0  0  0
   19.3012   20.0489   22.8687 H   0  0  0  0  0  0  0  0  0  0  0  0
   20.0861   18.9304   21.7582 H   0  0  0  0  0  0  0  0  0  0  0  0
   21.1106   20.8339   21.9959 C   0  0  2  0  0  0  0  0  0  0  0  0
   21.3199   21.5280   22.8157 H   0  0  0  0  0  0  0  0  0  0  0  0
   20.3146   21.5867   20.9178 C   0  0  0  0  0  0  0  0  0  0  0  0
   19.3714   21.9708   21.3261 H   0  0  0  0  0  0  0  0  0  0  0  0
   20.8865   22.4433   20.5400 H   0  0  0  0  0  0  0  0  0  0  0  0
   20.0783   20.9323   20.0693 H   0  0  0  0  0  0  0  0  0  0  0  0
   22.4415   20.3907   21.4523 N   0  3  0  0  0  0  0  0  0  0  0  0
   22.9854   21.1844   21.1018 H   0  0  0  0  0  0  0  0  0  0  0  0
   22.3271   19.7314   20.6779 H   0  0  0  0  0  0  0  0  0  0  0  0
   23.0039   19.9279   22.1713 H   0  0  0  0  0  0  0  0  0  0  0  0
  1  2  1  0  0  0  0
  1  3  1  0  0  0  0
  1  4  1  0  0  0  0
  1  5  1  0  0  0  0
  5  6  1  0  0  0  0
  5  7  1  0  0  0  0
  5  8  1  0  0  0  0
  8  9  1  0  0  0  0
  8 10  1  0  0  0  0
  8 11  1  0  0  0  0
 11 12  1  0  0  0  0
 11 13  1  0  0  0  0
 11 14  1  0  0  0  0
 14 15  1  0  0  0  0
 14 16  1  0  0  0  0
 14 17  1  0  0  0  0
 17 18  1  0  0  0  0
 17 19  1  0  0  0  0
 17 20  1  0  0  0  0
 20 21  1  0  0  0  0
 20 22  1  0  0  0  0
 22 23  1  0  0  0  0
 22 24  1  0  0  0  0
 22 25  1  0  0  0  0
 20 26  1  0  0  0  0
 26 27  1  0  0  0  0
 26 28  1  0  0  0  0
 26 29  1  0  0  0  0
M  END
> <VConfSearch Rank>
307

> <Conf_Id>
111

> <Delta U+W>
0.580

> <U+W>
-27.246

> <U>
24.710

> <W>
-51.957

> <W(PB)>
-54.511

> <W(SA)>
2.555

> <Valence>
3.735

> <Coulomb>
19.760

> <VdW>
1.216

> <VdW6>
-8.624

> <VdW12>
9.840

> <Bond>
0.236

> <Angle>
1.168

> <Pdih>
2.330

> <Idih>
0.000

> <Tether>
0.000

$$$$
VeraChem MOL file


 29 28  0  0  0  0  0  0  0  0999 V2000     
   22.8002   22.1955   23.4920 C   0  0  0  0  0  0  0  0  0  0  0  0
   23.4670   21.5981   24.1274 H   0  0  0  0  0  0  0  0  0  0  0  0
   22.9134   21.8490   22.4565 H   0  0  0  0  0  0  0  0  0  0  0  0
   23.1373   23.2392   23.5370 H   0  0  0  0  0  0  0  0  0  0  0  0
   21.3343   22.0758   23.9598 C   0  0  0  0  0  0  0  0  0  0  0  0
   20.6966   22.7089   23.3270 H   0  0  0  0  0  0  0  0  0  0  0  0
   21.2466   22.4617   24.9852 H   0  0  0  0  0  0  0  0  0  0  0  0
   20.8346   20.6152   23.9070 C   0  0  0  0  0  0  0  0  0  0  0  0
   20.9357   20.2391   22.8806 H   0  0  0  0  0  0  0  0  0  0  0  0
   21.4737   19.9867   24.5424 H   0  0  0  0  0  0  0  0  0  0  0  0
   19.3635   20.4945   24.3721 C   0  0  0  0  0  0  0  0  0  0  0  0
   18.7151   21.0809   23.7065 H   0  0  0  0  0  0  0  0  0  0  0  0
   19.2657   20.9424   25.3707 H   0  0  0  0  0  0  0  0  0  0  0  0
   18.8548   19.0335   24.4378 C   0  0  0  0  0  0  0  0  0  0  0  0
   19.4898   18.4642   25.1294 H   0  0  0  0  0  0  0  0  0  0  0  0
   17.8453   19.0350   24.8716 H   0  0  0  0  0  0  0  0  0  0  0  0
   18.8090   18.3346   23.0545 C   0  0  0  0  0  0  0  0  0  0  0  0
   19.8265   18.1986   22.6668 H   0  0  0  0  0  0  0  0  0  0  0  0
   18.2887   18.9931   22.3466 H   0  0  0  0  0  0  0  0  0  0  0  0
   18.0855   16.9690   23.0758 C   0  0  2  0  0  0  0  0  0  0  0  0
   17.0864   17.1164   23.4974 H   0  0  0  0  0  0  0  0  0  0  0  0
   18.8299   15.9331   23.9372 C   0  0  0  0  0  0  0  0  0  0  0  0
   19.8607   15.7941   23.5882 H   0  0  0  0  0  0  0  0  0  0  0  0
   18.8613   16.2386   24.9894 H   0  0  0  0  0  0  0  0  0  0  0  0
   18.3230   14.9612   23.8966 H   0  0  0  0  0  0  0  0  0  0  0  0
   17.8842   16.4397   21.6831 N   0  3  0  0  0  0  0  0  0  0  0  0
   17.3524   17.0957   21.1036 H   0  0  0  0  0  0  0  0  0  0  0  0
   17.3700   15.5541   21.6904 H   0  0  0  0  0  0  0  0  0  0  0  0
   18.7782   16.2700   21.2145 H   0  0  0  0  0  0  0  0  0  0  0  0
  1  2  1  0  0  0  0
  1  3  1  0  0  0  0
  1  4  1  0  0  0  0
  1  5  1  0  0  0  0
  5  6  1  0  0  0  0
  5  7  1  0  0  0  0
  5  8  1  0  0  0  0
  8  9  1  0  0  0  0
  8 10  1  0  0  0  0
  8 11  1  0  0  0  0
 11 12  1  0  0  0  0
 11 13  1  0  0  0  0
 11 14  1  0  0  0  0
 14 15  1  0  0  0  0
 14 16  1  0  0  0  0
 14 17  1  0  0  0  0
 17 18  1  0  0  0  0
 17 19  1  0  0  0  0
 17 20  1  0  0  0  0
 20 21  1  0  0  0  0
 20 22  1  0  0  0  0
 22 23  1  0  0  0  0
 22 24  1  0  0  0  0
 22 25  1  0  0  0  0
 20 26  1  0  0  0  0
 26 27  1  0  0  0  0
 26 28  1  0  0  0  0
 26 29  1  0  0  0  0
M  END
> <VConfSearch Rank>
308

> <Conf_Id>
39

> <Delta U+W>
0.965

> <U+W>
-26.861

> <U>
25.129

> <W>
-51.990

> <W(PB)>
-54.526

> <W(SA)>
2.536

> <Valence>
4.206

> <Coulomb>
19.678

> <VdW>
1.245

> <VdW6>
-8.834

> <VdW12>
10.079

> <Bond>
0.240

> <Angle>
1.353

> <Pdih>
2.613

> <Idih>
0.000

> <Tether>
0.000

$$$$
VeraChem MOL file


 29 28  0  0  0  0  0  0  0  0999 V2000     
   20.8416   23.1351   24.2309 C   0  0  0  0  0  0  0  0  0  0  0  0
   20.8867   23.3288   23.1513 H   0  0  0  0  0  0  0  0  0  0  0  0
   19.7875   23.1148   24.5335 H   0  0  0  0  0  0  0  0  0  0  0  0
   21.3149   23.9823   24.7439 H   0  0  0  0  0  0  0  0  0  0  0  0
   21.5624   21.8156   24.5894 C   0  0  0  0  0  0  0  0  0  0  0  0
   21.4732   21.6262   25.6682 H   0  0  0  0  0  0  0  0  0  0  0  0
   22.6359   21.9344   24.3861 H   0  0  0  0  0  0  0  0  0  0  0  0
   21.0414   20.5917   23.7978 C   0  0  0  0  0  0  0  0  0  0  0  0
   21.1335   20.7858   22.7204 H   0  0  0  0  0  0  0  0  0  0  0  0
   21.7000   19.7419   24.0175 H   0  0  0  0  0  0  0  0  0  0  0  0
   19.5770   20.2148   24.1386 C   0  0  0  0  0  0  0  0  0  0  0  0
   18.9219   21.0693   23.9257 H   0  0  0  0  0  0  0  0  0  0  0  0
   19.4858   20.0163   25.2153 H   0  0  0  0  0  0  0  0  0  0  0  0
   19.0487   18.9981   23.3394 C   0  0  0  0  0  0  0  0  0  0  0  0
   17.9748   18.8975   23.5438 H   0  0  0  0  0  0  0  0  0  0  0  0
   19.1418   19.2069   22.2654 H   0  0  0  0  0  0  0  0  0  0  0  0
   19.7690   17.6675   23.6906 C   0  0  0  0  0  0  0  0  0  0  0  0
   19.7659   17.5310   24.7799 H   0  0  0  0  0  0  0  0  0  0  0  0
   20.8236   17.7278   23.3948 H   0  0  0  0  0  0  0  0  0  0  0  0
   19.1563   16.4062   23.0373 C   0  0  2  0  0  0  0  0  0  0  0  0
   19.7475   15.5476   23.3706 H   0  0  0  0  0  0  0  0  0  0  0  0
   19.2328   16.4565   21.5014 C   0  0  0  0  0  0  0  0  0  0  0  0
   18.5866   17.2406   21.0891 H   0  0  0  0  0  0  0  0  0  0  0  0
   20.2606   16.6472   21.1684 H   0  0  0  0  0  0  0  0  0  0  0  0
   18.9154   15.4993   21.0699 H   0  0  0  0  0  0  0  0  0  0  0  0
   17.7486   16.1456   23.4983 N   0  3  0  0  0  0  0  0  0  0  0  0
   17.6960   16.0679   24.5181 H   0  0  0  0  0  0  0  0  0  0  0  0
   17.3818   15.2739   23.1055 H   0  0  0  0  0  0  0  0  0  0  0  0
   17.1188   16.8996   23.2134 H   0  0  0  0  0  0  0  0  0  0  0  0
  1  2  1  0  0  0  0
  1  3  1  0  0  0  0
  1  4  1  0  0  0  0
  1  5  1  0  0  0  0
  5  6  1  0  0  0  0
  5  7  1  0  0  0  0
  5  8  1  0  0  0  0
  8  9  1  0  0  0  0
  8 10  1  0  0  0  0
  8 11  1  0  0  0  0
 11 12  1  0  0  0  0
 11 13  1  0  0  0  0
 11 14  1  0  0  0  0
 14 15  1  0  0  0  0
 14 16  1  0  0  0  0
 14 17  1  0  0  0  0
 17 18  1  0  0  0  0
 17 19  1  0  0  0  0
 17 20  1  0  0  0  0
 20 21  1  0  0  0  0
 20 22  1  0  0  0  0
 22 23  1  0  0  0  0
 22 24  1  0  0  0  0
 22 25  1  0  0  0  0
 20 26  1  0  0  0  0
 26 27  1  0  0  0  0
 26 28  1  0  0  0  0
 26 29  1  0  0  0  0
M  END
> <VConfSearch Rank>
309

> <Conf_Id>
155

> <Delta U+W>
1.624

> <U+W>
-26.202

> <U>
25.894

> <W>
-52.096

> <W(PB)>
-54.602

> <W(SA)>
2.506

> <Valence>
4.779

> <Coulomb>
19.659

> <VdW>
1.456

> <VdW6>
-9.843

> <VdW12>
11.299

> <Bond>
0.315

> <Angle>
1.725

> <Pdih>
2.740

> <Idih>
0.000

> <Tether>
0.000

$$$$
VeraChem MOL file


 29 28  0  0  0  0  0  0  0  0999 V2000     
   19.3947   15.2110   22.3744 C   0  0  0  0  0  0  0  0  0  0  0  0
   20.4757   15.3981   22.3631 H   0  0  0  0  0  0  0  0  0  0  0  0
   19.0681   15.1426   23.4202 H   0  0  0  0  0  0  0  0  0  0  0  0
   19.2237   14.2339   21.9044 H   0  0  0  0  0  0  0  0  0  0  0  0
   18.6201   16.3164   21.6218 C   0  0  0  0  0  0  0  0  0  0  0  0
   17.5615   16.0281   21.5592 H   0  0  0  0  0  0  0  0  0  0  0  0
   18.9826   16.3820   20.5864 H   0  0  0  0  0  0  0  0  0  0  0  0
   18.7184   17.7040   22.3001 C   0  0  0  0  0  0  0  0  0  0  0  0
   18.0637   18.4030   21.7618 H   0  0  0  0  0  0  0  0  0  0  0  0
   18.3234   17.6305   23.3217 H   0  0  0  0  0  0  0  0  0  0  0  0
   20.1595   18.2738   22.3233 C   0  0  0  0  0  0  0  0  0  0  0  0
   20.5831   18.2110   21.3115 H   0  0  0  0  0  0  0  0  0  0  0  0
   20.7994   17.6547   22.9658 H   0  0  0  0  0  0  0  0  0  0  0  0
   20.2368   19.7468   22.7952 C   0  0  0  0  0  0  0  0  0  0  0  0
   21.2671   20.0937   22.6448 H   0  0  0  0  0  0  0  0  0  0  0  0
   19.6022   20.3728   22.1529 H   0  0  0  0  0  0  0  0  0  0  0  0
   19.8332   19.9421   24.2800 C   0  0  0  0  0  0  0  0  0  0  0  0
   20.4753   19.3256   24.9229 H   0  0  0  0  0  0  0  0  0  0  0  0
   18.8084   19.5784   24.4221 H   0  0  0  0  0  0  0  0  0  0  0  0
   19.8856   21.4138   24.7510 C   0  0  2  0  0  0  0  0  0  0  0  0
   19.2882   22.0169   24.0604 H   0  0  0  0  0  0  0  0  0  0  0  0
   21.3209   21.9698   24.7688 C   0  0  0  0  0  0  0  0  0  0  0  0
   21.9771   21.3547   25.3971 H   0  0  0  0  0  0  0  0  0  0  0  0
   21.7476   22.0086   23.7601 H   0  0  0  0  0  0  0  0  0  0  0  0
   21.3336   22.9930   25.1642 H   0  0  0  0  0  0  0  0  0  0  0  0
   19.2533   21.5709   26.1061 N   0  3  0  0  0  0  0  0  0  0  0  0
   18.2811   21.2491   26.1085 H   0  0  0  0  0  0  0  0  0  0  0  0
   19.2505   22.5501   26.4060 H   0  0  0  0  0  0  0  0  0  0  0  0
   19.7569   21.0350   26.8181 H   0  0  0  0  0  0  0  0  0  0  0  0
  1  2  1  0  0  0  0
  1  3  1  0  0  0  0
  1  4  1  0  0  0  0
  1  5  1  0  0  0  0
  5  6  1  0  0  0  0
  5  7  1  0  0  0  0
  5  8  1  0  0  0  0
  8  9  1  0  0  0  0
  8 10  1  0  0  0  0
  8 11  1  0  0  0  0
 11 12  1  0  0  0  0
 11 13  1  0  0  0  0
 11 14  1  0  0  0  0
 14 15  1  0  0  0  0
 14 16  1  0  0  0  0
 14 17  1  0  0  0  0
 17 18  1  0  0  0  0
 17 19  1  0  0  0  0
 17 20  1  0  0  0  0
 20 21  1  0  0  0  0
 20 22  1  0  0  0  0
 22 23  1  0  0  0  0
 22 24  1  0  0  0  0
 22 25  1  0  0  0  0
 20 26  1  0  0  0  0
 26 27  1  0  0  0  0
 26 28  1  0  0  0  0
 26 29  1  0  0  0  0
M  END
> <VConfSearch Rank>
310

> <Conf_Id>
135

> <Delta U+W>
1.581

> <U+W>
-26.245

> <U>
25.974

> <W>
-52.219

> <W(PB)>
-54.709

> <W(SA)>
2.490

> <Valence>
4.811

> <Coulomb>
19.700

> <VdW>
1.463

> <VdW6>
-9.391

> <VdW12>
10.854

> <Bond>
0.285

> <Angle>
1.671

> <Pdih>
2.855

> <Idih>
0.000

> <Tether>
0.000

$$$$
VeraChem MOL file


 29 28  0  0  0  0  0  0  0  0999 V2000     
   22.0681   15.8764   22.7729 C   0  0  0  0  0  0  0  0  0  0  0  0
   21.1541   15.6130   22.2250 H   0  0  0  0  0  0  0  0  0  0  0  0
   22.5978   16.6519   22.2058 H   0  0  0  0  0  0  0  0  0  0  0  0
   22.7123   14.9879   22.7984 H   0  0  0  0  0  0  0  0  0  0  0  0
   21.7395   16.3477   24.2075 C   0  0  0  0  0  0  0  0  0  0  0  0
   22.6669   16.6300   24.7253 H   0  0  0  0  0  0  0  0  0  0  0  0
   21.3179   15.5032   24.7705 H   0  0  0  0  0  0  0  0  0  0  0  0
   20.7360   17.5250   24.2513 C   0  0  0  0  0  0  0  0  0  0  0  0
   19.8040   17.2204   23.7573 H   0  0  0  0  0  0  0  0  0  0  0  0
   20.4807   17.7275   25.3006 H   0  0  0  0  0  0  0  0  0  0  0  0
   21.2831   18.8218   23.6033 C   0  0  0  0  0  0  0  0  0  0  0  0
   21.4319   18.6707   22.5260 H   0  0  0  0  0  0  0  0  0  0  0  0
   22.2731   19.0434   24.0251 H   0  0  0  0  0  0  0  0  0  0  0  0
   20.3679   20.0511   23.8235 C   0  0  0  0  0  0  0  0  0  0  0  0
   20.2539   20.2243   24.9017 H   0  0  0  0  0  0  0  0  0  0  0  0
   20.8719   20.9389   23.4171 H   0  0  0  0  0  0  0  0  0  0  0  0
   18.9768   19.9084   23.1538 C   0  0  0  0  0  0  0  0  0  0  0  0
   18.4044   19.1087   23.6408 H   0  0  0  0  0  0  0  0  0  0  0  0
   19.1210   19.5998   22.1100 H   0  0  0  0  0  0  0  0  0  0  0  0
   18.1465   21.2119   23.1692 C   0  0  2  0  0  0  0  0  0  0  0  0
   18.7456   22.0059   22.7128 H   0  0  0  0  0  0  0  0  0  0  0  0
   17.7734   21.6435   24.5987 C   0  0  0  0  0  0  0  0  0  0  0  0
   17.2202   20.8525   25.1204 H   0  0  0  0  0  0  0  0  0  0  0  0
   18.6657   21.8849   25.1878 H   0  0  0  0  0  0  0  0  0  0  0  0
   17.1447   22.5422   24.5792 H   0  0  0  0  0  0  0  0  0  0  0  0
   16.9088   21.0769   22.3265 N   0  3  0  0  0  0  0  0  0  0  0  0
   16.3761   21.9511   22.3019 H   0  0  0  0  0  0  0  0  0  0  0  0
   16.2864   20.3500   22.6897 H   0  0  0  0  0  0  0  0  0  0  0  0
   17.1366   20.8319   21.3585 H   0  0  0  0  0  0  0  0  0  0  0  0
  1  2  1  0  0  0  0
  1  3  1  0  0  0  0
  1  4  1  0  0  0  0
  1  5  1  0  0  0  0
  5  6  1  0  0  0  0
  5  7  1  0  0  0  0
  5  8  1  0  0  0  0
  8  9  1  0  0  0  0
  8 10  1  0  0  0  0
  8 11  1  0  0  0  0
 11 12  1  0  0  0  0
 11 13  1  0  0  0  0
 11 14  1  0  0  0  0
 14 15  1  0  0  0  0
 14 16  1  0  0  0  0
 14 17  1  0  0  0  0
 17 18  1  0  0  0  0
 17 19  1  0  0  0  0
 17 20  1  0  0  0  0
 20 21  1  0  0  0  0
 20 22  1  0  0  0  0
 22 23  1  0  0  0  0
 22 24  1  0  0  0  0
 22 25  1  0  0  0  0
 20 26  1  0  0  0  0
 26 27  1  0  0  0  0
 26 28  1  0  0  0  0
 26 29  1  0  0  0  0
M  END
> <VConfSearch Rank>
311

> <Conf_Id>
130

> <Delta U+W>
1.359

> <U+W>
-26.467

> <U>
25.687

> <W>
-52.154

> <W(PB)>
-54.643

> <W(SA)>
2.489

> <Valence>
4.682

> <Coulomb>
19.653

> <VdW>
1.352

> <VdW6>
-9.477

> <VdW12>
10.829

> <Bond>
0.274

> <Angle>
1.550

> <Pdih>
2.858

> <Idih>
0.000

> <Tether>
0.000

$$$$
VeraChem MOL file


 29 28  0  0  0  0  0  0  0  0999 V2000     
   19.4810   18.6943   27.5528 C   0  0  0  0  0  0  0  0  0  0  0  0
   19.9144   18.9950   28.5155 H   0  0  0  0  0  0  0  0  0  0  0  0
   18.4419   18.3895   27.7331 H   0  0  0  0  0  0  0  0  0  0  0  0
   20.0402   17.8195   27.1989 H   0  0  0  0  0  0  0  0  0  0  0  0
   19.5504   19.8606   26.5411 C   0  0  0  0  0  0  0  0  0  0  0  0
   20.6004   20.1244   26.3526 H   0  0  0  0  0  0  0  0  0  0  0  0
   19.0869   20.7486   26.9933 H   0  0  0  0  0  0  0  0  0  0  0  0
   18.8382   19.5580   25.2006 C   0  0  0  0  0  0  0  0  0  0  0  0
   17.7848   19.3129   25.3939 H   0  0  0  0  0  0  0  0  0  0  0  0
   18.8336   20.4771   24.6012 H   0  0  0  0  0  0  0  0  0  0  0  0
   19.5009   18.4099   24.3969 C   0  0  0  0  0  0  0  0  0  0  0  0
   19.4377   17.4820   24.9801 H   0  0  0  0  0  0  0  0  0  0  0  0
   20.5695   18.6196   24.2670 H   0  0  0  0  0  0  0  0  0  0  0  0
   18.8253   18.1593   23.0235 C   0  0  0  0  0  0  0  0  0  0  0  0
   19.1263   17.1746   22.6401 H   0  0  0  0  0  0  0  0  0  0  0  0
   17.7397   18.0922   23.1794 H   0  0  0  0  0  0  0  0  0  0  0  0
   19.1156   19.2424   21.9477 C   0  0  0  0  0  0  0  0  0  0  0  0
   19.3248   20.2126   22.4137 H   0  0  0  0  0  0  0  0  0  0  0  0
   18.1982   19.3845   21.3614 H   0  0  0  0  0  0  0  0  0  0  0  0
   20.2495   18.8810   20.9587 C   0  0  2  0  0  0  0  0  0  0  0  0
   19.9943   17.9305   20.4801 H   0  0  0  0  0  0  0  0  0  0  0  0
   21.6131   18.7194   21.6515 C   0  0  0  0  0  0  0  0  0  0  0  0
   21.6085   17.8613   22.3335 H   0  0  0  0  0  0  0  0  0  0  0  0
   22.4038   18.5401   20.9127 H   0  0  0  0  0  0  0  0  0  0  0  0
   21.8776   19.6178   22.2229 H   0  0  0  0  0  0  0  0  0  0  0  0
   20.3457   19.8967   19.8542 N   0  3  0  0  0  0  0  0  0  0  0  0
   19.4607   19.9872   19.3469 H   0  0  0  0  0  0  0  0  0  0  0  0
   21.0634   19.6388   19.1708 H   0  0  0  0  0  0  0  0  0  0  0  0
   20.5885   20.8222   20.2177 H   0  0  0  0  0  0  0  0  0  0  0  0
  1  2  1  0  0  0  0
  1  3  1  0  0  0  0
  1  4  1  0  0  0  0
  1  5  1  0  0  0  0
  5  6  1  0  0  0  0
  5  7  1  0  0  0  0
  5  8  1  0  0  0  0
  8  9  1  0  0  0  0
  8 10  1  0  0  0  0
  8 11  1  0  0  0  0
 11 12  1  0  0  0  0
 11 13  1  0  0  0  0
 11 14  1  0  0  0  0
 14 15  1  0  0  0  0
 14 16  1  0  0  0  0
 14 17  1  0  0  0  0
 17 18  1  0  0  0  0
 17 19  1  0  0  0  0
 17 20  1  0  0  0  0
 20 21  1  0  0  0  0
 20 22  1  0  0  0  0
 22 23  1  0  0  0  0
 22 24  1  0  0  0  0
 22 25  1  0  0  0  0
 20 26  1  0  0  0  0
 26 27  1  0  0  0  0
 26 28  1  0  0  0  0
 26 29  1  0  0  0  0
M  END
> <VConfSearch Rank>
312

> <Conf_Id>
157

> <Delta U+W>
4.354

> <U+W>
-23.472

> <U>
28.780

> <W>
-52.252

> <W(PB)>
-54.715

> <W(SA)>
2.462

> <Valence>
7.566

> <Coulomb>
19.822

> <VdW>
1.392

> <VdW6>
-10.248

> <VdW12>
11.641

> <Bond>
0.340

> <Angle>
2.096

> <Pdih>
5.129

> <Idih>
0.000

> <Tether>
0.000

$$$$
VeraChem MOL file


 29 28  0  0  0  0  0  0  0  0999 V2000     
   23.2603   19.6834   22.5268 C   0  0  0  0  0  0  0  0  0  0  0  0
   24.0959   19.2314   21.9768 H   0  0  0  0  0  0  0  0  0  0  0  0
   22.3868   19.6800   21.8657 H   0  0  0  0  0  0  0  0  0  0  0  0
   23.5239   20.7290   22.7321 H   0  0  0  0  0  0  0  0  0  0  0  0
   22.9985   18.9127   23.8418 C   0  0  0  0  0  0  0  0  0  0  0  0
   23.9191   18.9441   24.4414 H   0  0  0  0  0  0  0  0  0  0  0  0
   22.8111   17.8505   23.6318 H   0  0  0  0  0  0  0  0  0  0  0  0
   21.8405   19.5090   24.6828 C   0  0  0  0  0  0  0  0  0  0  0  0
   22.1057   19.4136   25.7449 H   0  0  0  0  0  0  0  0  0  0  0  0
   21.7521   20.5881   24.4966 H   0  0  0  0  0  0  0  0  0  0  0  0
   20.4663   18.8193   24.4825 C   0  0  0  0  0  0  0  0  0  0  0  0
   19.7564   19.2797   25.1817 H   0  0  0  0  0  0  0  0  0  0  0  0
   20.5431   17.7633   24.7758 H   0  0  0  0  0  0  0  0  0  0  0  0
   19.9116   18.9121   23.0397 C   0  0  0  0  0  0  0  0  0  0  0  0
   19.9107   19.9581   22.7058 H   0  0  0  0  0  0  0  0  0  0  0  0
   20.5835   18.3711   22.3612 H   0  0  0  0  0  0  0  0  0  0  0  0
   18.4942   18.3023   22.8872 C   0  0  0  0  0  0  0  0  0  0  0  0
   18.5383   17.2365   23.1480 H   0  0  0  0  0  0  0  0  0  0  0  0
   18.1996   18.3468   21.8302 H   0  0  0  0  0  0  0  0  0  0  0  0
   17.4076   18.9867   23.7468 C   0  0  2  0  0  0  0  0  0  0  0  0
   17.6975   18.9073   24.7985 H   0  0  0  0  0  0  0  0  0  0  0  0
   16.0578   18.2739   23.5687 C   0  0  0  0  0  0  0  0  0  0  0  0
   15.7136   18.3289   22.5282 H   0  0  0  0  0  0  0  0  0  0  0  0
   16.1365   17.2156   23.8471 H   0  0  0  0  0  0  0  0  0  0  0  0
   15.2908   18.7298   24.2069 H   0  0  0  0  0  0  0  0  0  0  0  0
   17.2760   20.4539   23.4437 N   0  3  0  0  0  0  0  0  0  0  0  0
   18.1612   20.9446   23.5969 H   0  0  0  0  0  0  0  0  0  0  0  0
   16.5704   20.8977   24.0384 H   0  0  0  0  0  0  0  0  0  0  0  0
   17.0001   20.6100   22.4706 H   0  0  0  0  0  0  0  0  0  0  0  0
  1  2  1  0  0  0  0
  1  3  1  0  0  0  0
  1  4  1  0  0  0  0
  1  5  1  0  0  0  0
  5  6  1  0  0  0  0
  5  7  1  0  0  0  0
  5  8  1  0  0  0  0
  8  9  1  0  0  0  0
  8 10  1  0  0  0  0
  8 11  1  0  0  0  0
 11 12  1  0  0  0  0
 11 13  1  0  0  0  0
 11 14  1  0  0  0  0
 14 15  1  0  0  0  0
 14 16  1  0  0  0  0
 14 17  1  0  0  0  0
 17 18  1  0  0  0  0
 17 19  1  0  0  0  0
 17 20  1  0  0  0  0
 20 21  1  0  0  0  0
 20 22  1  0  0  0  0
 22 23  1  0  0  0  0
 22 24  1  0  0  0  0
 22 25  1  0  0  0  0
 20 26  1  0  0  0  0
 26 27  1  0  0  0  0
 26 28  1  0  0  0  0
 26 29  1  0  0  0  0
M  END
> <VConfSearch Rank>
313

> <Conf_Id>
158

> <Delta U+W>
3.648

> <U+W>
-24.178

> <U>
28.057

> <W>
-52.235

> <W(PB)>
-54.696

> <W(SA)>
2.460

> <Valence>
6.543

> <Coulomb>
20.387

> <VdW>
1.127

> <VdW6>
-10.342

> <VdW12>
11.469

> <Bond>
0.308

> <Angle>
1.938

> <Pdih>
4.297

> <Idih>
0.000

> <Tether>
0.000

$$$$
VeraChem MOL file


 29 28  0  0  0  0  0  0  0  0999 V2000     
   19.4099   21.8814   21.2035 C   0  0  0  0  0  0  0  0  0  0  0  0
   19.5457   21.1839   20.3668 H   0  0  0  0  0  0  0  0  0  0  0  0
   18.5840   21.5158   21.8261 H   0  0  0  0  0  0  0  0  0  0  0  0
   19.1048   22.8500   20.7869 H   0  0  0  0  0  0  0  0  0  0  0  0
   20.7139   22.0308   22.0197 C   0  0  0  0  0  0  0  0  0  0  0  0
   20.5433   22.7074   22.8687 H   0  0  0  0  0  0  0  0  0  0  0  0
   21.4726   22.5145   21.3887 H   0  0  0  0  0  0  0  0  0  0  0  0
   21.2787   20.6830   22.5295 C   0  0  0  0  0  0  0  0  0  0  0  0
   21.4642   20.0171   21.6755 H   0  0  0  0  0  0  0  0  0  0  0  0
   22.2564   20.8683   22.9952 H   0  0  0  0  0  0  0  0  0  0  0  0
   20.3575   19.9758   23.5519 C   0  0  0  0  0  0  0  0  0  0  0  0
   19.3976   19.7380   23.0806 H   0  0  0  0  0  0  0  0  0  0  0  0
   20.1385   20.6629   24.3808 H   0  0  0  0  0  0  0  0  0  0  0  0
   21.0084   18.6875   24.1125 C   0  0  0  0  0  0  0  0  0  0  0  0
   21.3048   18.0183   23.2929 H   0  0  0  0  0  0  0  0  0  0  0  0
   21.9391   18.9695   24.6243 H   0  0  0  0  0  0  0  0  0  0  0  0
   20.1042   17.9283   25.1195 C   0  0  0  0  0  0  0  0  0  0  0  0
   19.4193   18.6267   25.6185 H   0  0  0  0  0  0  0  0  0  0  0  0
   20.7497   17.5261   25.9115 H   0  0  0  0  0  0  0  0  0  0  0  0
   19.3133   16.7419   24.5174 C   0  0  2  0  0  0  0  0  0  0  0  0
   20.0310   16.0448   24.0741 H   0  0  0  0  0  0  0  0  0  0  0  0
   18.3267   17.1757   23.4202 C   0  0  0  0  0  0  0  0  0  0  0  0
   17.6395   17.9487   23.7860 H   0  0  0  0  0  0  0  0  0  0  0  0
   18.8588   17.5667   22.5453 H   0  0  0  0  0  0  0  0  0  0  0  0
   17.7286   16.3222   23.0782 H   0  0  0  0  0  0  0  0  0  0  0  0
   18.5910   15.9767   25.5913 N   0  3  0  0  0  0  0  0  0  0  0  0
   19.2359   15.6351   26.3098 H   0  0  0  0  0  0  0  0  0  0  0  0
   18.1042   15.1619   25.2067 H   0  0  0  0  0  0  0  0  0  0  0  0
   17.8904   16.5589   26.0581 H   0  0  0  0  0  0  0  0  0  0  0  0
  1  2  1  0  0  0  0
  1  3  1  0  0  0  0
  1  4  1  0  0  0  0
  1  5  1  0  0  0  0
  5  6  1  0  0  0  0
  5  7  1  0  0  0  0
  5  8  1  0  0  0  0
  8  9  1  0  0  0  0
  8 10  1  0  0  0  0
  8 11  1  0  0  0  0
 11 12  1  0  0  0  0
 11 13  1  0  0  0  0
 11 14  1  0  0  0  0
 14 15  1  0  0  0  0
 14 16  1  0  0  0  0
 14 17  1  0  0  0  0
 17 18  1  0  0  0  0
 17 19  1  0  0  0  0
 17 20  1  0  0  0  0
 20 21  1  0  0  0  0
 20 22  1  0  0  0  0
 22 23  1  0  0  0  0
 22 24  1  0  0  0  0
 22 25  1  0  0  0  0
 20 26  1  0  0  0  0
 26 27  1  0  0  0  0
 26 28  1  0  0  0  0
 26 29  1  0  0  0  0
M  END
> <VConfSearch Rank>
314

> <Conf_Id>
156

> <Delta U+W>
3.393

> <U+W>
-24.433

> <U>
27.713

> <W>
-52.146

> <W(PB)>
-54.603

> <W(SA)>
2.458

> <Valence>
6.758

> <Coulomb>
19.720

> <VdW>
1.235

> <VdW6>
-9.782

> <VdW12>
11.017

> <Bond>
0.287

> <Angle>
1.880

> <Pdih>
4.591

> <Idih>
0.000

> <Tether>
0.000

$$$$
VeraChem MOL file


 29 28  0  0  0  0  0  0  0  0999 V2000     
   20.6397   16.4481   26.1693 C   0  0  0  0  0  0  0  0  0  0  0  0
   21.0992   15.8978   25.3379 H   0  0  0  0  0  0  0  0  0  0  0  0
   21.3879   16.5519   26.9659 H   0  0  0  0  0  0  0  0  0  0  0  0
   19.8135   15.8403   26.5604 H   0  0  0  0  0  0  0  0  0  0  0  0
   20.1283   17.8282   25.7048 C   0  0  0  0  0  0  0  0  0  0  0  0
   19.6483   18.3426   26.5489 H   0  0  0  0  0  0  0  0  0  0  0  0
   19.3555   17.6817   24.9387 H   0  0  0  0  0  0  0  0  0  0  0  0
   21.2751   18.7021   25.1448 C   0  0  0  0  0  0  0  0  0  0  0  0
   22.0710   18.7713   25.8991 H   0  0  0  0  0  0  0  0  0  0  0  0
   21.7285   18.2079   24.2756 H   0  0  0  0  0  0  0  0  0  0  0  0
   20.8346   20.1409   24.7696 C   0  0  0  0  0  0  0  0  0  0  0  0
   21.7114   20.6943   24.4061 H   0  0  0  0  0  0  0  0  0  0  0  0
   20.5094   20.6606   25.6813 H   0  0  0  0  0  0  0  0  0  0  0  0
   19.7043   20.2396   23.7124 C   0  0  0  0  0  0  0  0  0  0  0  0
   18.7845   19.7962   24.1140 H   0  0  0  0  0  0  0  0  0  0  0  0
   19.4848   21.3036   23.5570 H   0  0  0  0  0  0  0  0  0  0  0  0
   20.0704   19.5805   22.3545 C   0  0  0  0  0  0  0  0  0  0  0  0
   20.2614   18.5110   22.5055 H   0  0  0  0  0  0  0  0  0  0  0  0
   21.0117   20.0081   21.9851 H   0  0  0  0  0  0  0  0  0  0  0  0
   18.9934   19.7187   21.2526 C   0  0  2  0  0  0  0  0  0  0  0  0
   19.3533   19.1696   20.3770 H   0  0  0  0  0  0  0  0  0  0  0  0
   18.7819   21.1820   20.8265 C   0  0  0  0  0  0  0  0  0  0  0  0
   18.1232   21.2343   19.9509 H   0  0  0  0  0  0  0  0  0  0  0  0
   18.3228   21.7762   21.6254 H   0  0  0  0  0  0  0  0  0  0  0  0
   19.7355   21.6505   20.5533 H   0  0  0  0  0  0  0  0  0  0  0  0
   17.6901   19.0765   21.6405 N   0  3  0  0  0  0  0  0  0  0  0  0
   17.8149   18.0887   21.8795 H   0  0  0  0  0  0  0  0  0  0  0  0
   17.0087   19.1235   20.8775 H   0  0  0  0  0  0  0  0  0  0  0  0
   17.2752   19.5413   22.4519 H   0  0  0  0  0  0  0  0  0  0  0  0
  1  2  1  0  0  0  0
  1  3  1  0  0  0  0
  1  4  1  0  0  0  0
  1  5  1  0  0  0  0
  5  6  1  0  0  0  0
  5  7  1  0  0  0  0
  5  8  1  0  0  0  0
  8  9  1  0  0  0  0
  8 10  1  0  0  0  0
  8 11  1  0  0  0  0
 11 12  1  0  0  0  0
 11 13  1  0  0  0  0
 11 14  1  0  0  0  0
 14 15  1  0  0  0  0
 14 16  1  0  0  0  0
 14 17  1  0  0  0  0
 17 18  1  0  0  0  0
 17 19  1  0  0  0  0
 17 20  1  0  0  0  0
 20 21  1  0  0  0  0
 20 22  1  0  0  0  0
 22 23  1  0  0  0  0
 22 24  1  0  0  0  0
 22 25  1  0  0  0  0
 20 26  1  0  0  0  0
 26 27  1  0  0  0  0
 26 28  1  0  0  0  0
 26 29  1  0  0  0  0
M  END
> <VConfSearch Rank>
315

> <Conf_Id>
78

> <Delta U+W>
1.477

> <U+W>
-26.349

> <U>
26.385

> <W>
-52.734

> <W(PB)>
-55.179

> <W(SA)>
2.445

> <Valence>
4.726

> <Coulomb>
20.482

> <VdW>
1.177

> <VdW6>
-10.349

> <VdW12>
11.526

> <Bond>
0.319

> <Angle>
1.933

> <Pdih>
2.474

> <Idih>
0.000

> <Tether>
0.000

$$$$
VeraChem MOL file


 29 28  0  0  0  0  0  0  0  0999 V2000     
   17.4365   21.5439   22.0908 C   0  0  0  0  0  0  0  0  0  0  0  0
   17.5967   21.6002   21.0062 H   0  0  0  0  0  0  0  0  0  0  0  0
   17.2072   20.5028   22.3434 H   0  0  0  0  0  0  0  0  0  0  0  0
   16.5506   22.1471   22.3280 H   0  0  0  0  0  0  0  0  0  0  0  0
   18.6712   22.0711   22.8583 C   0  0  0  0  0  0  0  0  0  0  0  0
   18.4728   22.0842   23.9391 H   0  0  0  0  0  0  0  0  0  0  0  0
   18.8284   23.1192   22.5675 H   0  0  0  0  0  0  0  0  0  0  0  0
   19.9670   21.2748   22.5572 C   0  0  0  0  0  0  0  0  0  0  0  0
   19.9235   20.8459   21.5466 H   0  0  0  0  0  0  0  0  0  0  0  0
   20.8070   21.9830   22.5414 H   0  0  0  0  0  0  0  0  0  0  0  0
   20.3088   20.1700   23.5900 C   0  0  0  0  0  0  0  0  0  0  0  0
   20.4564   20.6277   24.5778 H   0  0  0  0  0  0  0  0  0  0  0  0
   21.2759   19.7353   23.3059 H   0  0  0  0  0  0  0  0  0  0  0  0
   19.2469   19.0480   23.6969 C   0  0  0  0  0  0  0  0  0  0  0  0
   18.3053   19.4777   24.0614 H   0  0  0  0  0  0  0  0  0  0  0  0
   19.0334   18.6383   22.7010 H   0  0  0  0  0  0  0  0  0  0  0  0
   19.6531   17.9091   24.6681 C   0  0  0  0  0  0  0  0  0  0  0  0
   18.8354   17.1780   24.7194 H   0  0  0  0  0  0  0  0  0  0  0  0
   19.7470   18.3313   25.6773 H   0  0  0  0  0  0  0  0  0  0  0  0
   20.9681   17.1749   24.3137 C   0  0  2  0  0  0  0  0  0  0  0  0
   21.7780   17.9095   24.2840 H   0  0  0  0  0  0  0  0  0  0  0  0
   20.8919   16.4784   22.9435 C   0  0  0  0  0  0  0  0  0  0  0  0
   21.8159   15.9233   22.7400 H   0  0  0  0  0  0  0  0  0  0  0  0
   20.0540   15.7714   22.9038 H   0  0  0  0  0  0  0  0  0  0  0  0
   20.7663   17.2070   22.1340 H   0  0  0  0  0  0  0  0  0  0  0  0
   21.3391   16.1842   25.3819 N   0  3  0  0  0  0  0  0  0  0  0  0
   20.6307   15.4512   25.4742 H   0  0  0  0  0  0  0  0  0  0  0  0
   21.4368   16.6347   26.2965 H   0  0  0  0  0  0  0  0  0  0  0  0
   22.2295   15.7239   25.1723 H   0  0  0  0  0  0  0  0  0  0  0  0
  1  2  1  0  0  0  0
  1  3  1  0  0  0  0
  1  4  1  0  0  0  0
  1  5  1  0  0  0  0
  5  6  1  0  0  0  0
  5  7  1  0  0  0  0
  5  8  1  0  0  0  0
  8  9  1  0  0  0  0
  8 10  1  0  0  0  0
  8 11  1  0  0  0  0
 11 12  1  0  0  0  0
 11 13  1  0  0  0  0
 11 14  1  0  0  0  0
 14 15  1  0  0  0  0
 14 16  1  0  0  0  0
 14 17  1  0  0  0  0
 17 18  1  0  0  0  0
 17 19  1  0  0  0  0
 17 20  1  0  0  0  0
 20 21  1  0  0  0  0
 20 22  1  0  0  0  0
 22 23  1  0  0  0  0
 22 24  1  0  0  0  0
 22 25  1  0  0  0  0
 20 26  1  0  0  0  0
 26 27  1  0  0  0  0
 26 28  1  0  0  0  0
 26 29  1  0  0  0  0
M  END
> <VConfSearch Rank>
316

> <Conf_Id>
145

> <Delta U+W>
3.784

> <U+W>
-24.042

> <U>
28.220

> <W>
-52.262

> <W(PB)>
-54.724

> <W(SA)>
2.462

> <Valence>
7.040

> <Coulomb>
19.984

> <VdW>
1.197

> <VdW6>
-10.566

> <VdW12>
11.763

> <Bond>
0.320

> <Angle>
2.280

> <Pdih>
4.439

> <Idih>
0.000

> <Tether>
0.000

$$$$
VeraChem MOL file


 29 28  0  0  0  0  0  0  0  0999 V2000     
   19.6207   16.6251   20.5070 C   0  0  0  0  0  0  0  0  0  0  0  0
   18.6882   16.2351   20.0785 H   0  0  0  0  0  0  0  0  0  0  0  0
   19.8917   17.5388   19.9621 H   0  0  0  0  0  0  0  0  0  0  0  0
   20.4091   15.8816   20.3316 H   0  0  0  0  0  0  0  0  0  0  0  0
   19.4628   16.9062   22.0162 C   0  0  0  0  0  0  0  0  0  0  0  0
   20.4221   17.2520   22.4197 H   0  0  0  0  0  0  0  0  0  0  0  0
   19.2263   15.9675   22.5363 H   0  0  0  0  0  0  0  0  0  0  0  0
   18.3474   17.9439   22.2891 C   0  0  0  0  0  0  0  0  0  0  0  0
   18.5333   18.8658   21.7211 H   0  0  0  0  0  0  0  0  0  0  0  0
   17.4020   17.5372   21.9042 H   0  0  0  0  0  0  0  0  0  0  0  0
   18.1646   18.2711   23.7941 C   0  0  0  0  0  0  0  0  0  0  0  0
   18.4683   17.4140   24.4108 H   0  0  0  0  0  0  0  0  0  0  0  0
   17.0913   18.4069   23.9862 H   0  0  0  0  0  0  0  0  0  0  0  0
   18.8897   19.5556   24.2725 C   0  0  0  0  0  0  0  0  0  0  0  0
   18.4933   20.4168   23.7185 H   0  0  0  0  0  0  0  0  0  0  0  0
   18.6227   19.7170   25.3246 H   0  0  0  0  0  0  0  0  0  0  0  0
   20.4341   19.5036   24.1278 C   0  0  0  0  0  0  0  0  0  0  0  0
   20.6947   19.4320   23.0649 H   0  0  0  0  0  0  0  0  0  0  0  0
   20.8153   18.5898   24.6022 H   0  0  0  0  0  0  0  0  0  0  0  0
   21.1851   20.7217   24.7157 C   0  0  2  0  0  0  0  0  0  0  0  0
   22.2460   20.5929   24.4798 H   0  0  0  0  0  0  0  0  0  0  0  0
   21.0586   20.7992   26.2473 C   0  0  0  0  0  0  0  0  0  0  0  0
   21.7150   21.5823   26.6462 H   0  0  0  0  0  0  0  0  0  0  0  0
   20.0340   21.0314   26.5604 H   0  0  0  0  0  0  0  0  0  0  0  0
   21.3539   19.8501   26.7117 H   0  0  0  0  0  0  0  0  0  0  0  0
   20.7696   22.0168   24.0740 N   0  3  0  0  0  0  0  0  0  0  0  0
   19.7840   22.2211   24.2569 H   0  0  0  0  0  0  0  0  0  0  0  0
   20.8965   21.9902   23.0583 H   0  0  0  0  0  0  0  0  0  0  0  0
   21.3184   22.8042   24.4311 H   0  0  0  0  0  0  0  0  0  0  0  0
  1  2  1  0  0  0  0
  1  3  1  0  0  0  0
  1  4  1  0  0  0  0
  1  5  1  0  0  0  0
  5  6  1  0  0  0  0
  5  7  1  0  0  0  0
  5  8  1  0  0  0  0
  8  9  1  0  0  0  0
  8 10  1  0  0  0  0
  8 11  1  0  0  0  0
 11 12  1  0  0  0  0
 11 13  1  0  0  0  0
 11 14  1  0  0  0  0
 14 15  1  0  0  0  0
 14 16  1  0  0  0  0
 14 17  1  0  0  0  0
 17 18  1  0  0  0  0
 17 19  1  0  0  0  0
 17 20  1  0  0  0  0
 20 21  1  0  0  0  0
 20 22  1  0  0  0  0
 22 23  1  0  0  0  0
 22 24  1  0  0  0  0
 22 25  1  0  0  0  0
 20 26  1  0  0  0  0
 26 27  1  0  0  0  0
 26 28  1  0  0  0  0
 26 29  1  0  0  0  0
M  END
> <VConfSearch Rank>
317

> <Conf_Id>
71

> <Delta U+W>
3.542

> <U+W>
-24.284

> <U>
28.217

> <W>
-52.501

> <W(PB)>
-54.947

> <W(SA)>
2.446

> <Valence>
6.821

> <Coulomb>
20.147

> <VdW>
1.249

> <VdW6>
-10.237

> <VdW12>
11.486

> <Bond>
0.317

> <Angle>
1.990

> <Pdih>
4.515

> <Idih>
0.000

> <Tether>
0.000

$$$$
VeraChem MOL file


 29 28  0  0  0  0  0  0  0  0999 V2000     
   23.5609   19.5110   22.2567 C   0  0  0  0  0  0  0  0  0  0  0  0
   23.7497   18.9141   23.1585 H   0  0  0  0  0  0  0  0  0  0  0  0
   23.9836   18.9749   21.3970 H   0  0  0  0  0  0  0  0  0  0  0  0
   24.1024   20.4602   22.3613 H   0  0  0  0  0  0  0  0  0  0  0  0
   22.0505   19.7635   22.0655 C   0  0  0  0  0  0  0  0  0  0  0  0
   21.8984   20.3906   21.1760 H   0  0  0  0  0  0  0  0  0  0  0  0
   21.6717   20.3375   22.9195 H   0  0  0  0  0  0  0  0  0  0  0  0
   21.2673   18.4383   21.9046 C   0  0  0  0  0  0  0  0  0  0  0  0
   21.6596   17.9159   21.0210 H   0  0  0  0  0  0  0  0  0  0  0  0
   21.4582   17.7738   22.7584 H   0  0  0  0  0  0  0  0  0  0  0  0
   19.7411   18.6409   21.7165 C   0  0  0  0  0  0  0  0  0  0  0  0
   19.3804   17.8799   21.0107 H   0  0  0  0  0  0  0  0  0  0  0  0
   19.5404   19.6081   21.2354 H   0  0  0  0  0  0  0  0  0  0  0  0
   18.9038   18.5059   23.0146 C   0  0  0  0  0  0  0  0  0  0  0  0
   17.8433   18.5853   22.7426 H   0  0  0  0  0  0  0  0  0  0  0  0
   19.0418   17.4958   23.4227 H   0  0  0  0  0  0  0  0  0  0  0  0
   19.2414   19.5621   24.1001 C   0  0  0  0  0  0  0  0  0  0  0  0
   19.2358   20.5622   23.6475 H   0  0  0  0  0  0  0  0  0  0  0  0
   20.2615   19.3934   24.4667 H   0  0  0  0  0  0  0  0  0  0  0  0
   18.2878   19.5693   25.3181 C   0  0  2  0  0  0  0  0  0  0  0  0
   18.6356   20.3526   25.9987 H   0  0  0  0  0  0  0  0  0  0  0  0
   18.3215   18.2363   26.0856 C   0  0  0  0  0  0  0  0  0  0  0  0
   19.3502   17.9691   26.3578 H   0  0  0  0  0  0  0  0  0  0  0  0
   17.7411   18.3128   27.0132 H   0  0  0  0  0  0  0  0  0  0  0  0
   17.8988   17.4166   25.4924 H   0  0  0  0  0  0  0  0  0  0  0  0
   16.8791   19.9399   24.9435 N   0  3  0  0  0  0  0  0  0  0  0  0
   16.8430   20.8471   24.4698 H   0  0  0  0  0  0  0  0  0  0  0  0
   16.2765   20.0014   25.7692 H   0  0  0  0  0  0  0  0  0  0  0  0
   16.4675   19.2466   24.3140 H   0  0  0  0  0  0  0  0  0  0  0  0
  1  2  1  0  0  0  0
  1  3  1  0  0  0  0
  1  4  1  0  0  0  0
  1  5  1  0  0  0  0
  5  6  1  0  0  0  0
  5  7  1  0  0  0  0
  5  8  1  0  0  0  0
  8  9  1  0  0  0  0
  8 10  1  0  0  0  0
  8 11  1  0  0  0  0
 11 12  1  0  0  0  0
 11 13  1  0  0  0  0
 11 14  1  0  0  0  0
 14 15  1  0  0  0  0
 14 16  1  0  0  0  0
 14 17  1  0  0  0  0
 17 18  1  0  0  0  0
 17 19  1  0  0  0  0
 17 20  1  0  0  0  0
 20 21  1  0  0  0  0
 20 22  1  0  0  0  0
 22 23  1  0  0  0  0
 22 24  1  0  0  0  0
 22 25  1  0  0  0  0
 20 26  1  0  0  0  0
 26 27  1  0  0  0  0
 26 28  1  0  0  0  0
 26 29  1  0  0  0  0
M  END
> <VConfSearch Rank>
318

> <Conf_Id>
163

> <Delta U+W>
3.309

> <U+W>
-24.517

> <U>
27.916

> <W>
-52.433

> <W(PB)>
-54.866

> <W(SA)>
2.433

> <Valence>
6.693

> <Coulomb>
20.015

> <VdW>
1.208

> <VdW6>
-10.294

> <VdW12>
11.503

> <Bond>
0.312

> <Angle>
1.939

> <Pdih>
4.441

> <Idih>
0.000

> <Tether>
0.000

$$$$
VeraChem MOL file


 29 28  0  0  0  0  0  0  0  0999 V2000     
   18.7031   22.0727   25.9988 C   0  0  0  0  0  0  0  0  0  0  0  0
   19.6576   22.4670   26.3709 H   0  0  0  0  0  0  0  0  0  0  0  0
   18.4992   22.5289   25.0223 H   0  0  0  0  0  0  0  0  0  0  0  0
   17.9133   22.4011   26.6867 H   0  0  0  0  0  0  0  0  0  0  0  0
   18.7355   20.5300   25.9107 C   0  0  0  0  0  0  0  0  0  0  0  0
   17.7835   20.1623   25.5031 H   0  0  0  0  0  0  0  0  0  0  0  0
   18.8127   20.1207   26.9277 H   0  0  0  0  0  0  0  0  0  0  0  0
   19.9125   19.9837   25.0669 C   0  0  0  0  0  0  0  0  0  0  0  0
   20.8620   20.3505   25.4805 H   0  0  0  0  0  0  0  0  0  0  0  0
   19.9277   18.8916   25.1754 H   0  0  0  0  0  0  0  0  0  0  0  0
   19.8183   20.3541   23.5650 C   0  0  0  0  0  0  0  0  0  0  0  0
   19.8021   21.4464   23.4592 H   0  0  0  0  0  0  0  0  0  0  0  0
   18.8647   19.9958   23.1555 H   0  0  0  0  0  0  0  0  0  0  0  0
   20.9997   19.8127   22.7186 C   0  0  0  0  0  0  0  0  0  0  0  0
   20.8864   20.1671   21.6853 H   0  0  0  0  0  0  0  0  0  0  0  0
   21.9348   20.2600   23.0831 H   0  0  0  0  0  0  0  0  0  0  0  0
   21.1539   18.2681   22.7166 C   0  0  0  0  0  0  0  0  0  0  0  0
   21.4656   17.9352   23.7148 H   0  0  0  0  0  0  0  0  0  0  0  0
   21.9744   17.9932   22.0406 H   0  0  0  0  0  0  0  0  0  0  0  0
   19.8752   17.5066   22.3036 C   0  0  2  0  0  0  0  0  0  0  0  0
   19.0702   17.7893   22.9885 H   0  0  0  0  0  0  0  0  0  0  0  0
   20.0933   15.9899   22.4197 C   0  0  0  0  0  0  0  0  0  0  0  0
   19.1764   15.4451   22.1634 H   0  0  0  0  0  0  0  0  0  0  0  0
   20.8917   15.6509   21.7477 H   0  0  0  0  0  0  0  0  0  0  0  0
   20.3692   15.7135   23.4450 H   0  0  0  0  0  0  0  0  0  0  0  0
   19.4155   17.8721   20.9190 N   0  3  0  0  0  0  0  0  0  0  0  0
   19.2387   18.8773   20.8406 H   0  0  0  0  0  0  0  0  0  0  0  0
   18.5494   17.3856   20.6705 H   0  0  0  0  0  0  0  0  0  0  0  0
   20.1183   17.6268   20.2166 H   0  0  0  0  0  0  0  0  0  0  0  0
  1  2  1  0  0  0  0
  1  3  1  0  0  0  0
  1  4  1  0  0  0  0
  1  5  1  0  0  0  0
  5  6  1  0  0  0  0
  5  7  1  0  0  0  0
  5  8  1  0  0  0  0
  8  9  1  0  0  0  0
  8 10  1  0  0  0  0
  8 11  1  0  0  0  0
 11 12  1  0  0  0  0
 11 13  1  0  0  0  0
 11 14  1  0  0  0  0
 14 15  1  0  0  0  0
 14 16  1  0  0  0  0
 14 17  1  0  0  0  0
 17 18  1  0  0  0  0
 17 19  1  0  0  0  0
 17 20  1  0  0  0  0
 20 21  1  0  0  0  0
 20 22  1  0  0  0  0
 22 23  1  0  0  0  0
 22 24  1  0  0  0  0
 22 25  1  0  0  0  0
 20 26  1  0  0  0  0
 26 27  1  0  0  0  0
 26 28  1  0  0  0  0
 26 29  1  0  0  0  0
M  END
> <VConfSearch Rank>
319

> <Conf_Id>
173

> <Delta U+W>
1.363

> <U+W>
-26.462

> <U>
25.816

> <W>
-52.279

> <W(PB)>
-54.727

> <W(SA)>
2.449

> <Valence>
4.504

> <Coulomb>
20.342

> <VdW>
0.971

> <VdW6>
-10.532

> <VdW12>
11.503

> <Bond>
0.307

> <Angle>
1.715

> <Pdih>
2.481

> <Idih>
0.000

> <Tether>
0.000

$$$$
VeraChem MOL file


 29 28  0  0  0  0  0  0  0  0999 V2000     
   16.2361   18.2323   22.2717 C   0  0  0  0  0  0  0  0  0  0  0  0
   16.3590   17.1532   22.1115 H   0  0  0  0  0  0  0  0  0  0  0  0
   15.3261   18.3885   22.8657 H   0  0  0  0  0  0  0  0  0  0  0  0
   16.0837   18.7035   21.2920 H   0  0  0  0  0  0  0  0  0  0  0  0
   17.4702   18.8317   22.9784 C   0  0  0  0  0  0  0  0  0  0  0  0
   17.3298   19.9147   23.1008 H   0  0  0  0  0  0  0  0  0  0  0  0
   18.3494   18.6881   22.3367 H   0  0  0  0  0  0  0  0  0  0  0  0
   17.7121   18.1760   24.3571 C   0  0  0  0  0  0  0  0  0  0  0  0
   16.7834   18.2231   24.9425 H   0  0  0  0  0  0  0  0  0  0  0  0
   17.9318   17.1084   24.2190 H   0  0  0  0  0  0  0  0  0  0  0  0
   18.8449   18.8310   25.1891 C   0  0  0  0  0  0  0  0  0  0  0  0
   18.8916   18.3064   26.1535 H   0  0  0  0  0  0  0  0  0  0  0  0
   18.5832   19.8703   25.4309 H   0  0  0  0  0  0  0  0  0  0  0  0
   20.2494   18.7657   24.5345 C   0  0  0  0  0  0  0  0  0  0  0  0
   20.9898   18.6058   25.3294 H   0  0  0  0  0  0  0  0  0  0  0  0
   20.3088   17.8859   23.8810 H   0  0  0  0  0  0  0  0  0  0  0  0
   20.6239   20.0618   23.7631 C   0  0  0  0  0  0  0  0  0  0  0  0
   20.6052   20.9088   24.4614 H   0  0  0  0  0  0  0  0  0  0  0  0
   19.8647   20.2868   23.0058 H   0  0  0  0  0  0  0  0  0  0  0  0
   22.0084   20.0312   23.0741 C   0  0  2  0  0  0  0  0  0  0  0  0
   22.1705   21.0169   22.6271 H   0  0  0  0  0  0  0  0  0  0  0  0
   22.0654   18.9929   21.9399 C   0  0  0  0  0  0  0  0  0  0  0  0
   21.2406   19.1424   21.2322 H   0  0  0  0  0  0  0  0  0  0  0  0
   23.0042   19.0878   21.3806 H   0  0  0  0  0  0  0  0  0  0  0  0
   22.0074   17.9676   22.3237 H   0  0  0  0  0  0  0  0  0  0  0  0
   23.1337   19.8262   24.0504 N   0  3  0  0  0  0  0  0  0  0  0  0
   23.1291   20.5410   24.7838 H   0  0  0  0  0  0  0  0  0  0  0  0
   24.0450   19.8700   23.5856 H   0  0  0  0  0  0  0  0  0  0  0  0
   23.0657   18.9138   24.5081 H   0  0  0  0  0  0  0  0  0  0  0  0
  1  2  1  0  0  0  0
  1  3  1  0  0  0  0
  1  4  1  0  0  0  0
  1  5  1  0  0  0  0
  5  6  1  0  0  0  0
  5  7  1  0  0  0  0
  5  8  1  0  0  0  0
  8  9  1  0  0  0  0
  8 10  1  0  0  0  0
  8 11  1  0  0  0  0
 11 12  1  0  0  0  0
 11 13  1  0  0  0  0
 11 14  1  0  0  0  0
 14 15  1  0  0  0  0
 14 16  1  0  0  0  0
 14 17  1  0  0  0  0
 17 18  1  0  0  0  0
 17 19  1  0  0  0  0
 17 20  1  0  0  0  0
 20 21  1  0  0  0  0
 20 22  1  0  0  0  0
 22 23  1  0  0  0  0
 22 24  1  0  0  0  0
 22 25  1  0  0  0  0
 20 26  1  0  0  0  0
 26 27  1  0  0  0  0
 26 28  1  0  0  0  0
 26 29  1  0  0  0  0
M  END
> <VConfSearch Rank>
320

> <Conf_Id>
117

> <Delta U+W>
3.377

> <U+W>
-24.449

> <U>
27.947

> <W>
-52.396

> <W(PB)>
-54.842

> <W(SA)>
2.447

> <Valence>
6.731

> <Coulomb>
20.067

> <VdW>
1.149

> <VdW6>
-10.427

> <VdW12>
11.575

> <Bond>
0.324

> <Angle>
1.943

> <Pdih>
4.465

> <Idih>
0.000

> <Tether>
0.000

$$$$
VeraChem MOL file


 29 28  0  0  0  0  0  0  0  0999 V2000     
   21.7578   22.6183   26.2145 C   0  0  0  0  0  0  0  0  0  0  0  0
   21.7266   23.3505   25.3971 H   0  0  0  0  0  0  0  0  0  0  0  0
   20.8719   22.7713   26.8446 H   0  0  0  0  0  0  0  0  0  0  0  0
   22.6457   22.8309   26.8239 H   0  0  0  0  0  0  0  0  0  0  0  0
   21.8058   21.1765   25.6660 C   0  0  0  0  0  0  0  0  0  0  0  0
   21.8705   20.4693   26.5048 H   0  0  0  0  0  0  0  0  0  0  0  0
   22.7186   21.0440   25.0684 H   0  0  0  0  0  0  0  0  0  0  0  0
   20.5662   20.8510   24.8039 C   0  0  0  0  0  0  0  0  0  0  0  0
   19.6563   20.9871   25.4047 H   0  0  0  0  0  0  0  0  0  0  0  0
   20.5046   21.5619   23.9682 H   0  0  0  0  0  0  0  0  0  0  0  0
   20.6107   19.4079   24.2529 C   0  0  0  0  0  0  0  0  0  0  0  0
   20.6737   18.6983   25.0896 H   0  0  0  0  0  0  0  0  0  0  0  0
   21.5207   19.2728   23.6520 H   0  0  0  0  0  0  0  0  0  0  0  0
   19.3700   19.0824   23.3910 C   0  0  0  0  0  0  0  0  0  0  0  0
   18.4606   19.2144   23.9938 H   0  0  0  0  0  0  0  0  0  0  0  0
   19.3105   19.7994   22.5614 H   0  0  0  0  0  0  0  0  0  0  0  0
   19.4178   17.6368   22.8394 C   0  0  0  0  0  0  0  0  0  0  0  0
   19.5320   16.9398   23.6804 H   0  0  0  0  0  0  0  0  0  0  0  0
   20.3050   17.5105   22.2047 H   0  0  0  0  0  0  0  0  0  0  0  0
   18.1512   17.2533   22.0440 C   0  0  2  0  0  0  0  0  0  0  0  0
   17.2808   17.4103   22.6884 H   0  0  0  0  0  0  0  0  0  0  0  0
   18.1976   15.7688   21.6486 C   0  0  0  0  0  0  0  0  0  0  0  0
   17.2838   15.4804   21.1145 H   0  0  0  0  0  0  0  0  0  0  0  0
   19.0552   15.5580   20.9974 H   0  0  0  0  0  0  0  0  0  0  0  0
   18.2787   15.1308   22.5375 H   0  0  0  0  0  0  0  0  0  0  0  0
   17.9515   18.1164   20.8283 N   0  3  0  0  0  0  0  0  0  0  0  0
   17.8742   19.1054   21.0807 H   0  0  0  0  0  0  0  0  0  0  0  0
   17.0973   17.8611   20.3245 H   0  0  0  0  0  0  0  0  0  0  0  0
   18.7328   18.0249   20.1735 H   0  0  0  0  0  0  0  0  0  0  0  0
  1  2  1  0  0  0  0
  1  3  1  0  0  0  0
  1  4  1  0  0  0  0
  1  5  1  0  0  0  0
  5  6  1  0  0  0  0
  5  7  1  0  0  0  0
  5  8  1  0  0  0  0
  8  9  1  0  0  0  0
  8 10  1  0  0  0  0
  8 11  1  0  0  0  0
 11 12  1  0  0  0  0
 11 13  1  0  0  0  0
 11 14  1  0  0  0  0
 14 15  1  0  0  0  0
 14 16  1  0  0  0  0
 14 17  1  0  0  0  0
 17 18  1  0  0  0  0
 17 19  1  0  0  0  0
 17 20  1  0  0  0  0
 20 21  1  0  0  0  0
 20 22  1  0  0  0  0
 22 23  1  0  0  0  0
 22 24  1  0  0  0  0
 22 25  1  0  0  0  0
 20 26  1  0  0  0  0
 26 27  1  0  0  0  0
 26 28  1  0  0  0  0
 26 29  1  0  0  0  0
M  END
> <VConfSearch Rank>
321

> <Conf_Id>
164

> <Delta U+W>
0.000

> <U+W>
-27.826

> <U>
23.963

> <W>
-51.789

> <W(PB)>
-54.342

> <W(SA)>
2.554

> <Valence>
3.166

> <Coulomb>
19.734

> <VdW>
1.062

> <VdW6>
-7.938

> <VdW12>
9.001

> <Bond>
0.188

> <Angle>
0.880

> <Pdih>
2.098

> <Idih>
0.000

> <Tether>
0.000

$$$$
VeraChem MOL file


 29 28  0  0  0  0  0  0  0  0999 V2000     
   21.0171   23.7817   23.8783 C   0  0  0  0  0  0  0  0  0  0  0  0
   22.0209   23.5912   24.2801 H   0  0  0  0  0  0  0  0  0  0  0  0
   21.1024   23.9094   22.7913 H   0  0  0  0  0  0  0  0  0  0  0  0
   20.6587   24.7290   24.3019 H   0  0  0  0  0  0  0  0  0  0  0  0
   20.0520   22.6291   24.2273 C   0  0  0  0  0  0  0  0  0  0  0  0
   19.0497   22.8635   23.8421 H   0  0  0  0  0  0  0  0  0  0  0  0
   19.9610   22.5478   25.3195 H   0  0  0  0  0  0  0  0  0  0  0  0
   20.5338   21.2830   23.6424 C   0  0  0  0  0  0  0  0  0  0  0  0
   20.6255   21.3700   22.5509 H   0  0  0  0  0  0  0  0  0  0  0  0
   21.5367   21.0540   24.0285 H   0  0  0  0  0  0  0  0  0  0  0  0
   19.5698   20.1262   23.9898 C   0  0  0  0  0  0  0  0  0  0  0  0
   18.5671   20.3558   23.6031 H   0  0  0  0  0  0  0  0  0  0  0  0
   19.4781   20.0415   25.0815 H   0  0  0  0  0  0  0  0  0  0  0  0
   20.0524   18.7796   23.4048 C   0  0  0  0  0  0  0  0  0  0  0  0
   20.1488   18.8777   22.3156 H   0  0  0  0  0  0  0  0  0  0  0  0
   21.0530   18.5478   23.7956 H   0  0  0  0  0  0  0  0  0  0  0  0
   19.0823   17.6232   23.7503 C   0  0  0  0  0  0  0  0  0  0  0  0
   18.0978   17.8201   23.3055 H   0  0  0  0  0  0  0  0  0  0  0  0
   18.9342   17.6047   24.8382 H   0  0  0  0  0  0  0  0  0  0  0  0
   19.5865   16.2322   23.3024 C   0  0  2  0  0  0  0  0  0  0  0  0
   20.5847   16.0770   23.7233 H   0  0  0  0  0  0  0  0  0  0  0  0
   19.6796   16.1139   21.7705 C   0  0  0  0  0  0  0  0  0  0  0  0
   18.7127   16.3249   21.2968 H   0  0  0  0  0  0  0  0  0  0  0  0
   20.4223   16.8082   21.3611 H   0  0  0  0  0  0  0  0  0  0  0  0
   19.9872   15.1020   21.4794 H   0  0  0  0  0  0  0  0  0  0  0  0
   18.7180   15.1371   23.8562 N   0  3  0  0  0  0  0  0  0  0  0  0
   19.0707   14.2119   23.5950 H   0  0  0  0  0  0  0  0  0  0  0  0
   17.7584   15.2079   23.5069 H   0  0  0  0  0  0  0  0  0  0  0  0
   18.6765   15.1694   24.8790 H   0  0  0  0  0  0  0  0  0  0  0  0
  1  2  1  0  0  0  0
  1  3  1  0  0  0  0
  1  4  1  0  0  0  0
  1  5  1  0  0  0  0
  5  6  1  0  0  0  0
  5  7  1  0  0  0  0
  5  8  1  0  0  0  0
  8  9  1  0  0  0  0
  8 10  1  0  0  0  0
  8 11  1  0  0  0  0
 11 12  1  0  0  0  0
 11 13  1  0  0  0  0
 11 14  1  0  0  0  0
 14 15  1  0  0  0  0
 14 16  1  0  0  0  0
 14 17  1  0  0  0  0
 17 18  1  0  0  0  0
 17 19  1  0  0  0  0
 17 20  1  0  0  0  0
 20 21  1  0  0  0  0
 20 22  1  0  0  0  0
 22 23  1  0  0  0  0
 22 24  1  0  0  0  0
 22 25  1  0  0  0  0
 20 26  1  0  0  0  0
 26 27  1  0  0  0  0
 26 28  1  0  0  0  0
 26 29  1  0  0  0  0
M  END
> <VConfSearch Rank>
322

> <Conf_Id>
58

> <Delta U+W>
0.412

> <U+W>
-27.414

> <U>
24.279

> <W>
-51.694

> <W(PB)>
-54.271

> <W(SA)>
2.577

> <Valence>
3.709

> <Coulomb>
19.380

> <VdW>
1.191

> <VdW6>
-8.093

> <VdW12>
9.284

> <Bond>
0.200

> <Angle>
1.161

> <Pdih>
2.348

> <Idih>
0.000

> <Tether>
0.000

$$$$
VeraChem MOL file


 29 28  0  0  0  0  0  0  0  0999 V2000     
   19.4345   14.5318   22.4869 C   0  0  0  0  0  0  0  0  0  0  0  0
   19.5031   14.7104   21.4059 H   0  0  0  0  0  0  0  0  0  0  0  0
   20.4460   14.3357   22.8660 H   0  0  0  0  0  0  0  0  0  0  0  0
   18.8349   13.6254   22.6415 H   0  0  0  0  0  0  0  0  0  0  0  0
   18.7958   15.7373   23.2086 C   0  0  0  0  0  0  0  0  0  0  0  0
   18.7097   15.5159   24.2817 H   0  0  0  0  0  0  0  0  0  0  0  0
   17.7741   15.8877   22.8328 H   0  0  0  0  0  0  0  0  0  0  0  0
   19.6210   17.0274   23.0069 C   0  0  0  0  0  0  0  0  0  0  0  0
   20.6419   16.8715   23.3821 H   0  0  0  0  0  0  0  0  0  0  0  0
   19.7064   17.2431   21.9329 H   0  0  0  0  0  0  0  0  0  0  0  0
   18.9842   18.2368   23.7280 C   0  0  0  0  0  0  0  0  0  0  0  0
   18.8987   18.0196   24.8018 H   0  0  0  0  0  0  0  0  0  0  0  0
   17.9632   18.3915   23.3524 H   0  0  0  0  0  0  0  0  0  0  0  0
   19.8098   19.5275   23.5259 C   0  0  0  0  0  0  0  0  0  0  0  0
   20.8287   19.3657   23.9017 H   0  0  0  0  0  0  0  0  0  0  0  0
   19.8937   19.7331   22.4507 H   0  0  0  0  0  0  0  0  0  0  0  0
   19.1640   20.7380   24.2490 C   0  0  0  0  0  0  0  0  0  0  0  0
   19.0412   20.4985   25.3134 H   0  0  0  0  0  0  0  0  0  0  0  0
   18.1508   20.8968   23.8565 H   0  0  0  0  0  0  0  0  0  0  0  0
   19.9543   22.0630   24.1346 C   0  0  2  0  0  0  0  0  0  0  0  0
   19.4086   22.8176   24.7095 H   0  0  0  0  0  0  0  0  0  0  0  0
   20.0435   22.5602   22.6813 C   0  0  0  0  0  0  0  0  0  0  0  0
   20.4865   23.5631   22.6459 H   0  0  0  0  0  0  0  0  0  0  0  0
   20.6626   21.8991   22.0634 H   0  0  0  0  0  0  0  0  0  0  0  0
   19.0463   22.6211   22.2281 H   0  0  0  0  0  0  0  0  0  0  0  0
   21.3201   21.9721   24.7575 N   0  3  0  0  0  0  0  0  0  0  0  0
   21.2667   21.6844   25.7389 H   0  0  0  0  0  0  0  0  0  0  0  0
   21.8052   22.8735   24.7285 H   0  0  0  0  0  0  0  0  0  0  0  0
   21.9067   21.2918   24.2679 H   0  0  0  0  0  0  0  0  0  0  0  0
  1  2  1  0  0  0  0
  1  3  1  0  0  0  0
  1  4  1  0  0  0  0
  1  5  1  0  0  0  0
  5  6  1  0  0  0  0
  5  7  1  0  0  0  0
  5  8  1  0  0  0  0
  8  9  1  0  0  0  0
  8 10  1  0  0  0  0
  8 11  1  0  0  0  0
 11 12  1  0  0  0  0
 11 13  1  0  0  0  0
 11 14  1  0  0  0  0
 14 15  1  0  0  0  0
 14 16  1  0  0  0  0
 14 17  1  0  0  0  0
 17 18  1  0  0  0  0
 17 19  1  0  0  0  0
 17 20  1  0  0  0  0
 20 21  1  0  0  0  0
 20 22  1  0  0  0  0
 22 23  1  0  0  0  0
 22 24  1  0  0  0  0
 22 25  1  0  0  0  0
 20 26  1  0  0  0  0
 26 27  1  0  0  0  0
 26 28  1  0  0  0  0
 26 29  1  0  0  0  0
M  END
> <VConfSearch Rank>
323

> <Conf_Id>
137

> <Delta U+W>
0.280

> <U+W>
-27.546

> <U>
24.513

> <W>
-52.059

> <W(PB)>
-54.556

> <W(SA)>
2.497

> <Valence>
3.677

> <Coulomb>
19.662

> <VdW>
1.174

> <VdW6>
-8.569

> <VdW12>
9.743

> <Bond>
0.224

> <Angle>
1.211

> <Pdih>
2.243

> <Idih>
0.000

> <Tether>
0.000

$$$$
VeraChem MOL file


 29 28  0  0  0  0  0  0  0  0999 V2000     
   17.4395   16.5779   26.3480 C   0  0  0  0  0  0  0  0  0  0  0  0
   16.6080   16.8603   25.6892 H   0  0  0  0  0  0  0  0  0  0  0  0
   17.8668   15.6376   25.9757 H   0  0  0  0  0  0  0  0  0  0  0  0
   17.0279   16.3884   27.3479 H   0  0  0  0  0  0  0  0  0  0  0  0
   18.5081   17.6902   26.4005 C   0  0  0  0  0  0  0  0  0  0  0  0
   19.3082   17.3939   27.0933 H   0  0  0  0  0  0  0  0  0  0  0  0
   18.0600   18.6076   26.8072 H   0  0  0  0  0  0  0  0  0  0  0  0
   19.1050   17.9762   25.0048 C   0  0  0  0  0  0  0  0  0  0  0  0
   19.5538   17.0570   24.6038 H   0  0  0  0  0  0  0  0  0  0  0  0
   18.2941   18.2605   24.3220 H   0  0  0  0  0  0  0  0  0  0  0  0
   20.1737   19.0947   25.0563 C   0  0  0  0  0  0  0  0  0  0  0  0
   20.9297   18.8290   25.8082 H   0  0  0  0  0  0  0  0  0  0  0  0
   19.7144   20.0319   25.3997 H   0  0  0  0  0  0  0  0  0  0  0  0
   20.8929   19.3332   23.7055 C   0  0  0  0  0  0  0  0  0  0  0  0
   21.7227   20.0283   23.8859 H   0  0  0  0  0  0  0  0  0  0  0  0
   21.3453   18.3938   23.3589 H   0  0  0  0  0  0  0  0  0  0  0  0
   19.9656   19.9063   22.6021 C   0  0  0  0  0  0  0  0  0  0  0  0
   19.5217   20.8505   22.9443 H   0  0  0  0  0  0  0  0  0  0  0  0
   19.1331   19.2116   22.4383 H   0  0  0  0  0  0  0  0  0  0  0  0
   20.6744   20.1267   21.2458 C   0  0  2  0  0  0  0  0  0  0  0  0
   21.1599   19.1898   20.9558 H   0  0  0  0  0  0  0  0  0  0  0  0
   21.7459   21.2295   21.3199 C   0  0  0  0  0  0  0  0  0  0  0  0
   21.3179   22.1756   21.6740 H   0  0  0  0  0  0  0  0  0  0  0  0
   22.5638   20.9484   21.9930 H   0  0  0  0  0  0  0  0  0  0  0  0
   22.1876   21.4055   20.3313 H   0  0  0  0  0  0  0  0  0  0  0  0
   19.6817   20.4424   20.1615 N   0  3  0  0  0  0  0  0  0  0  0  0
   18.9831   19.7002   20.0617 H   0  0  0  0  0  0  0  0  0  0  0  0
   20.1422   20.5510   19.2533 H   0  0  0  0  0  0  0  0  0  0  0  0
   19.1802   21.3133   20.3558 H   0  0  0  0  0  0  0  0  0  0  0  0
  1  2  1  0  0  0  0
  1  3  1  0  0  0  0
  1  4  1  0  0  0  0
  1  5  1  0  0  0  0
  5  6  1  0  0  0  0
  5  7  1  0  0  0  0
  5  8  1  0  0  0  0
  8  9  1  0  0  0  0
  8 10  1  0  0  0  0
  8 11  1  0  0  0  0
 11 12  1  0  0  0  0
 11 13  1  0  0  0  0
 11 14  1  0  0  0  0
 14 15  1  0  0  0  0
 14 16  1  0  0  0  0
 14 17  1  0  0  0  0
 17 18  1  0  0  0  0
 17 19  1  0  0  0  0
 17 20  1  0  0  0  0
 20 21  1  0  0  0  0
 20 22  1  0  0  0  0
 22 23  1  0  0  0  0
 22 24  1  0  0  0  0
 22 25  1  0  0  0  0
 20 26  1  0  0  0  0
 26 27  1  0  0  0  0
 26 28  1  0  0  0  0
 26 29  1  0  0  0  0
M  END
> <VConfSearch Rank>
324

> <Conf_Id>
40

> <Delta U+W>
1.128

> <U+W>
-26.698

> <U>
25.442

> <W>
-52.140

> <W(PB)>
-54.658

> <W(SA)>
2.519

> <Valence>
4.343

> <Coulomb>
19.740

> <VdW>
1.360

> <VdW6>
-8.739

> <VdW12>
10.099

> <Bond>
0.251

> <Angle>
1.483

> <Pdih>
2.608

> <Idih>
0.000

> <Tether>
0.000

$$$$
VeraChem MOL file


 29 28  0  0  0  0  0  0  0  0999 V2000     
   20.7669   22.6129   25.9242 C   0  0  0  0  0  0  0  0  0  0  0  0
   19.8362   22.2743   26.3958 H   0  0  0  0  0  0  0  0  0  0  0  0
   21.6076   22.1127   26.4223 H   0  0  0  0  0  0  0  0  0  0  0  0
   20.8581   23.6904   26.1129 H   0  0  0  0  0  0  0  0  0  0  0  0
   20.7719   22.3284   24.4050 C   0  0  0  0  0  0  0  0  0  0  0  0
   21.6604   22.7993   23.9617 H   0  0  0  0  0  0  0  0  0  0  0  0
   19.9026   22.8095   23.9352 H   0  0  0  0  0  0  0  0  0  0  0  0
   20.7866   20.8198   24.0584 C   0  0  0  0  0  0  0  0  0  0  0  0
   20.9301   20.7242   22.9748 H   0  0  0  0  0  0  0  0  0  0  0  0
   21.6572   20.3440   24.5303 H   0  0  0  0  0  0  0  0  0  0  0  0
   19.4922   20.0779   24.4792 C   0  0  0  0  0  0  0  0  0  0  0  0
   18.6218   20.5498   24.0030 H   0  0  0  0  0  0  0  0  0  0  0  0
   19.3477   20.1856   25.5618 H   0  0  0  0  0  0  0  0  0  0  0  0
   19.5076   18.5646   24.1497 C   0  0  0  0  0  0  0  0  0  0  0  0
   20.3891   18.0973   24.6102 H   0  0  0  0  0  0  0  0  0  0  0  0
   18.6310   18.1066   24.6263 H   0  0  0  0  0  0  0  0  0  0  0  0
   19.4867   18.2588   22.6296 C   0  0  0  0  0  0  0  0  0  0  0  0
   20.3772   18.6927   22.1589 H   0  0  0  0  0  0  0  0  0  0  0  0
   18.6174   18.7427   22.1650 H   0  0  0  0  0  0  0  0  0  0  0  0
   19.4645   16.7459   22.3206 C   0  0  2  0  0  0  0  0  0  0  0  0
   20.3177   16.2805   22.8237 H   0  0  0  0  0  0  0  0  0  0  0  0
   19.6069   16.5073   20.8088 C   0  0  0  0  0  0  0  0  0  0  0  0
   19.6269   15.4335   20.5853 H   0  0  0  0  0  0  0  0  0  0  0  0
   18.7723   16.9562   20.2557 H   0  0  0  0  0  0  0  0  0  0  0  0
   20.5405   16.9428   20.4313 H   0  0  0  0  0  0  0  0  0  0  0  0
   18.2286   16.0671   22.8449 N   0  3  0  0  0  0  0  0  0  0  0  0
   17.3818   16.4542   22.4200 H   0  0  0  0  0  0  0  0  0  0  0  0
   18.1432   16.1768   23.8590 H   0  0  0  0  0  0  0  0  0  0  0  0
   18.2405   15.0627   22.6456 H   0  0  0  0  0  0  0  0  0  0  0  0
  1  2  1  0  0  0  0
  1  3  1  0  0  0  0
  1  4  1  0  0  0  0
  1  5  1  0  0  0  0
  5  6  1  0  0  0  0
  5  7  1  0  0  0  0
  5  8  1  0  0  0  0
  8  9  1  0  0  0  0
  8 10  1  0  0  0  0
  8 11  1  0  0  0  0
 11 12  1  0  0  0  0
 11 13  1  0  0  0  0
 11 14  1  0  0  0  0
 14 15  1  0  0  0  0
 14 16  1  0  0  0  0
 14 17  1  0  0  0  0
 17 18  1  0  0  0  0
 17 19  1  0  0  0  0
 17 20  1  0  0  0  0
 20 21  1  0  0  0  0
 20 22  1  0  0  0  0
 22 23  1  0  0  0  0
 22 24  1  0  0  0  0
 22 25  1  0  0  0  0
 20 26  1  0  0  0  0
 26 27  1  0  0  0  0
 26 28  1  0  0  0  0
 26 29  1  0  0  0  0
M  END
> <VConfSearch Rank>
325

> <Conf_Id>
134

> <Delta U+W>
1.228

> <U+W>
-26.598

> <U>
25.451

> <W>
-52.048

> <W(PB)>
-54.539

> <W(SA)>
2.490

> <Valence>
4.319

> <Coulomb>
19.732

> <VdW>
1.400

> <VdW6>
-9.173

> <VdW12>
10.573

> <Bond>
0.281

> <Angle>
1.459

> <Pdih>
2.580

> <Idih>
0.000

> <Tether>
0.000

$$$$
VeraChem MOL file


 29 28  0  0  0  0  0  0  0  0999 V2000     
   16.1955   18.7454   21.1312 C   0  0  0  0  0  0  0  0  0  0  0  0
   16.7325   17.8617   20.7653 H   0  0  0  0  0  0  0  0  0  0  0  0
   15.6116   18.4532   22.0136 H   0  0  0  0  0  0  0  0  0  0  0  0
   15.4897   19.0494   20.3474 H   0  0  0  0  0  0  0  0  0  0  0  0
   17.1643   19.9029   21.4641 C   0  0  0  0  0  0  0  0  0  0  0  0
   16.5740   20.7992   21.7003 H   0  0  0  0  0  0  0  0  0  0  0  0
   17.7611   20.1533   20.5760 H   0  0  0  0  0  0  0  0  0  0  0  0
   18.1026   19.5996   22.6573 C   0  0  0  0  0  0  0  0  0  0  0  0
   18.6490   20.5198   22.9007 H   0  0  0  0  0  0  0  0  0  0  0  0
   17.5012   19.3520   23.5428 H   0  0  0  0  0  0  0  0  0  0  0  0
   19.1115   18.4578   22.3736 C   0  0  0  0  0  0  0  0  0  0  0  0
   19.7138   18.7063   21.4890 H   0  0  0  0  0  0  0  0  0  0  0  0
   18.5639   17.5393   22.1264 H   0  0  0  0  0  0  0  0  0  0  0  0
   20.0465   18.1496   23.5691 C   0  0  0  0  0  0  0  0  0  0  0  0
   19.4358   17.8875   24.4431 H   0  0  0  0  0  0  0  0  0  0  0  0
   20.6397   17.2574   23.3252 H   0  0  0  0  0  0  0  0  0  0  0  0
   21.0096   19.3138   23.9178 C   0  0  0  0  0  0  0  0  0  0  0  0
   20.4428   20.1702   24.3042 H   0  0  0  0  0  0  0  0  0  0  0  0
   21.4992   19.6519   22.9950 H   0  0  0  0  0  0  0  0  0  0  0  0
   22.1031   18.9259   24.9387 C   0  0  2  0  0  0  0  0  0  0  0  0
   22.6359   18.0504   24.5549 H   0  0  0  0  0  0  0  0  0  0  0  0
   21.5107   18.5714   26.3144 C   0  0  0  0  0  0  0  0  0  0  0  0
   20.9157   19.4011   26.7159 H   0  0  0  0  0  0  0  0  0  0  0  0
   20.8686   17.6849   26.2552 H   0  0  0  0  0  0  0  0  0  0  0  0
   22.3090   18.3465   27.0324 H   0  0  0  0  0  0  0  0  0  0  0  0
   23.1271   20.0177   25.0785 N   0  3  0  0  0  0  0  0  0  0  0  0
   23.5660   20.2403   24.1803 H   0  0  0  0  0  0  0  0  0  0  0  0
   23.8749   19.7485   25.7242 H   0  0  0  0  0  0  0  0  0  0  0  0
   22.7083   20.8796   25.4384 H   0  0  0  0  0  0  0  0  0  0  0  0
  1  2  1  0  0  0  0
  1  3  1  0  0  0  0
  1  4  1  0  0  0  0
  1  5  1  0  0  0  0
  5  6  1  0  0  0  0
  5  7  1  0  0  0  0
  5  8  1  0  0  0  0
  8  9  1  0  0  0  0
  8 10  1  0  0  0  0
  8 11  1  0  0  0  0
 11 12  1  0  0  0  0
 11 13  1  0  0  0  0
 11 14  1  0  0  0  0
 14 15  1  0  0  0  0
 14 16  1  0  0  0  0
 14 17  1  0  0  0  0
 17 18  1  0  0  0  0
 17 19  1  0  0  0  0
 17 20  1  0  0  0  0
 20 21  1  0  0  0  0
 20 22  1  0  0  0  0
 22 23  1  0  0  0  0
 22 24  1  0  0  0  0
 22 25  1  0  0  0  0
 20 26  1  0  0  0  0
 26 27  1  0  0  0  0
 26 28  1  0  0  0  0
 26 29  1  0  0  0  0
M  END
> <VConfSearch Rank>
326

> <Conf_Id>
73

> <Delta U+W>
1.580

> <U+W>
-26.246

> <U>
25.821

> <W>
-52.067

> <W(PB)>
-54.581

> <W(SA)>
2.514

> <Valence>
4.779

> <Coulomb>
19.614

> <VdW>
1.428

> <VdW6>
-9.390

> <VdW12>
10.818

> <Bond>
0.283

> <Angle>
1.640

> <Pdih>
2.856

> <Idih>
0.000

> <Tether>
0.000

$$$$
VeraChem MOL file


 29 28  0  0  0  0  0  0  0  0999 V2000     
   19.8278   20.2771   19.2162 C   0  0  0  0  0  0  0  0  0  0  0  0
   19.9123   21.2826   19.6487 H   0  0  0  0  0  0  0  0  0  0  0  0
   20.3118   20.2923   18.2310 H   0  0  0  0  0  0  0  0  0  0  0  0
   18.7627   20.0581   19.0652 H   0  0  0  0  0  0  0  0  0  0  0  0
   20.4866   19.2227   20.1306 C   0  0  0  0  0  0  0  0  0  0  0  0
   21.5568   19.4491   20.2363 H   0  0  0  0  0  0  0  0  0  0  0  0
   20.4169   18.2341   19.6554 H   0  0  0  0  0  0  0  0  0  0  0  0
   19.8228   19.1799   21.5248 C   0  0  0  0  0  0  0  0  0  0  0  0
   19.8908   20.1752   21.9827 H   0  0  0  0  0  0  0  0  0  0  0  0
   18.7540   18.9507   21.4140 H   0  0  0  0  0  0  0  0  0  0  0  0
   20.4862   18.1260   22.4439 C   0  0  0  0  0  0  0  0  0  0  0  0
   21.5416   18.3857   22.6049 H   0  0  0  0  0  0  0  0  0  0  0  0
   20.4829   17.1542   21.9311 H   0  0  0  0  0  0  0  0  0  0  0  0
   19.7785   17.9588   23.8112 C   0  0  0  0  0  0  0  0  0  0  0  0
   18.7239   17.6962   23.6492 H   0  0  0  0  0  0  0  0  0  0  0  0
   20.2345   17.1030   24.3261 H   0  0  0  0  0  0  0  0  0  0  0  0
   19.8711   19.2158   24.7142 C   0  0  0  0  0  0  0  0  0  0  0  0
   19.3917   20.0625   24.2078 H   0  0  0  0  0  0  0  0  0  0  0  0
   20.9238   19.4914   24.8610 H   0  0  0  0  0  0  0  0  0  0  0  0
   19.1895   19.0225   26.0864 C   0  0  2  0  0  0  0  0  0  0  0  0
   18.1539   18.7133   25.9145 H   0  0  0  0  0  0  0  0  0  0  0  0
   19.1745   20.3468   26.8667 C   0  0  0  0  0  0  0  0  0  0  0  0
   18.6455   21.1256   26.3033 H   0  0  0  0  0  0  0  0  0  0  0  0
   18.6606   20.2251   27.8282 H   0  0  0  0  0  0  0  0  0  0  0  0
   20.1934   20.7016   27.0660 H   0  0  0  0  0  0  0  0  0  0  0  0
   19.8357   17.9382   26.9049 N   0  3  0  0  0  0  0  0  0  0  0  0
   19.3595   17.8133   27.8028 H   0  0  0  0  0  0  0  0  0  0  0  0
   20.8155   18.1559   27.1050 H   0  0  0  0  0  0  0  0  0  0  0  0
   19.8125   17.0381   26.4183 H   0  0  0  0  0  0  0  0  0  0  0  0
  1  2  1  0  0  0  0
  1  3  1  0  0  0  0
  1  4  1  0  0  0  0
  1  5  1  0  0  0  0
  5  6  1  0  0  0  0
  5  7  1  0  0  0  0
  5  8  1  0  0  0  0
  8  9  1  0  0  0  0
  8 10  1  0  0  0  0
  8 11  1  0  0  0  0
 11 12  1  0  0  0  0
 11 13  1  0  0  0  0
 11 14  1  0  0  0  0
 14 15  1  0  0  0  0
 14 16  1  0  0  0  0
 14 17  1  0  0  0  0
 17 18  1  0  0  0  0
 17 19  1  0  0  0  0
 17 20  1  0  0  0  0
 20 21  1  0  0  0  0
 20 22  1  0  0  0  0
 22 23  1  0  0  0  0
 22 24  1  0  0  0  0
 22 25  1  0  0  0  0
 20 26  1  0  0  0  0
 26 27  1  0  0  0  0
 26 28  1  0  0  0  0
 26 29  1  0  0  0  0
M  END
> <VConfSearch Rank>
327

> <Conf_Id>
111

> <Delta U+W>
0.580

> <U+W>
-27.246

> <U>
24.710

> <W>
-51.957

> <W(PB)>
-54.511

> <W(SA)>
2.555

> <Valence>
3.735

> <Coulomb>
19.760

> <VdW>
1.216

> <VdW6>
-8.624

> <VdW12>
9.840

> <Bond>
0.236

> <Angle>
1.168

> <Pdih>
2.330

> <Idih>
0.000

> <Tether>
0.000

$$$$
VeraChem MOL file


 29 28  0  0  0  0  0  0  0  0999 V2000     
   21.2117   18.9886   19.4078 C   0  0  0  0  0  0  0  0  0  0  0  0
   20.1980   19.0350   18.9890 H   0  0  0  0  0  0  0  0  0  0  0  0
   21.5228   20.0097   19.6645 H   0  0  0  0  0  0  0  0  0  0  0  0
   21.8841   18.6187   18.6228 H   0  0  0  0  0  0  0  0  0  0  0  0
   21.2591   18.0668   20.6446 C   0  0  0  0  0  0  0  0  0  0  0  0
   22.2903   18.0141   21.0211 H   0  0  0  0  0  0  0  0  0  0  0  0
   20.9767   17.0465   20.3495 H   0  0  0  0  0  0  0  0  0  0  0  0
   20.3200   18.5649   21.7654 C   0  0  0  0  0  0  0  0  0  0  0  0
   20.6068   19.5872   22.0446 H   0  0  0  0  0  0  0  0  0  0  0  0
   19.2904   18.6140   21.3851 H   0  0  0  0  0  0  0  0  0  0  0  0
   20.3697   17.6436   23.0078 C   0  0  0  0  0  0  0  0  0  0  0  0
   21.3876   17.6335   23.4213 H   0  0  0  0  0  0  0  0  0  0  0  0
   20.1530   16.6120   22.6975 H   0  0  0  0  0  0  0  0  0  0  0  0
   19.3635   18.0446   24.1142 C   0  0  0  0  0  0  0  0  0  0  0  0
   18.3471   18.0208   23.6995 H   0  0  0  0  0  0  0  0  0  0  0  0
   19.3946   17.2836   24.9063 H   0  0  0  0  0  0  0  0  0  0  0  0
   19.6550   19.4341   24.7374 C   0  0  0  0  0  0  0  0  0  0  0  0
   19.4926   20.2232   23.9923 H   0  0  0  0  0  0  0  0  0  0  0  0
   20.7166   19.4779   25.0145 H   0  0  0  0  0  0  0  0  0  0  0  0
   18.8078   19.7380   25.9939 C   0  0  2  0  0  0  0  0  0  0  0  0
   18.9540   18.9247   26.7113 H   0  0  0  0  0  0  0  0  0  0  0  0
   17.3065   19.8375   25.6693 C   0  0  0  0  0  0  0  0  0  0  0  0
   17.1153   20.6029   24.9069 H   0  0  0  0  0  0  0  0  0  0  0  0
   16.9138   18.8818   25.3033 H   0  0  0  0  0  0  0  0  0  0  0  0
   16.7339   20.1010   26.5671 H   0  0  0  0  0  0  0  0  0  0  0  0
   19.2776   20.9935   26.6746 N   0  3  0  0  0  0  0  0  0  0  0  0
   20.2652   20.9323   26.9388 H   0  0  0  0  0  0  0  0  0  0  0  0
   18.7446   21.1770   27.5296 H   0  0  0  0  0  0  0  0  0  0  0  0
   19.1715   21.8105   26.0672 H   0  0  0  0  0  0  0  0  0  0  0  0
  1  2  1  0  0  0  0
  1  3  1  0  0  0  0
  1  4  1  0  0  0  0
  1  5  1  0  0  0  0
  5  6  1  0  0  0  0
  5  7  1  0  0  0  0
  5  8  1  0  0  0  0
  8  9  1  0  0  0  0
  8 10  1  0  0  0  0
  8 11  1  0  0  0  0
 11 12  1  0  0  0  0
 11 13  1  0  0  0  0
 11 14  1  0  0  0  0
 14 15  1  0  0  0  0
 14 16  1  0  0  0  0
 14 17  1  0  0  0  0
 17 18  1  0  0  0  0
 17 19  1  0  0  0  0
 17 20  1  0  0  0  0
 20 21  1  0  0  0  0
 20 22  1  0  0  0  0
 22 23  1  0  0  0  0
 22 24  1  0  0  0  0
 22 25  1  0  0  0  0
 20 26  1  0  0  0  0
 26 27  1  0  0  0  0
 26 28  1  0  0  0  0
 26 29  1  0  0  0  0
M  END
> <VConfSearch Rank>
328

> <Conf_Id>
39

> <Delta U+W>
0.965

> <U+W>
-26.861

> <U>
25.129

> <W>
-51.990

> <W(PB)>
-54.526

> <W(SA)>
2.536

> <Valence>
4.206

> <Coulomb>
19.678

> <VdW>
1.245

> <VdW6>
-8.834

> <VdW12>
10.079

> <Bond>
0.240

> <Angle>
1.353

> <Pdih>
2.613

> <Idih>
0.000

> <Tether>
0.000

$$$$
VeraChem MOL file


 29 28  0  0  0  0  0  0  0  0999 V2000     
   17.4297   15.8468   24.9905 C   0  0  0  0  0  0  0  0  0  0  0  0
   18.2793   15.4980   25.5917 H   0  0  0  0  0  0  0  0  0  0  0  0
   16.9820   16.7113   25.4959 H   0  0  0  0  0  0  0  0  0  0  0  0
   16.6774   15.0476   24.9773 H   0  0  0  0  0  0  0  0  0  0  0  0
   17.8729   16.1951   23.5513 C   0  0  0  0  0  0  0  0  0  0  0  0
   17.0136   16.5745   22.9808 H   0  0  0  0  0  0  0  0  0  0  0  0
   18.1922   15.2718   23.0481 H   0  0  0  0  0  0  0  0  0  0  0  0
   19.0335   17.2177   23.4923 C   0  0  0  0  0  0  0  0  0  0  0  0
   19.8899   16.8334   24.0632 H   0  0  0  0  0  0  0  0  0  0  0  0
   19.3648   17.2929   22.4488 H   0  0  0  0  0  0  0  0  0  0  0  0
   18.6438   18.6236   24.0155 C   0  0  0  0  0  0  0  0  0  0  0  0
   18.3052   18.5440   25.0565 H   0  0  0  0  0  0  0  0  0  0  0  0
   17.7903   19.0098   23.4416 H   0  0  0  0  0  0  0  0  0  0  0  0
   19.8063   19.6458   23.9691 C   0  0  0  0  0  0  0  0  0  0  0  0
   19.4774   20.5582   24.4833 H   0  0  0  0  0  0  0  0  0  0  0  0
   20.6530   19.2521   24.5469 H   0  0  0  0  0  0  0  0  0  0  0  0
   20.2610   20.0002   22.5267 C   0  0  0  0  0  0  0  0  0  0  0  0
   19.3838   20.2830   21.9302 H   0  0  0  0  0  0  0  0  0  0  0  0
   20.6841   19.1114   22.0427 H   0  0  0  0  0  0  0  0  0  0  0  0
   21.3027   21.1403   22.4368 C   0  0  2  0  0  0  0  0  0  0  0  0
   21.5274   21.2924   21.3765 H   0  0  0  0  0  0  0  0  0  0  0  0
   22.6194   20.7763   23.1446 C   0  0  0  0  0  0  0  0  0  0  0  0
   22.4877   20.6986   24.2304 H   0  0  0  0  0  0  0  0  0  0  0  0
   23.0086   19.8192   22.7757 H   0  0  0  0  0  0  0  0  0  0  0  0
   23.3819   21.5413   22.9534 H   0  0  0  0  0  0  0  0  0  0  0  0
   20.7652   22.4518   22.9399 N   0  3  0  0  0  0  0  0  0  0  0  0
   19.9113   22.7226   22.4436 H   0  0  0  0  0  0  0  0  0  0  0  0
   21.4450   23.2073   22.8145 H   0  0  0  0  0  0  0  0  0  0  0  0
   20.5405   22.4033   23.9367 H   0  0  0  0  0  0  0  0  0  0  0  0
  1  2  1  0  0  0  0
  1  3  1  0  0  0  0
  1  4  1  0  0  0  0
  1  5  1  0  0  0  0
  5  6  1  0  0  0  0
  5  7  1  0  0  0  0
  5  8  1  0  0  0  0
  8  9  1  0  0  0  0
  8 10  1  0  0  0  0
  8 11  1  0  0  0  0
 11 12  1  0  0  0  0
 11 13  1  0  0  0  0
 11 14  1  0  0  0  0
 14 15  1  0  0  0  0
 14 16  1  0  0  0  0
 14 17  1  0  0  0  0
 17 18  1  0  0  0  0
 17 19  1  0  0  0  0
 17 20  1  0  0  0  0
 20 21  1  0  0  0  0
 20 22  1  0  0  0  0
 22 23  1  0  0  0  0
 22 24  1  0  0  0  0
 22 25  1  0  0  0  0
 20 26  1  0  0  0  0
 26 27  1  0  0  0  0
 26 28  1  0  0  0  0
 26 29  1  0  0  0  0
M  END
> <VConfSearch Rank>
329

> <Conf_Id>
155

> <Delta U+W>
1.624

> <U+W>
-26.202

> <U>
25.894

> <W>
-52.096

> <W(PB)>
-54.602

> <W(SA)>
2.506

> <Valence>
4.779

> <Coulomb>
19.659

> <VdW>
1.456

> <VdW6>
-9.843

> <VdW12>
11.299

> <Bond>
0.315

> <Angle>
1.725

> <Pdih>
2.740

> <Idih>
0.000

> <Tether>
0.000

$$$$
VeraChem MOL file


 29 28  0  0  0  0  0  0  0  0999 V2000     
   20.9542   16.3741   20.7644 C   0  0  0  0  0  0  0  0  0  0  0  0
   21.8864   16.8383   21.1095 H   0  0  0  0  0  0  0  0  0  0  0  0
   20.5864   15.7097   21.5571 H   0  0  0  0  0  0  0  0  0  0  0  0
   21.1973   15.7539   19.8920 H   0  0  0  0  0  0  0  0  0  0  0  0
   19.8949   17.4368   20.3944 C   0  0  0  0  0  0  0  0  0  0  0  0
   19.0271   16.9321   19.9473 H   0  0  0  0  0  0  0  0  0  0  0  0
   20.2960   18.1039   19.6187 H   0  0  0  0  0  0  0  0  0  0  0  0
   19.4150   18.2715   21.6061 C   0  0  0  0  0  0  0  0  0  0  0  0
   18.5979   18.9277   21.2764 H   0  0  0  0  0  0  0  0  0  0  0  0
   18.9879   17.5956   22.3583 H   0  0  0  0  0  0  0  0  0  0  0  0
   20.5362   19.1350   22.2377 C   0  0  0  0  0  0  0  0  0  0  0  0
   21.0392   19.7021   21.4424 H   0  0  0  0  0  0  0  0  0  0  0  0
   21.3011   18.4889   22.6885 H   0  0  0  0  0  0  0  0  0  0  0  0
   20.0233   20.1360   23.3024 C   0  0  0  0  0  0  0  0  0  0  0  0
   20.8617   20.7859   23.5834 H   0  0  0  0  0  0  0  0  0  0  0  0
   19.2608   20.7892   22.8562 H   0  0  0  0  0  0  0  0  0  0  0  0
   19.4488   19.4502   24.5694 C   0  0  0  0  0  0  0  0  0  0  0  0
   20.2147   18.8066   25.0221 H   0  0  0  0  0  0  0  0  0  0  0  0
   18.6224   18.7920   24.2754 H   0  0  0  0  0  0  0  0  0  0  0  0
   18.9134   20.4434   25.6264 C   0  0  2  0  0  0  0  0  0  0  0  0
   18.1980   21.1121   25.1380 H   0  0  0  0  0  0  0  0  0  0  0  0
   20.0349   21.2967   26.2460 C   0  0  0  0  0  0  0  0  0  0  0  0
   20.8146   20.6654   26.6902 H   0  0  0  0  0  0  0  0  0  0  0  0
   20.5030   21.9467   25.4980 H   0  0  0  0  0  0  0  0  0  0  0  0
   19.6348   21.9470   27.0336 H   0  0  0  0  0  0  0  0  0  0  0  0
   18.1527   19.7258   26.7068 N   0  3  0  0  0  0  0  0  0  0  0  0
   17.3716   19.1858   26.3232 H   0  0  0  0  0  0  0  0  0  0  0  0
   17.7628   20.3828   27.3888 H   0  0  0  0  0  0  0  0  0  0  0  0
   18.7547   19.0754   27.2189 H   0  0  0  0  0  0  0  0  0  0  0  0
  1  2  1  0  0  0  0
  1  3  1  0  0  0  0
  1  4  1  0  0  0  0
  1  5  1  0  0  0  0
  5  6  1  0  0  0  0
  5  7  1  0  0  0  0
  5  8  1  0  0  0  0
  8  9  1  0  0  0  0
  8 10  1  0  0  0  0
  8 11  1  0  0  0  0
 11 12  1  0  0  0  0
 11 13  1  0  0  0  0
 11 14  1  0  0  0  0
 14 15  1  0  0  0  0
 14 16  1  0  0  0  0
 14 17  1  0  0  0  0
 17 18  1  0  0  0  0
 17 19  1  0  0  0  0
 17 20  1  0  0  0  0
 20 21  1  0  0  0  0
 20 22  1  0  0  0  0
 22 23  1  0  0  0  0
 22 24  1  0  0  0  0
 22 25  1  0  0  0  0
 20 26  1  0  0  0  0
 26 27  1  0  0  0  0
 26 28  1  0  0  0  0
 26 29  1  0  0  0  0
M  END
> <VConfSearch Rank>
330

> <Conf_Id>
135

> <Delta U+W>
1.581

> <U+W>
-26.245

> <U>
25.974

> <W>
-52.219

> <W(PB)>
-54.709

> <W(SA)>
2.490

> <Valence>
4.811

> <Coulomb>
19.700

> <VdW>
1.463

> <VdW6>
-9.391

> <VdW12>
10.854

> <Bond>
0.285

> <Angle>
1.671

> <Pdih>
2.855

> <Idih>
0.000

> <Tether>
0.000

$$$$
VeraChem MOL file


 29 28  0  0  0  0  0  0  0  0999 V2000     
   21.2112   22.1560   25.8183 C   0  0  0  0  0  0  0  0  0  0  0  0
   20.5125   22.7026   25.1718 H   0  0  0  0  0  0  0  0  0  0  0  0
   20.6276   21.5922   26.5567 H   0  0  0  0  0  0  0  0  0  0  0  0
   21.8106   22.8950   26.3657 H   0  0  0  0  0  0  0  0  0  0  0  0
   22.1249   21.2263   24.9881 C   0  0  0  0  0  0  0  0  0  0  0  0
   22.7957   20.6720   25.6593 H   0  0  0  0  0  0  0  0  0  0  0  0
   22.7711   21.8433   24.3483 H   0  0  0  0  0  0  0  0  0  0  0  0
   21.3413   20.2349   24.0948 C   0  0  0  0  0  0  0  0  0  0  0  0
   20.6974   20.8016   23.4093 H   0  0  0  0  0  0  0  0  0  0  0  0
   22.0586   19.6878   23.4677 H   0  0  0  0  0  0  0  0  0  0  0  0
   20.4953   19.2184   24.9022 C   0  0  0  0  0  0  0  0  0  0  0  0
   19.6954   19.7402   25.4439 H   0  0  0  0  0  0  0  0  0  0  0  0
   21.1312   18.7486   25.6652 H   0  0  0  0  0  0  0  0  0  0  0  0
   19.8736   18.1039   24.0254 C   0  0  0  0  0  0  0  0  0  0  0  0
   20.6787   17.5575   23.5166 H   0  0  0  0  0  0  0  0  0  0  0  0
   19.3736   17.3799   24.6836 H   0  0  0  0  0  0  0  0  0  0  0  0
   18.8501   18.6369   22.9900 C   0  0  0  0  0  0  0  0  0  0  0  0
   19.3596   19.2573   22.2416 H   0  0  0  0  0  0  0  0  0  0  0  0
   18.1374   19.2922   23.5077 H   0  0  0  0  0  0  0  0  0  0  0  0
   18.0577   17.5205   22.2728 C   0  0  2  0  0  0  0  0  0  0  0  0
   17.5862   16.8911   23.0338 H   0  0  0  0  0  0  0  0  0  0  0  0
   18.9659   16.6343   21.4017 C   0  0  0  0  0  0  0  0  0  0  0  0
   19.5083   17.2317   20.6583 H   0  0  0  0  0  0  0  0  0  0  0  0
   19.7001   16.0951   22.0115 H   0  0  0  0  0  0  0  0  0  0  0  0
   18.3734   15.8819   20.8668 H   0  0  0  0  0  0  0  0  0  0  0  0
   16.9410   18.0936   21.4451 N   0  3  0  0  0  0  0  0  0  0  0  0
   16.3888   17.3550   20.9997 H   0  0  0  0  0  0  0  0  0  0  0  0
   17.2992   18.6981   20.7009 H   0  0  0  0  0  0  0  0  0  0  0  0
   16.2987   18.6528   22.0140 H   0  0  0  0  0  0  0  0  0  0  0  0
  1  2  1  0  0  0  0
  1  3  1  0  0  0  0
  1  4  1  0  0  0  0
  1  5  1  0  0  0  0
  5  6  1  0  0  0  0
  5  7  1  0  0  0  0
  5  8  1  0  0  0  0
  8  9  1  0  0  0  0
  8 10  1  0  0  0  0
  8 11  1  0  0  0  0
 11 12  1  0  0  0  0
 11 13  1  0  0  0  0
 11 14  1  0  0  0  0
 14 15  1  0  0  0  0
 14 16  1  0  0  0  0
 14 17  1  0  0  0  0
 17 18  1  0  0  0  0
 17 19  1  0  0  0  0
 17 20  1  0  0  0  0
 20 21  1  0  0  0  0
 20 22  1  0  0  0  0
 22 23  1  0  0  0  0
 22 24  1  0  0  0  0
 22 25  1  0  0  0  0
 20 26  1  0  0  0  0
 26 27  1  0  0  0  0
 26 28  1  0  0  0  0
 26 29  1  0  0  0  0
M  END
> <VConfSearch Rank>
331

> <Conf_Id>
130

> <Delta U+W>
1.359

> <U+W>
-26.467

> <U>
25.687

> <W>
-52.154

> <W(PB)>
-54.643

> <W(SA)>
2.489

> <Valence>
4.682

> <Coulomb>
19.653

> <VdW>
1.352

> <VdW6>
-9.477

> <VdW12>
10.829

> <Bond>
0.274

> <Angle>
1.550

> <Pdih>
2.858

> <Idih>
0.000

> <Tether>
0.000

$$$$
VeraChem MOL file


 29 28  0  0  0  0  0  0  0  0999 V2000     
   18.3104   16.1868   26.0010 C   0  0  0  0  0  0  0  0  0  0  0  0
   18.1959   15.8830   27.0496 H   0  0  0  0  0  0  0  0  0  0  0  0
   17.5389   15.6699   25.4156 H   0  0  0  0  0  0  0  0  0  0  0  0
   19.2929   15.8359   25.6620 H   0  0  0  0  0  0  0  0  0  0  0  0
   18.1767   17.7205   25.8650 C   0  0  0  0  0  0  0  0  0  0  0  0
   18.9790   18.2131   26.4319 H   0  0  0  0  0  0  0  0  0  0  0  0
   17.2328   18.0355   26.3314 H   0  0  0  0  0  0  0  0  0  0  0  0
   18.1938   18.2138   24.3980 C   0  0  0  0  0  0  0  0  0  0  0  0
   17.3785   17.7318   23.8412 H   0  0  0  0  0  0  0  0  0  0  0  0
   17.9720   19.2884   24.3965 H   0  0  0  0  0  0  0  0  0  0  0  0
   19.5414   17.9544   23.6770 C   0  0  0  0  0  0  0  0  0  0  0  0
   19.7173   16.8721   23.6259 H   0  0  0  0  0  0  0  0  0  0  0  0
   20.3636   18.3722   24.2703 H   0  0  0  0  0  0  0  0  0  0  0  0
   19.5757   18.5140   22.2309 C   0  0  0  0  0  0  0  0  0  0  0  0
   20.4077   18.0553   21.6789 H   0  0  0  0  0  0  0  0  0  0  0  0
   18.6648   18.1855   21.7115 H   0  0  0  0  0  0  0  0  0  0  0  0
   19.6831   20.0612   22.1337 C   0  0  0  0  0  0  0  0  0  0  0  0
   19.2469   20.5414   23.0177 H   0  0  0  0  0  0  0  0  0  0  0  0
   19.0682   20.3855   21.2839 H   0  0  0  0  0  0  0  0  0  0  0  0
   21.1171   20.5945   21.9019 C   0  0  2  0  0  0  0  0  0  0  0  0
   21.5108   20.1296   20.9929 H   0  0  0  0  0  0  0  0  0  0  0  0
   22.0694   20.2622   23.0630 C   0  0  0  0  0  0  0  0  0  0  0  0
   22.2273   19.1807   23.1451 H   0  0  0  0  0  0  0  0  0  0  0  0
   23.0528   20.7203   22.9003 H   0  0  0  0  0  0  0  0  0  0  0  0
   21.6754   20.6308   24.0183 H   0  0  0  0  0  0  0  0  0  0  0  0
   21.1067   22.0762   21.6471 N   0  3  0  0  0  0  0  0  0  0  0  0
   20.5149   22.3172   20.8467 H   0  0  0  0  0  0  0  0  0  0  0  0
   22.0475   22.4277   21.4470 H   0  0  0  0  0  0  0  0  0  0  0  0
   20.7537   22.5924   22.4575 H   0  0  0  0  0  0  0  0  0  0  0  0
  1  2  1  0  0  0  0
  1  3  1  0  0  0  0
  1  4  1  0  0  0  0
  1  5  1  0  0  0  0
  5  6  1  0  0  0  0
  5  7  1  0  0  0  0
  5  8  1  0  0  0  0
  8  9  1  0  0  0  0
  8 10  1  0  0  0  0
  8 11  1  0  0  0  0
 11 12  1  0  0  0  0
 11 13  1  0  0  0  0
 11 14  1  0  0  0  0
 14 15  1  0  0  0  0
 14 16  1  0  0  0  0
 14 17  1  0  0  0  0
 17 18  1  0  0  0  0
 17 19  1  0  0  0  0
 17 20  1  0  0  0  0
 20 21  1  0  0  0  0
 20 22  1  0  0  0  0
 22 23  1  0  0  0  0
 22 24  1  0  0  0  0
 22 25  1  0  0  0  0
 20 26  1  0  0  0  0
 26 27  1  0  0  0  0
 26 28  1  0  0  0  0
 26 29  1  0  0  0  0
M  END
> <VConfSearch Rank>
332

> <Conf_Id>
157

> <Delta U+W>
4.354

> <U+W>
-23.472

> <U>
28.780

> <W>
-52.252

> <W(PB)>
-54.715

> <W(SA)>
2.462

> <Valence>
7.566

> <Coulomb>
19.822

> <VdW>
1.392

> <VdW6>
-10.248

> <VdW12>
11.641

> <Bond>
0.340

> <Angle>
2.096

> <Pdih>
5.129

> <Idih>
0.000

> <Tether>
0.000

$$$$
VeraChem MOL file


 29 28  0  0  0  0  0  0  0  0999 V2000     
   19.1522   17.2563   26.6781 C   0  0  0  0  0  0  0  0  0  0  0  0
   19.6640   16.7281   27.4929 H   0  0  0  0  0  0  0  0  0  0  0  0
   19.6062   18.2494   26.5890 H   0  0  0  0  0  0  0  0  0  0  0  0
   18.1039   17.3902   26.9751 H   0  0  0  0  0  0  0  0  0  0  0  0
   19.2535   16.4494   25.3627 C   0  0  0  0  0  0  0  0  0  0  0  0
   18.7960   15.4649   25.5337 H   0  0  0  0  0  0  0  0  0  0  0  0
   20.3059   16.2542   25.1139 H   0  0  0  0  0  0  0  0  0  0  0  0
   18.5338   17.1282   24.1690 C   0  0  0  0  0  0  0  0  0  0  0  0
   18.0790   16.3408   23.5522 H   0  0  0  0  0  0  0  0  0  0  0  0
   17.6964   17.7415   24.5291 H   0  0  0  0  0  0  0  0  0  0  0  0
   19.4526   17.9699   23.2461 C   0  0  0  0  0  0  0  0  0  0  0  0
   18.8434   18.3307   22.4073 H   0  0  0  0  0  0  0  0  0  0  0  0
   20.2220   17.3196   22.8078 H   0  0  0  0  0  0  0  0  0  0  0  0
   20.1344   19.1695   23.9492 C   0  0  0  0  0  0  0  0  0  0  0  0
   19.3802   19.7800   24.4630 H   0  0  0  0  0  0  0  0  0  0  0  0
   20.8103   18.7927   24.7275 H   0  0  0  0  0  0  0  0  0  0  0  0
   20.9685   20.0520   22.9852 C   0  0  0  0  0  0  0  0  0  0  0  0
   21.7669   19.4388   22.5465 H   0  0  0  0  0  0  0  0  0  0  0  0
   21.4701   20.8375   23.5660 H   0  0  0  0  0  0  0  0  0  0  0  0
   20.1518   20.7047   21.8472 C   0  0  2  0  0  0  0  0  0  0  0  0
   19.6838   19.9109   21.2579 H   0  0  0  0  0  0  0  0  0  0  0  0
   21.0764   21.5070   20.9181 C   0  0  0  0  0  0  0  0  0  0  0  0
   21.5692   22.3253   21.4579 H   0  0  0  0  0  0  0  0  0  0  0  0
   21.8544   20.8619   20.4911 H   0  0  0  0  0  0  0  0  0  0  0  0
   20.5088   21.9400   20.0851 H   0  0  0  0  0  0  0  0  0  0  0  0
   19.0384   21.5729   22.3652 N   0  3  0  0  0  0  0  0  0  0  0  0
   18.3949   21.0376   22.9546 H   0  0  0  0  0  0  0  0  0  0  0  0
   18.4915   21.9775   21.5998 H   0  0  0  0  0  0  0  0  0  0  0  0
   19.4008   22.3476   22.9272 H   0  0  0  0  0  0  0  0  0  0  0  0
  1  2  1  0  0  0  0
  1  3  1  0  0  0  0
  1  4  1  0  0  0  0
  1  5  1  0  0  0  0
  5  6  1  0  0  0  0
  5  7  1  0  0  0  0
  5  8  1  0  0  0  0
  8  9  1  0  0  0  0
  8 10  1  0  0  0  0
  8 11  1  0  0  0  0
 11 12  1  0  0  0  0
 11 13  1  0  0  0  0
 11 14  1  0  0  0  0
 14 15  1  0  0  0  0
 14 16  1  0  0  0  0
 14 17  1  0  0  0  0
 17 18  1  0  0  0  0
 17 19  1  0  0  0  0
 17 20  1  0  0  0  0
 20 21  1  0  0  0  0
 20 22  1  0  0  0  0
 22 23  1  0  0  0  0
 22 24  1  0  0  0  0
 22 25  1  0  0  0  0
 20 26  1  0  0  0  0
 26 27  1  0  0  0  0
 26 28  1  0  0  0  0
 26 29  1  0  0  0  0
M  END
> <VConfSearch Rank>
333

> <Conf_Id>
158

> <Delta U+W>
3.648

> <U+W>
-24.178

> <U>
28.057

> <W>
-52.235

> <W(PB)>
-54.696

> <W(SA)>
2.460

> <Valence>
6.543

> <Coulomb>
20.387

> <VdW>
1.127

> <VdW6>
-10.342

> <VdW12>
11.469

> <Bond>
0.308

> <Angle>
1.938

> <Pdih>
4.297

> <Idih>
0.000

> <Tether>
0.000

$$$$
VeraChem MOL file


 29 28  0  0  0  0  0  0  0  0999 V2000     
   16.4246   20.0470   22.4295 C   0  0  0  0  0  0  0  0  0  0  0  0
   16.1421   18.9864   22.4135 H   0  0  0  0  0  0  0  0  0  0  0  0
   16.8133   20.2849   23.4273 H   0  0  0  0  0  0  0  0  0  0  0  0
   15.5125   20.6396   22.2814 H   0  0  0  0  0  0  0  0  0  0  0  0
   17.4596   20.3632   21.3261 C   0  0  0  0  0  0  0  0  0  0  0  0
   17.7500   21.4215   21.3837 H   0  0  0  0  0  0  0  0  0  0  0  0
   16.9831   20.2281   20.3450 H   0  0  0  0  0  0  0  0  0  0  0  0
   18.7215   19.4696   21.3918 C   0  0  0  0  0  0  0  0  0  0  0  0
   18.4271   18.4138   21.3157 H   0  0  0  0  0  0  0  0  0  0  0  0
   19.3449   19.6810   20.5120 H   0  0  0  0  0  0  0  0  0  0  0  0
   19.5638   19.6854   22.6718 C   0  0  0  0  0  0  0  0  0  0  0  0
   18.9679   19.4254   23.5534 H   0  0  0  0  0  0  0  0  0  0  0  0
   19.8161   20.7505   22.7663 H   0  0  0  0  0  0  0  0  0  0  0  0
   20.8675   18.8502   22.6459 C   0  0  0  0  0  0  0  0  0  0  0  0
   20.6408   17.7886   22.4757 H   0  0  0  0  0  0  0  0  0  0  0  0
   21.4641   19.1744   21.7819 H   0  0  0  0  0  0  0  0  0  0  0  0
   21.7285   19.0124   23.9266 C   0  0  0  0  0  0  0  0  0  0  0  0
   21.5488   19.9939   24.3851 H   0  0  0  0  0  0  0  0  0  0  0  0
   22.7836   19.0136   23.6225 H   0  0  0  0  0  0  0  0  0  0  0  0
   21.5491   17.8903   24.9775 C   0  0  2  0  0  0  0  0  0  0  0  0
   21.7842   16.9349   24.4984 H   0  0  0  0  0  0  0  0  0  0  0  0
   20.1154   17.8099   25.5283 C   0  0  0  0  0  0  0  0  0  0  0  0
   19.7920   18.7747   25.9383 H   0  0  0  0  0  0  0  0  0  0  0  0
   19.4099   17.5084   24.7455 H   0  0  0  0  0  0  0  0  0  0  0  0
   20.0492   17.0609   26.3270 H   0  0  0  0  0  0  0  0  0  0  0  0
   22.5301   18.0484   26.1059 N   0  3  0  0  0  0  0  0  0  0  0  0
   23.4966   18.0557   25.7673 H   0  0  0  0  0  0  0  0  0  0  0  0
   22.4498   17.2827   26.7811 H   0  0  0  0  0  0  0  0  0  0  0  0
   22.3759   18.9226   26.6155 H   0  0  0  0  0  0  0  0  0  0  0  0
  1  2  1  0  0  0  0
  1  3  1  0  0  0  0
  1  4  1  0  0  0  0
  1  5  1  0  0  0  0
  5  6  1  0  0  0  0
  5  7  1  0  0  0  0
  5  8  1  0  0  0  0
  8  9  1  0  0  0  0
  8 10  1  0  0  0  0
  8 11  1  0  0  0  0
 11 12  1  0  0  0  0
 11 13  1  0  0  0  0
 11 14  1  0  0  0  0
 14 15  1  0  0  0  0
 14 16  1  0  0  0  0
 14 17  1  0  0  0  0
 17 18  1  0  0  0  0
 17 19  1  0  0  0  0
 17 20  1  0  0  0  0
 20 21  1  0  0  0  0
 20 22  1  0  0  0  0
 22 23  1  0  0  0  0
 22 24  1  0  0  0  0
 22 25  1  0  0  0  0
 20 26  1  0  0  0  0
 26 27  1  0  0  0  0
 26 28  1  0  0  0  0
 26 29  1  0  0  0  0
M  END
> <VConfSearch Rank>
334

> <Conf_Id>
156

> <Delta U+W>
3.393

> <U+W>
-24.433

> <U>
27.713

> <W>
-52.146

> <W(PB)>
-54.603

> <W(SA)>
2.458

> <Valence>
6.758

> <Coulomb>
19.720

> <VdW>
1.235

> <VdW6>
-9.782

> <VdW12>
11.017

> <Bond>
0.287

> <Angle>
1.880

> <Pdih>
4.591

> <Idih>
0.000

> <Tether>
0.000

$$$$
VeraChem MOL file


 29 28  0  0  0  0  0  0  0  0999 V2000     
   19.5989   21.7799   20.6321 C   0  0  0  0  0  0  0  0  0  0  0  0
   19.7422   20.9273   19.9555 H   0  0  0  0  0  0  0  0  0  0  0  0
   18.7041   22.3272   20.3081 H   0  0  0  0  0  0  0  0  0  0  0  0
   20.4620   22.4487   20.5194 H   0  0  0  0  0  0  0  0  0  0  0  0
   19.4621   21.3090   22.0954 C   0  0  0  0  0  0  0  0  0  0  0  0
   19.3498   22.1835   22.7513 H   0  0  0  0  0  0  0  0  0  0  0  0
   20.3894   20.8026   22.3943 H   0  0  0  0  0  0  0  0  0  0  0  0
   18.2541   20.3606   22.2786 C   0  0  0  0  0  0  0  0  0  0  0  0
   17.3500   20.8587   21.9020 H   0  0  0  0  0  0  0  0  0  0  0  0
   18.3853   19.4669   21.6547 H   0  0  0  0  0  0  0  0  0  0  0  0
   18.0040   19.9490   23.7527 C   0  0  0  0  0  0  0  0  0  0  0  0
   17.1188   19.2993   23.7918 H   0  0  0  0  0  0  0  0  0  0  0  0
   17.7431   20.8458   24.3313 H   0  0  0  0  0  0  0  0  0  0  0  0
   19.1855   19.2315   24.4559 C   0  0  0  0  0  0  0  0  0  0  0  0
   20.0396   19.9160   24.5317 H   0  0  0  0  0  0  0  0  0  0  0  0
   18.8783   19.0151   25.4870 H   0  0  0  0  0  0  0  0  0  0  0  0
   19.6132   17.9140   23.7534 C   0  0  0  0  0  0  0  0  0  0  0  0
   19.9477   18.1345   22.7323 H   0  0  0  0  0  0  0  0  0  0  0  0
   18.7399   17.2563   23.6518 H   0  0  0  0  0  0  0  0  0  0  0  0
   20.7444   17.1346   24.4649 C   0  0  2  0  0  0  0  0  0  0  0  0
   20.9812   16.2664   23.8421 H   0  0  0  0  0  0  0  0  0  0  0  0
   20.3103   16.6097   25.8446 C   0  0  0  0  0  0  0  0  0  0  0  0
   21.0772   15.9442   26.2596 H   0  0  0  0  0  0  0  0  0  0  0  0
   20.1542   17.4259   26.5598 H   0  0  0  0  0  0  0  0  0  0  0  0
   19.3785   16.0358   25.7681 H   0  0  0  0  0  0  0  0  0  0  0  0
   22.0146   17.9331   24.5672 N   0  3  0  0  0  0  0  0  0  0  0  0
   22.3365   18.2458   23.6468 H   0  0  0  0  0  0  0  0  0  0  0  0
   22.7698   17.3819   24.9851 H   0  0  0  0  0  0  0  0  0  0  0  0
   21.8835   18.7647   25.1483 H   0  0  0  0  0  0  0  0  0  0  0  0
  1  2  1  0  0  0  0
  1  3  1  0  0  0  0
  1  4  1  0  0  0  0
  1  5  1  0  0  0  0
  5  6  1  0  0  0  0
  5  7  1  0  0  0  0
  5  8  1  0  0  0  0
  8  9  1  0  0  0  0
  8 10  1  0  0  0  0
  8 11  1  0  0  0  0
 11 12  1  0  0  0  0
 11 13  1  0  0  0  0
 11 14  1  0  0  0  0
 14 15  1  0  0  0  0
 14 16  1  0  0  0  0
 14 17  1  0  0  0  0
 17 18  1  0  0  0  0
 17 19  1  0  0  0  0
 17 20  1  0  0  0  0
 20 21  1  0  0  0  0
 20 22  1  0  0  0  0
 22 23  1  0  0  0  0
 22 24  1  0  0  0  0
 22 25  1  0  0  0  0
 20 26  1  0  0  0  0
 26 27  1  0  0  0  0
 26 28  1  0  0  0  0
 26 29  1  0  0  0  0
M  END
> <VConfSearch Rank>
335

> <Conf_Id>
78

> <Delta U+W>
1.477

> <U+W>
-26.349

> <U>
26.385

> <W>
-52.734

> <W(PB)>
-55.179

> <W(SA)>
2.445

> <Valence>
4.726

> <Coulomb>
20.482

> <VdW>
1.177

> <VdW6>
-10.349

> <VdW12>
11.526

> <Bond>
0.319

> <Angle>
1.933

> <Pdih>
2.474

> <Idih>
0.000

> <Tether>
0.000

$$$$
VeraChem MOL file


 29 28  0  0  0  0  0  0  0  0999 V2000     
   22.7599   16.9698   24.3761 C   0  0  0  0  0  0  0  0  0  0  0  0
   23.2160   17.3544   25.2976 H   0  0  0  0  0  0  0  0  0  0  0  0
   21.7136   16.7286   24.5938 H   0  0  0  0  0  0  0  0  0  0  0  0
   23.2708   16.0333   24.1177 H   0  0  0  0  0  0  0  0  0  0  0  0
   22.8941   17.9946   23.2257 C   0  0  0  0  0  0  0  0  0  0  0  0
   22.5054   17.5711   22.2891 H   0  0  0  0  0  0  0  0  0  0  0  0
   23.9650   18.1732   23.0547 H   0  0  0  0  0  0  0  0  0  0  0  0
   22.2088   19.3517   23.5295 C   0  0  0  0  0  0  0  0  0  0  0  0
   22.1987   19.5384   24.6122 H   0  0  0  0  0  0  0  0  0  0  0  0
   22.8273   20.1507   23.0979 H   0  0  0  0  0  0  0  0  0  0  0  0
   20.7790   19.5050   22.9497 C   0  0  0  0  0  0  0  0  0  0  0  0
   20.8192   19.4237   21.8548 H   0  0  0  0  0  0  0  0  0  0  0  0
   20.4375   20.5248   23.1690 H   0  0  0  0  0  0  0  0  0  0  0  0
   19.7546   18.4843   23.5036 C   0  0  0  0  0  0  0  0  0  0  0  0
   20.0597   17.4724   23.2084 H   0  0  0  0  0  0  0  0  0  0  0  0
   19.7651   18.5013   24.6013 H   0  0  0  0  0  0  0  0  0  0  0  0
   18.3135   18.7148   22.9787 C   0  0  0  0  0  0  0  0  0  0  0  0
   17.6592   17.9308   23.3825 H   0  0  0  0  0  0  0  0  0  0  0  0
   18.3155   18.5777   21.8893 H   0  0  0  0  0  0  0  0  0  0  0  0
   17.7048   20.0998   23.3029 C   0  0  2  0  0  0  0  0  0  0  0  0
   18.3545   20.8714   22.8800 H   0  0  0  0  0  0  0  0  0  0  0  0
   17.5858   20.3402   24.8182 C   0  0  0  0  0  0  0  0  0  0  0  0
   17.1046   21.3051   25.0200 H   0  0  0  0  0  0  0  0  0  0  0  0
   16.9893   19.5549   25.2990 H   0  0  0  0  0  0  0  0  0  0  0  0
   18.5725   20.3638   25.2954 H   0  0  0  0  0  0  0  0  0  0  0  0
   16.3655   20.2700   22.6414 N   0  3  0  0  0  0  0  0  0  0  0  0
   15.6884   19.5841   22.9862 H   0  0  0  0  0  0  0  0  0  0  0  0
   16.4293   20.1557   21.6257 H   0  0  0  0  0  0  0  0  0  0  0  0
   15.9758   21.2001   22.8196 H   0  0  0  0  0  0  0  0  0  0  0  0
  1  2  1  0  0  0  0
  1  3  1  0  0  0  0
  1  4  1  0  0  0  0
  1  5  1  0  0  0  0
  5  6  1  0  0  0  0
  5  7  1  0  0  0  0
  5  8  1  0  0  0  0
  8  9  1  0  0  0  0
  8 10  1  0  0  0  0
  8 11  1  0  0  0  0
 11 12  1  0  0  0  0
 11 13  1  0  0  0  0
 11 14  1  0  0  0  0
 14 15  1  0  0  0  0
 14 16  1  0  0  0  0
 14 17  1  0  0  0  0
 17 18  1  0  0  0  0
 17 19  1  0  0  0  0
 17 20  1  0  0  0  0
 20 21  1  0  0  0  0
 20 22  1  0  0  0  0
 22 23  1  0  0  0  0
 22 24  1  0  0  0  0
 22 25  1  0  0  0  0
 20 26  1  0  0  0  0
 26 27  1  0  0  0  0
 26 28  1  0  0  0  0
 26 29  1  0  0  0  0
M  END
> <VConfSearch Rank>
336

> <Conf_Id>
145

> <Delta U+W>
3.784

> <U+W>
-24.042

> <U>
28.220

> <W>
-52.262

> <W(PB)>
-54.724

> <W(SA)>
2.462

> <Valence>
7.040

> <Coulomb>
19.984

> <VdW>
1.197

> <VdW6>
-10.566

> <VdW12>
11.763

> <Bond>
0.320

> <Angle>
2.280

> <Pdih>
4.439

> <Idih>
0.000

> <Tether>
0.000

$$$$
VeraChem MOL file


 29 28  0  0  0  0  0  0  0  0999 V2000     
   17.4297   19.8034   26.6193 C   0  0  0  0  0  0  0  0  0  0  0  0
   16.5522   20.4629   26.6019 H   0  0  0  0  0  0  0  0  0  0  0  0
   17.1026   18.7915   26.3469 H   0  0  0  0  0  0  0  0  0  0  0  0
   17.8058   19.7700   27.6501 H   0  0  0  0  0  0  0  0  0  0  0  0
   18.5239   20.3101   25.6562 C   0  0  0  0  0  0  0  0  0  0  0  0
   19.4001   19.6549   25.7309 H   0  0  0  0  0  0  0  0  0  0  0  0
   18.8533   21.3085   25.9760 H   0  0  0  0  0  0  0  0  0  0  0  0
   18.0123   20.3770   24.1970 C   0  0  0  0  0  0  0  0  0  0  0  0
   17.6154   19.4015   23.8841 H   0  0  0  0  0  0  0  0  0  0  0  0
   17.1629   21.0733   24.1652 H   0  0  0  0  0  0  0  0  0  0  0  0
   19.0856   20.8653   23.1893 C   0  0  0  0  0  0  0  0  0  0  0  0
   19.8108   21.5203   23.6914 H   0  0  0  0  0  0  0  0  0  0  0  0
   18.5882   21.4962   22.4396 H   0  0  0  0  0  0  0  0  0  0  0  0
   19.8256   19.7343   22.4294 C   0  0  0  0  0  0  0  0  0  0  0  0
   19.0947   19.1575   21.8473 H   0  0  0  0  0  0  0  0  0  0  0  0
   20.4965   20.2059   21.7002 H   0  0  0  0  0  0  0  0  0  0  0  0
   20.6379   18.7804   23.3455 C   0  0  0  0  0  0  0  0  0  0  0  0
   19.9493   18.2463   24.0113 H   0  0  0  0  0  0  0  0  0  0  0  0
   21.2993   19.3707   23.9932 H   0  0  0  0  0  0  0  0  0  0  0  0
   21.4849   17.7234   22.5980 C   0  0  2  0  0  0  0  0  0  0  0  0
   21.9395   17.0777   23.3557 H   0  0  0  0  0  0  0  0  0  0  0  0
   22.6279   18.3606   21.7883 C   0  0  0  0  0  0  0  0  0  0  0  0
   23.2931   17.5848   21.3898 H   0  0  0  0  0  0  0  0  0  0  0  0
   22.2507   18.9442   20.9404 H   0  0  0  0  0  0  0  0  0  0  0  0
   23.2319   19.0230   22.4207 H   0  0  0  0  0  0  0  0  0  0  0  0
   20.6469   16.8239   21.7319 N   0  3  0  0  0  0  0  0  0  0  0  0
   20.1906   17.3509   20.9832 H   0  0  0  0  0  0  0  0  0  0  0  0
   19.9132   16.3583   22.2736 H   0  0  0  0  0  0  0  0  0  0  0  0
   21.2140   16.0932   21.2924 H   0  0  0  0  0  0  0  0  0  0  0  0
  1  2  1  0  0  0  0
  1  3  1  0  0  0  0
  1  4  1  0  0  0  0
  1  5  1  0  0  0  0
  5  6  1  0  0  0  0
  5  7  1  0  0  0  0
  5  8  1  0  0  0  0
  8  9  1  0  0  0  0
  8 10  1  0  0  0  0
  8 11  1  0  0  0  0
 11 12  1  0  0  0  0
 11 13  1  0  0  0  0
 11 14  1  0  0  0  0
 14 15  1  0  0  0  0
 14 16  1  0  0  0  0
 14 17  1  0  0  0  0
 17 18  1  0  0  0  0
 17 19  1  0  0  0  0
 17 20  1  0  0  0  0
 20 21  1  0  0  0  0
 20 22  1  0  0  0  0
 22 23  1  0  0  0  0
 22 24  1  0  0  0  0
 22 25  1  0  0  0  0
 20 26  1  0  0  0  0
 26 27  1  0  0  0  0
 26 28  1  0  0  0  0
 26 29  1  0  0  0  0
M  END
> <VConfSearch Rank>
337

> <Conf_Id>
71

> <Delta U+W>
3.542

> <U+W>
-24.284

> <U>
28.217

> <W>
-52.501

> <W(PB)>
-54.947

> <W(SA)>
2.446

> <Valence>
6.821

> <Coulomb>
20.147

> <VdW>
1.249

> <VdW6>
-10.237

> <VdW12>
11.486

> <Bond>
0.317

> <Angle>
1.990

> <Pdih>
4.515

> <Idih>
0.000

> <Tether>
0.000

$$$$
VeraChem MOL file


 29 28  0  0  0  0  0  0  0  0999 V2000     
   21.8102   22.2043   25.0172 C   0  0  0  0  0  0  0  0  0  0  0  0
   22.4627   21.3964   25.3732 H   0  0  0  0  0  0  0  0  0  0  0  0
   22.4188   22.8993   24.4240 H   0  0  0  0  0  0  0  0  0  0  0  0
   21.4372   22.7479   25.8950 H   0  0  0  0  0  0  0  0  0  0  0  0
   20.6379   21.6436   24.1847 C   0  0  0  0  0  0  0  0  0  0  0  0
   19.9866   22.4722   23.8732 H   0  0  0  0  0  0  0  0  0  0  0  0
   20.0278   20.9897   24.8191 H   0  0  0  0  0  0  0  0  0  0  0  0
   21.1401   20.8819   22.9345 C   0  0  0  0  0  0  0  0  0  0  0  0
   21.7169   21.5841   22.3167 H   0  0  0  0  0  0  0  0  0  0  0  0
   21.8418   20.0880   23.2252 H   0  0  0  0  0  0  0  0  0  0  0  0
   19.9962   20.2926   22.0685 C   0  0  0  0  0  0  0  0  0  0  0  0
   20.2904   20.3749   21.0130 H   0  0  0  0  0  0  0  0  0  0  0  0
   19.0876   20.9019   22.1698 H   0  0  0  0  0  0  0  0  0  0  0  0
   19.6737   18.8017   22.3468 C   0  0  0  0  0  0  0  0  0  0  0  0
   18.9141   18.4794   21.6229 H   0  0  0  0  0  0  0  0  0  0  0  0
   20.5692   18.2003   22.1413 H   0  0  0  0  0  0  0  0  0  0  0  0
   19.1703   18.5196   23.7872 C   0  0  0  0  0  0  0  0  0  0  0  0
   18.3631   19.2217   24.0335 H   0  0  0  0  0  0  0  0  0  0  0  0
   19.9804   18.7160   24.5005 H   0  0  0  0  0  0  0  0  0  0  0  0
   18.6580   17.0796   24.0259 C   0  0  2  0  0  0  0  0  0  0  0  0
   18.3365   17.0178   25.0702 H   0  0  0  0  0  0  0  0  0  0  0  0
   19.7643   16.0311   23.8161 C   0  0  0  0  0  0  0  0  0  0  0  0
   20.6474   16.2697   24.4217 H   0  0  0  0  0  0  0  0  0  0  0  0
   19.4127   15.0368   24.1176 H   0  0  0  0  0  0  0  0  0  0  0  0
   20.0732   15.9730   22.7655 H   0  0  0  0  0  0  0  0  0  0  0  0
   17.4449   16.7561   23.1979 N   0  3  0  0  0  0  0  0  0  0  0  0
   16.6877   17.4252   23.3640 H   0  0  0  0  0  0  0  0  0  0  0  0
   17.0822   15.8232   23.4145 H   0  0  0  0  0  0  0  0  0  0  0  0
   17.6611   16.7769   22.1983 H   0  0  0  0  0  0  0  0  0  0  0  0
  1  2  1  0  0  0  0
  1  3  1  0  0  0  0
  1  4  1  0  0  0  0
  1  5  1  0  0  0  0
  5  6  1  0  0  0  0
  5  7  1  0  0  0  0
  5  8  1  0  0  0  0
  8  9  1  0  0  0  0
  8 10  1  0  0  0  0
  8 11  1  0  0  0  0
 11 12  1  0  0  0  0
 11 13  1  0  0  0  0
 11 14  1  0  0  0  0
 14 15  1  0  0  0  0
 14 16  1  0  0  0  0
 14 17  1  0  0  0  0
 17 18  1  0  0  0  0
 17 19  1  0  0  0  0
 17 20  1  0  0  0  0
 20 21  1  0  0  0  0
 20 22  1  0  0  0  0
 22 23  1  0  0  0  0
 22 24  1  0  0  0  0
 22 25  1  0  0  0  0
 20 26  1  0  0  0  0
 26 27  1  0  0  0  0
 26 28  1  0  0  0  0
 26 29  1  0  0  0  0
M  END
> <VConfSearch Rank>
338

> <Conf_Id>
163

> <Delta U+W>
3.309

> <U+W>
-24.517

> <U>
27.916

> <W>
-52.433

> <W(PB)>
-54.866

> <W(SA)>
2.433

> <Valence>
6.693

> <Coulomb>
20.015

> <VdW>
1.208

> <VdW6>
-10.294

> <VdW12>
11.503

> <Bond>
0.312

> <Angle>
1.939

> <Pdih>
4.441

> <Idih>
0.000

> <Tether>
0.000

$$$$
VeraChem MOL file


 29 28  0  0  0  0  0  0  0  0999 V2000     
   20.5950   22.9997   24.2292 C   0  0  0  0  0  0  0  0  0  0  0  0
   20.8986   23.0065   25.2841 H   0  0  0  0  0  0  0  0  0  0  0  0
   21.4619   22.7091   23.6232 H   0  0  0  0  0  0  0  0  0  0  0  0
   20.3282   24.0273   23.9503 H   0  0  0  0  0  0  0  0  0  0  0  0
   19.3971   22.0499   24.0018 C   0  0  0  0  0  0  0  0  0  0  0  0
   19.1351   22.0334   22.9346 H   0  0  0  0  0  0  0  0  0  0  0  0
   18.5212   22.4558   24.5269 H   0  0  0  0  0  0  0  0  0  0  0  0
   19.6490   20.6069   24.5017 C   0  0  0  0  0  0  0  0  0  0  0  0
   19.9065   20.6280   25.5695 H   0  0  0  0  0  0  0  0  0  0  0  0
   18.7057   20.0517   24.4206 H   0  0  0  0  0  0  0  0  0  0  0  0
   20.7564   19.8651   23.7111 C   0  0  0  0  0  0  0  0  0  0  0  0
   21.6983   20.4226   23.7927 H   0  0  0  0  0  0  0  0  0  0  0  0
   20.5028   19.8535   22.6430 H   0  0  0  0  0  0  0  0  0  0  0  0
   21.0146   18.4209   24.2142 C   0  0  0  0  0  0  0  0  0  0  0  0
   21.8478   17.9907   23.6425 H   0  0  0  0  0  0  0  0  0  0  0  0
   21.3616   18.4622   25.2558 H   0  0  0  0  0  0  0  0  0  0  0  0
   19.7919   17.4680   24.1337 C   0  0  0  0  0  0  0  0  0  0  0  0
   19.0344   17.7907   24.8593 H   0  0  0  0  0  0  0  0  0  0  0  0
   20.1017   16.4638   24.4522 H   0  0  0  0  0  0  0  0  0  0  0  0
   19.1487   17.3833   22.7319 C   0  0  2  0  0  0  0  0  0  0  0  0
   18.8434   18.3903   22.4323 H   0  0  0  0  0  0  0  0  0  0  0  0
   17.8964   16.4936   22.7696 C   0  0  0  0  0  0  0  0  0  0  0  0
   17.4142   16.4601   21.7848 H   0  0  0  0  0  0  0  0  0  0  0  0
   18.1476   15.4665   23.0625 H   0  0  0  0  0  0  0  0  0  0  0  0
   17.1629   16.8837   23.4863 H   0  0  0  0  0  0  0  0  0  0  0  0
   20.1158   16.8945   21.6890 N   0  3  0  0  0  0  0  0  0  0  0  0
   20.9402   17.4989   21.6359 H   0  0  0  0  0  0  0  0  0  0  0  0
   19.6868   16.8745   20.7595 H   0  0  0  0  0  0  0  0  0  0  0  0
   20.4409   15.9468   21.8980 H   0  0  0  0  0  0  0  0  0  0  0  0
  1  2  1  0  0  0  0
  1  3  1  0  0  0  0
  1  4  1  0  0  0  0
  1  5  1  0  0  0  0
  5  6  1  0  0  0  0
  5  7  1  0  0  0  0
  5  8  1  0  0  0  0
  8  9  1  0  0  0  0
  8 10  1  0  0  0  0
  8 11  1  0  0  0  0
 11 12  1  0  0  0  0
 11 13  1  0  0  0  0
 11 14  1  0  0  0  0
 14 15  1  0  0  0  0
 14 16  1  0  0  0  0
 14 17  1  0  0  0  0
 17 18  1  0  0  0  0
 17 19  1  0  0  0  0
 17 20  1  0  0  0  0
 20 21  1  0  0  0  0
 20 22  1  0  0  0  0
 22 23  1  0  0  0  0
 22 24  1  0  0  0  0
 22 25  1  0  0  0  0
 20 26  1  0  0  0  0
 26 27  1  0  0  0  0
 26 28  1  0  0  0  0
 26 29  1  0  0  0  0
M  END
> <VConfSearch Rank>
339

> <Conf_Id>
173

> <Delta U+W>
1.363

> <U+W>
-26.462

> <U>
25.816

> <W>
-52.279

> <W(PB)>
-54.727

> <W(SA)>
2.449

> <Valence>
4.504

> <Coulomb>
20.342

> <VdW>
0.971

> <VdW6>
-10.532

> <VdW12>
11.503

> <Bond>
0.307

> <Angle>
1.715

> <Pdih>
2.481

> <Idih>
0.000

> <Tether>
0.000

$$$$
VeraChem MOL file


 29 28  0  0  0  0  0  0  0  0999 V2000     
   16.8730   19.1484   20.9934 C   0  0  0  0  0  0  0  0  0  0  0  0
   16.3261   20.0029   21.4131 H   0  0  0  0  0  0  0  0  0  0  0  0
   16.9895   19.3135   19.9143 H   0  0  0  0  0  0  0  0  0  0  0  0
   16.2552   18.2517   21.1321 H   0  0  0  0  0  0  0  0  0  0  0  0
   18.2443   18.9768   21.6802 C   0  0  0  0  0  0  0  0  0  0  0  0
   18.7557   18.1002   21.2589 H   0  0  0  0  0  0  0  0  0  0  0  0
   18.0825   18.7772   22.7476 H   0  0  0  0  0  0  0  0  0  0  0  0
   19.1293   20.2323   21.5077 C   0  0  0  0  0  0  0  0  0  0  0  0
   19.1823   20.4876   20.4404 H   0  0  0  0  0  0  0  0  0  0  0  0
   18.6485   21.0875   22.0024 H   0  0  0  0  0  0  0  0  0  0  0  0
   20.5764   20.0756   22.0425 C   0  0  0  0  0  0  0  0  0  0  0  0
   21.1107   21.0114   21.8278 H   0  0  0  0  0  0  0  0  0  0  0  0
   21.1058   19.2969   21.4764 H   0  0  0  0  0  0  0  0  0  0  0  0
   20.6772   19.7994   23.5654 C   0  0  0  0  0  0  0  0  0  0  0  0
   21.5565   20.3318   23.9517 H   0  0  0  0  0  0  0  0  0  0  0  0
   19.8085   20.2352   24.0753 H   0  0  0  0  0  0  0  0  0  0  0  0
   20.8251   18.2898   23.9032 C   0  0  0  0  0  0  0  0  0  0  0  0
   21.7323   17.9047   23.4196 H   0  0  0  0  0  0  0  0  0  0  0  0
   19.9953   17.7199   23.4706 H   0  0  0  0  0  0  0  0  0  0  0  0
   20.9057   17.9665   25.4137 C   0  0  2  0  0  0  0  0  0  0  0  0
   21.0706   16.8886   25.5068 H   0  0  0  0  0  0  0  0  0  0  0  0
   19.5938   18.2996   26.1457 C   0  0  0  0  0  0  0  0  0  0  0  0
   18.7392   17.8201   25.6524 H   0  0  0  0  0  0  0  0  0  0  0  0
   19.6286   17.9342   27.1793 H   0  0  0  0  0  0  0  0  0  0  0  0
   19.4096   19.3798   26.1793 H   0  0  0  0  0  0  0  0  0  0  0  0
   22.0795   18.6269   26.0826 N   0  3  0  0  0  0  0  0  0  0  0  0
   22.9617   18.3739   25.6282 H   0  0  0  0  0  0  0  0  0  0  0  0
   22.1522   18.3531   27.0667 H   0  0  0  0  0  0  0  0  0  0  0  0
   21.9981   19.6463   26.0525 H   0  0  0  0  0  0  0  0  0  0  0  0
  1  2  1  0  0  0  0
  1  3  1  0  0  0  0
  1  4  1  0  0  0  0
  1  5  1  0  0  0  0
  5  6  1  0  0  0  0
  5  7  1  0  0  0  0
  5  8  1  0  0  0  0
  8  9  1  0  0  0  0
  8 10  1  0  0  0  0
  8 11  1  0  0  0  0
 11 12  1  0  0  0  0
 11 13  1  0  0  0  0
 11 14  1  0  0  0  0
 14 15  1  0  0  0  0
 14 16  1  0  0  0  0
 14 17  1  0  0  0  0
 17 18  1  0  0  0  0
 17 19  1  0  0  0  0
 17 20  1  0  0  0  0
 20 21  1  0  0  0  0
 20 22  1  0  0  0  0
 22 23  1  0  0  0  0
 22 24  1  0  0  0  0
 22 25  1  0  0  0  0
 20 26  1  0  0  0  0
 26 27  1  0  0  0  0
 26 28  1  0  0  0  0
 26 29  1  0  0  0  0
M  END
> <VConfSearch Rank>
340

> <Conf_Id>
117

> <Delta U+W>
3.377

> <U+W>
-24.449

> <U>
27.947

> <W>
-52.396

> <W(PB)>
-54.842

> <W(SA)>
2.447

> <Valence>
6.731

> <Coulomb>
20.067

> <VdW>
1.149

> <VdW6>
-10.427

> <VdW12>
11.575

> <Bond>
0.324

> <Angle>
1.943

> <Pdih>
4.465

> <Idih>
0.000

> <Tether>
0.000

$$$$
VeraChem MOL file


 29 28  0  0  0  0  0  0  0  0999 V2000     
   20.4506   16.6279   27.5908 C   0  0  0  0  0  0  0  0  0  0  0  0
   21.4564   17.0404   27.7437 H   0  0  0  0  0  0  0  0  0  0  0  0
   19.7441   17.2188   28.1883 H   0  0  0  0  0  0  0  0  0  0  0  0
   20.4446   15.6013   27.9796 H   0  0  0  0  0  0  0  0  0  0  0  0
   20.0646   16.6470   26.0966 C   0  0  0  0  0  0  0  0  0  0  0  0
   19.0693   16.1980   25.9715 H   0  0  0  0  0  0  0  0  0  0  0  0
   20.7684   16.0210   25.5303 H   0  0  0  0  0  0  0  0  0  0  0  0
   20.0654   18.0816   25.5240 C   0  0  0  0  0  0  0  0  0  0  0  0
   19.3623   18.7040   26.0947 H   0  0  0  0  0  0  0  0  0  0  0  0
   21.0615   18.5269   25.6536 H   0  0  0  0  0  0  0  0  0  0  0  0
   19.6792   18.1047   24.0279 C   0  0  0  0  0  0  0  0  0  0  0  0
   18.6835   17.6578   23.8998 H   0  0  0  0  0  0  0  0  0  0  0  0
   20.3829   17.4823   23.4579 H   0  0  0  0  0  0  0  0  0  0  0  0
   19.6794   19.5402   23.4556 C   0  0  0  0  0  0  0  0  0  0  0  0
   18.9727   20.1610   24.0239 H   0  0  0  0  0  0  0  0  0  0  0  0
   20.6753   19.9819   23.5932 H   0  0  0  0  0  0  0  0  0  0  0  0
   19.2935   19.5603   21.9566 C   0  0  0  0  0  0  0  0  0  0  0  0
   18.3205   19.0659   21.8341 H   0  0  0  0  0  0  0  0  0  0  0  0
   20.0188   18.9725   21.3783 H   0  0  0  0  0  0  0  0  0  0  0  0
   19.2023   20.9885   21.3770 C   0  0  2  0  0  0  0  0  0  0  0  0
   18.4931   21.5602   21.9836 H   0  0  0  0  0  0  0  0  0  0  0  0
   18.6783   20.9467   19.9328 C   0  0  0  0  0  0  0  0  0  0  0  0
   18.5764   21.9608   19.5271 H   0  0  0  0  0  0  0  0  0  0  0  0
   19.3575   20.3839   19.2801 H   0  0  0  0  0  0  0  0  0  0  0  0
   17.6907   20.4705   19.8899 H   0  0  0  0  0  0  0  0  0  0  0  0
   20.5150   21.7204   21.4403 N   0  3  0  0  0  0  0  0  0  0  0  0
   20.8551   21.7951   22.4028 H   0  0  0  0  0  0  0  0  0  0  0  0
   20.4311   22.6716   21.0703 H   0  0  0  0  0  0  0  0  0  0  0  0
   21.2359   21.2412   20.8943 H   0  0  0  0  0  0  0  0  0  0  0  0
  1  2  1  0  0  0  0
  1  3  1  0  0  0  0
  1  4  1  0  0  0  0
  1  5  1  0  0  0  0
  5  6  1  0  0  0  0
  5  7  1  0  0  0  0
  5  8  1  0  0  0  0
  8  9  1  0  0  0  0
  8 10  1  0  0  0  0
  8 11  1  0  0  0  0
 11 12  1  0  0  0  0
 11 13  1  0  0  0  0
 11 14  1  0  0  0  0
 14 15  1  0  0  0  0
 14 16  1  0  0  0  0
 14 17  1  0  0  0  0
 17 18  1  0  0  0  0
 17 19  1  0  0  0  0
 17 20  1  0  0  0  0
 20 21  1  0  0  0  0
 20 22  1  0  0  0  0
 22 23  1  0  0  0  0
 22 24  1  0  0  0  0
 22 25  1  0  0  0  0
 20 26  1  0  0  0  0
 26 27  1  0  0  0  0
 26 28  1  0  0  0  0
 26 29  1  0  0  0  0
M  END
> <VConfSearch Rank>
341

> <Conf_Id>
164

> <Delta U+W>
0.000

> <U+W>
-27.826

> <U>
23.963

> <W>
-51.789

> <W(PB)>
-54.342

> <W(SA)>
2.554

> <Valence>
3.166

> <Coulomb>
19.734

> <VdW>
1.062

> <VdW6>
-7.938

> <VdW12>
9.001

> <Bond>
0.188

> <Angle>
0.880

> <Pdih>
2.098

> <Idih>
0.000

> <Tether>
0.000

$$$$
VeraChem MOL file


 29 28  0  0  0  0  0  0  0  0999 V2000     
   18.9713   18.5044   28.2417 C   0  0  0  0  0  0  0  0  0  0  0  0
   19.0922   19.5659   28.4942 H   0  0  0  0  0  0  0  0  0  0  0  0
   17.9019   18.3090   28.0884 H   0  0  0  0  0  0  0  0  0  0  0  0
   19.3016   17.9127   29.1053 H   0  0  0  0  0  0  0  0  0  0  0  0
   19.7879   18.1368   26.9848 C   0  0  0  0  0  0  0  0  0  0  0  0
   19.6742   17.0635   26.7772 H   0  0  0  0  0  0  0  0  0  0  0  0
   20.8554   18.3107   27.1799 H   0  0  0  0  0  0  0  0  0  0  0  0
   19.3425   18.9562   25.7536 C   0  0  0  0  0  0  0  0  0  0  0  0
   18.2744   18.7810   25.5641 H   0  0  0  0  0  0  0  0  0  0  0  0
   19.4559   20.0282   25.9666 H   0  0  0  0  0  0  0  0  0  0  0  0
   20.1581   18.5908   24.4928 C   0  0  0  0  0  0  0  0  0  0  0  0
   20.0440   17.5187   24.2802 H   0  0  0  0  0  0  0  0  0  0  0  0
   21.2259   18.7652   24.6844 H   0  0  0  0  0  0  0  0  0  0  0  0
   19.7124   19.4113   23.2613 C   0  0  0  0  0  0  0  0  0  0  0  0
   18.6431   19.2366   23.0841 H   0  0  0  0  0  0  0  0  0  0  0  0
   19.8314   20.4831   23.4723 H   0  0  0  0  0  0  0  0  0  0  0  0
   20.5280   19.0398   21.9985 C   0  0  0  0  0  0  0  0  0  0  0  0
   20.3598   17.9844   21.7461 H   0  0  0  0  0  0  0  0  0  0  0  0
   21.5966   19.1376   22.2315 H   0  0  0  0  0  0  0  0  0  0  0  0
   20.2129   19.9247   20.7708 C   0  0  2  0  0  0  0  0  0  0  0  0
   20.3470   20.9719   21.0589 H   0  0  0  0  0  0  0  0  0  0  0  0
   18.7678   19.7367   20.2751 C   0  0  0  0  0  0  0  0  0  0  0  0
   18.5648   18.6860   20.0332 H   0  0  0  0  0  0  0  0  0  0  0  0
   18.0418   20.0628   21.0287 H   0  0  0  0  0  0  0  0  0  0  0  0
   18.5883   20.3341   19.3727 H   0  0  0  0  0  0  0  0  0  0  0  0
   21.1836   19.6650   19.6525 N   0  3  0  0  0  0  0  0  0  0  0  0
   21.0035   20.2769   18.8513 H   0  0  0  0  0  0  0  0  0  0  0  0
   21.1208   18.6992   19.3193 H   0  0  0  0  0  0  0  0  0  0  0  0
   22.1509   19.8267   19.9475 H   0  0  0  0  0  0  0  0  0  0  0  0
  1  2  1  0  0  0  0
  1  3  1  0  0  0  0
  1  4  1  0  0  0  0
  1  5  1  0  0  0  0
  5  6  1  0  0  0  0
  5  7  1  0  0  0  0
  5  8  1  0  0  0  0
  8  9  1  0  0  0  0
  8 10  1  0  0  0  0
  8 11  1  0  0  0  0
 11 12  1  0  0  0  0
 11 13  1  0  0  0  0
 11 14  1  0  0  0  0
 14 15  1  0  0  0  0
 14 16  1  0  0  0  0
 14 17  1  0  0  0  0
 17 18  1  0  0  0  0
 17 19  1  0  0  0  0
 17 20  1  0  0  0  0
 20 21  1  0  0  0  0
 20 22  1  0  0  0  0
 22 23  1  0  0  0  0
 22 24  1  0  0  0  0
 22 25  1  0  0  0  0
 20 26  1  0  0  0  0
 26 27  1  0  0  0  0
 26 28  1  0  0  0  0
 26 29  1  0  0  0  0
M  END
> <VConfSearch Rank>
342

> <Conf_Id>
58

> <Delta U+W>
0.412

> <U+W>
-27.414

> <U>
24.279

> <W>
-51.694

> <W(PB)>
-54.271

> <W(SA)>
2.577

> <Valence>
3.709

> <Coulomb>
19.380

> <VdW>
1.191

> <VdW6>
-8.093

> <VdW12>
9.284

> <Bond>
0.200

> <Angle>
1.161

> <Pdih>
2.348

> <Idih>
0.000

> <Tether>
0.000

$$$$
VeraChem MOL file


 29 28  0  0  0  0  0  0  0  0999 V2000     
   17.6687   23.2028   24.5325 C   0  0  0  0  0  0  0  0  0  0  0  0
   18.4574   23.7856   24.0391 H   0  0  0  0  0  0  0  0  0  0  0  0
   16.8619   23.0360   23.8069 H   0  0  0  0  0  0  0  0  0  0  0  0
   17.2641   23.8098   25.3529 H   0  0  0  0  0  0  0  0  0  0  0  0
   18.2201   21.8637   25.0661 C   0  0  0  0  0  0  0  0  0  0  0  0
   17.4176   21.3191   25.5832 H   0  0  0  0  0  0  0  0  0  0  0  0
   19.0009   22.0629   25.8135 H   0  0  0  0  0  0  0  0  0  0  0  0
   18.7961   20.9893   23.9305 C   0  0  0  0  0  0  0  0  0  0  0  0
   18.0127   20.7947   23.1850 H   0  0  0  0  0  0  0  0  0  0  0  0
   19.5960   21.5388   23.4152 H   0  0  0  0  0  0  0  0  0  0  0  0
   19.3496   19.6476   24.4612 C   0  0  0  0  0  0  0  0  0  0  0  0
   18.5489   19.0994   24.9768 H   0  0  0  0  0  0  0  0  0  0  0  0
   20.1325   19.8434   25.2069 H   0  0  0  0  0  0  0  0  0  0  0  0
   19.9260   18.7730   23.3249 C   0  0  0  0  0  0  0  0  0  0  0  0
   19.1394   18.5824   22.5828 H   0  0  0  0  0  0  0  0  0  0  0  0
   20.7211   19.3309   22.8131 H   0  0  0  0  0  0  0  0  0  0  0  0
   20.4828   17.4297   23.8642 C   0  0  0  0  0  0  0  0  0  0  0  0
   19.6905   16.9065   24.4155 H   0  0  0  0  0  0  0  0  0  0  0  0
   21.2759   17.6332   24.5958 H   0  0  0  0  0  0  0  0  0  0  0  0
   21.0382   16.4732   22.7826 C   0  0  2  0  0  0  0  0  0  0  0  0
   21.3660   15.5617   23.2920 H   0  0  0  0  0  0  0  0  0  0  0  0
   22.2595   17.0656   22.0579 C   0  0  0  0  0  0  0  0  0  0  0  0
   22.7134   16.3169   21.3972 H   0  0  0  0  0  0  0  0  0  0  0  0
   21.9862   17.9318   21.4438 H   0  0  0  0  0  0  0  0  0  0  0  0
   23.0247   17.3814   22.7778 H   0  0  0  0  0  0  0  0  0  0  0  0
   19.9841   16.0449   21.7992 N   0  3  0  0  0  0  0  0  0  0  0  0
   19.1863   15.6087   22.2704 H   0  0  0  0  0  0  0  0  0  0  0  0
   20.3528   15.3648   21.1282 H   0  0  0  0  0  0  0  0  0  0  0  0
   19.6291   16.8419   21.2651 H   0  0  0  0  0  0  0  0  0  0  0  0
  1  2  1  0  0  0  0
  1  3  1  0  0  0  0
  1  4  1  0  0  0  0
  1  5  1  0  0  0  0
  5  6  1  0  0  0  0
  5  7  1  0  0  0  0
  5  8  1  0  0  0  0
  8  9  1  0  0  0  0
  8 10  1  0  0  0  0
  8 11  1  0  0  0  0
 11 12  1  0  0  0  0
 11 13  1  0  0  0  0
 11 14  1  0  0  0  0
 14 15  1  0  0  0  0
 14 16  1  0  0  0  0
 14 17  1  0  0  0  0
 17 18  1  0  0  0  0
 17 19  1  0  0  0  0
 17 20  1  0  0  0  0
 20 21  1  0  0  0  0
 20 22  1  0  0  0  0
 22 23  1  0  0  0  0
 22 24  1  0  0  0  0
 22 25  1  0  0  0  0
 20 26  1  0  0  0  0
 26 27  1  0  0  0  0
 26 28  1  0  0  0  0
 26 29  1  0  0  0  0
M  END
> <VConfSearch Rank>
343

> <Conf_Id>
137

> <Delta U+W>
0.280

> <U+W>
-27.546

> <U>
24.513

> <W>
-52.059

> <W(PB)>
-54.556

> <W(SA)>
2.497

> <Valence>
3.677

> <Coulomb>
19.662

> <VdW>
1.174

> <VdW6>
-8.569

> <VdW12>
9.743

> <Bond>
0.224

> <Angle>
1.211

> <Pdih>
2.243

> <Idih>
0.000

> <Tether>
0.000

$$$$
VeraChem MOL file


 29 28  0  0  0  0  0  0  0  0999 V2000     
   16.6184   21.6584   21.5756 C   0  0  0  0  0  0  0  0  0  0  0  0
   17.3656   22.4472   21.7323 H   0  0  0  0  0  0  0  0  0  0  0  0
   16.7767   21.2308   20.5769 H   0  0  0  0  0  0  0  0  0  0  0  0
   15.6258   22.1270   21.5882 H   0  0  0  0  0  0  0  0  0  0  0  0
   16.7217   20.5717   22.6667 C   0  0  0  0  0  0  0  0  0  0  0  0
   15.9404   19.8163   22.5033 H   0  0  0  0  0  0  0  0  0  0  0  0
   16.5266   21.0224   23.6500 H   0  0  0  0  0  0  0  0  0  0  0  0
   18.1102   19.8947   22.6701 C   0  0  0  0  0  0  0  0  0  0  0  0
   18.2994   19.4438   21.6862 H   0  0  0  0  0  0  0  0  0  0  0  0
   18.8801   20.6618   22.8238 H   0  0  0  0  0  0  0  0  0  0  0  0
   18.2157   18.8079   23.7671 C   0  0  0  0  0  0  0  0  0  0  0  0
   17.3849   18.0991   23.6456 H   0  0  0  0  0  0  0  0  0  0  0  0
   18.0870   19.2659   24.7575 H   0  0  0  0  0  0  0  0  0  0  0  0
   19.5441   18.0123   23.7314 C   0  0  0  0  0  0  0  0  0  0  0  0
   19.4548   17.1794   24.4405 H   0  0  0  0  0  0  0  0  0  0  0  0
   19.6758   17.5610   22.7383 H   0  0  0  0  0  0  0  0  0  0  0  0
   20.7884   18.8669   24.0876 C   0  0  0  0  0  0  0  0  0  0  0  0
   20.6614   19.3093   25.0846 H   0  0  0  0  0  0  0  0  0  0  0  0
   20.8615   19.7033   23.3823 H   0  0  0  0  0  0  0  0  0  0  0  0
   22.1192   18.0817   24.0333 C   0  0  2  0  0  0  0  0  0  0  0  0
   22.1942   17.6003   23.0533 H   0  0  0  0  0  0  0  0  0  0  0  0
   22.1994   16.9935   25.1192 C   0  0  0  0  0  0  0  0  0  0  0  0
   22.0602   17.4207   26.1202 H   0  0  0  0  0  0  0  0  0  0  0  0
   21.4392   16.2190   24.9667 H   0  0  0  0  0  0  0  0  0  0  0  0
   23.1766   16.4957   25.0953 H   0  0  0  0  0  0  0  0  0  0  0  0
   23.2987   19.0078   24.1414 N   0  3  0  0  0  0  0  0  0  0  0  0
   23.2924   19.7150   23.4006 H   0  0  0  0  0  0  0  0  0  0  0  0
   24.1832   18.4970   24.0669 H   0  0  0  0  0  0  0  0  0  0  0  0
   23.3057   19.5013   25.0382 H   0  0  0  0  0  0  0  0  0  0  0  0
  1  2  1  0  0  0  0
  1  3  1  0  0  0  0
  1  4  1  0  0  0  0
  1  5  1  0  0  0  0
  5  6  1  0  0  0  0
  5  7  1  0  0  0  0
  5  8  1  0  0  0  0
  8  9  1  0  0  0  0
  8 10  1  0  0  0  0
  8 11  1  0  0  0  0
 11 12  1  0  0  0  0
 11 13  1  0  0  0  0
 11 14  1  0  0  0  0
 14 15  1  0  0  0  0
 14 16  1  0  0  0  0
 14 17  1  0  0  0  0
 17 18  1  0  0  0  0
 17 19  1  0  0  0  0
 17 20  1  0  0  0  0
 20 21  1  0  0  0  0
 20 22  1  0  0  0  0
 22 23  1  0  0  0  0
 22 24  1  0  0  0  0
 22 25  1  0  0  0  0
 20 26  1  0  0  0  0
 26 27  1  0  0  0  0
 26 28  1  0  0  0  0
 26 29  1  0  0  0  0
M  END
> <VConfSearch Rank>
344

> <Conf_Id>
40

> <Delta U+W>
1.128

> <U+W>
-26.698

> <U>
25.442

> <W>
-52.140

> <W(PB)>
-54.658

> <W(SA)>
2.519

> <Valence>
4.343

> <Coulomb>
19.740

> <VdW>
1.360

> <VdW6>
-8.739

> <VdW12>
10.099

> <Bond>
0.251

> <Angle>
1.483

> <Pdih>
2.608

> <Idih>
0.000

> <Tether>
0.000

$$$$
VeraChem MOL file


 29 28  0  0  0  0  0  0  0  0999 V2000     
   23.7349   18.7731   21.7328 C   0  0  0  0  0  0  0  0  0  0  0  0
   23.0837   18.6275   20.8623 H   0  0  0  0  0  0  0  0  0  0  0  0
   23.9438   19.8463   21.8315 H   0  0  0  0  0  0  0  0  0  0  0  0
   24.6845   18.2645   21.5220 H   0  0  0  0  0  0  0  0  0  0  0  0
   23.0957   18.2104   23.0227 C   0  0  0  0  0  0  0  0  0  0  0  0
   23.8354   18.2626   23.8338 H   0  0  0  0  0  0  0  0  0  0  0  0
   22.8638   17.1448   22.8867 H   0  0  0  0  0  0  0  0  0  0  0  0
   21.8222   18.9714   23.4647 C   0  0  0  0  0  0  0  0  0  0  0  0
   21.5282   18.5920   24.4514 H   0  0  0  0  0  0  0  0  0  0  0  0
   22.0596   20.0356   23.5992 H   0  0  0  0  0  0  0  0  0  0  0  0
   20.6388   18.8198   22.4751 C   0  0  0  0  0  0  0  0  0  0  0  0
   20.3973   17.7560   22.3448 H   0  0  0  0  0  0  0  0  0  0  0  0
   20.9416   19.1907   21.4876 H   0  0  0  0  0  0  0  0  0  0  0  0
   19.3667   19.5925   22.9038 C   0  0  0  0  0  0  0  0  0  0  0  0
   19.6137   20.6527   23.0529 H   0  0  0  0  0  0  0  0  0  0  0  0
   18.6529   19.5560   22.0705 H   0  0  0  0  0  0  0  0  0  0  0  0
   18.6963   19.0261   24.1823 C   0  0  0  0  0  0  0  0  0  0  0  0
   19.4004   19.0888   25.0208 H   0  0  0  0  0  0  0  0  0  0  0  0
   18.4679   17.9612   24.0417 H   0  0  0  0  0  0  0  0  0  0  0  0
   17.4093   19.7849   24.5732 C   0  0  2  0  0  0  0  0  0  0  0  0
   17.6538   20.8471   24.6712 H   0  0  0  0  0  0  0  0  0  0  0  0
   16.8843   19.2837   25.9281 C   0  0  0  0  0  0  0  0  0  0  0  0
   15.9896   19.8426   26.2288 H   0  0  0  0  0  0  0  0  0  0  0  0
   16.6234   18.2188   25.8834 H   0  0  0  0  0  0  0  0  0  0  0  0
   17.6392   19.4178   26.7129 H   0  0  0  0  0  0  0  0  0  0  0  0
   16.3363   19.6819   23.5238 N   0  3  0  0  0  0  0  0  0  0  0  0
   16.0553   18.7095   23.3722 H   0  0  0  0  0  0  0  0  0  0  0  0
   16.6545   20.0551   22.6255 H   0  0  0  0  0  0  0  0  0  0  0  0
   15.4983   20.2051   23.7932 H   0  0  0  0  0  0  0  0  0  0  0  0
  1  2  1  0  0  0  0
  1  3  1  0  0  0  0
  1  4  1  0  0  0  0
  1  5  1  0  0  0  0
  5  6  1  0  0  0  0
  5  7  1  0  0  0  0
  5  8  1  0  0  0  0
  8  9  1  0  0  0  0
  8 10  1  0  0  0  0
  8 11  1  0  0  0  0
 11 12  1  0  0  0  0
 11 13  1  0  0  0  0
 11 14  1  0  0  0  0
 14 15  1  0  0  0  0
 14 16  1  0  0  0  0
 14 17  1  0  0  0  0
 17 18  1  0  0  0  0
 17 19  1  0  0  0  0
 17 20  1  0  0  0  0
 20 21  1  0  0  0  0
 20 22  1  0  0  0  0
 22 23  1  0  0  0  0
 22 24  1  0  0  0  0
 22 25  1  0  0  0  0
 20 26  1  0  0  0  0
 26 27  1  0  0  0  0
 26 28  1  0  0  0  0
 26 29  1  0  0  0  0
M  END
> <VConfSearch Rank>
345

> <Conf_Id>
134

> <Delta U+W>
1.228

> <U+W>
-26.598

> <U>
25.451

> <W>
-52.048

> <W(PB)>
-54.539

> <W(SA)>
2.490

> <Valence>
4.319

> <Coulomb>
19.732

> <VdW>
1.400

> <VdW6>
-9.173

> <VdW12>
10.573

> <Bond>
0.281

> <Angle>
1.459

> <Pdih>
2.580

> <Idih>
0.000

> <Tether>
0.000

$$$$
VeraChem MOL file


 29 28  0  0  0  0  0  0  0  0999 V2000     
   16.8527   18.0125   20.5247 C   0  0  0  0  0  0  0  0  0  0  0  0
   17.6848   17.3826   20.1870 H   0  0  0  0  0  0  0  0  0  0  0  0
   16.2719   17.4482   21.2657 H   0  0  0  0  0  0  0  0  0  0  0  0
   16.2044   18.1938   19.6576 H   0  0  0  0  0  0  0  0  0  0  0  0
   17.3542   19.3507   21.1134 C   0  0  0  0  0  0  0  0  0  0  0  0
   16.4863   19.9938   21.3156 H   0  0  0  0  0  0  0  0  0  0  0  0
   17.9611   19.8800   20.3655 H   0  0  0  0  0  0  0  0  0  0  0  0
   18.1633   19.1854   22.4226 C   0  0  0  0  0  0  0  0  0  0  0  0
   18.3548   20.1859   22.8309 H   0  0  0  0  0  0  0  0  0  0  0  0
   17.5517   18.6578   23.1673 H   0  0  0  0  0  0  0  0  0  0  0  0
   19.5080   18.4400   22.2265 C   0  0  0  0  0  0  0  0  0  0  0  0
   20.1200   18.9685   21.4829 H   0  0  0  0  0  0  0  0  0  0  0  0
   19.3154   17.4412   21.8143 H   0  0  0  0  0  0  0  0  0  0  0  0
   20.3152   18.2687   23.5370 C   0  0  0  0  0  0  0  0  0  0  0  0
   19.7010   17.7260   24.2676 H   0  0  0  0  0  0  0  0  0  0  0  0
   21.1857   17.6315   23.3280 H   0  0  0  0  0  0  0  0  0  0  0  0
   20.8070   19.6096   24.1407 C   0  0  0  0  0  0  0  0  0  0  0  0
   19.9526   20.2022   24.4912 H   0  0  0  0  0  0  0  0  0  0  0  0
   21.2906   20.1946   23.3474 H   0  0  0  0  0  0  0  0  0  0  0  0
   21.8126   19.4324   25.3009 C   0  0  2  0  0  0  0  0  0  0  0  0
   22.6407   18.8114   24.9456 H   0  0  0  0  0  0  0  0  0  0  0  0
   21.1741   18.7424   26.5196 C   0  0  0  0  0  0  0  0  0  0  0  0
   20.2994   19.2994   26.8779 H   0  0  0  0  0  0  0  0  0  0  0  0
   20.8564   17.7214   26.2783 H   0  0  0  0  0  0  0  0  0  0  0  0
   21.8937   18.6717   27.3445 H   0  0  0  0  0  0  0  0  0  0  0  0
   22.4136   20.7501   25.7043 N   0  3  0  0  0  0  0  0  0  0  0  0
   22.8822   21.2077   24.9169 H   0  0  0  0  0  0  0  0  0  0  0  0
   23.1098   20.6321   26.4460 H   0  0  0  0  0  0  0  0  0  0  0  0
   21.7002   21.3950   26.0549 H   0  0  0  0  0  0  0  0  0  0  0  0
  1  2  1  0  0  0  0
  1  3  1  0  0  0  0
  1  4  1  0  0  0  0
  1  5  1  0  0  0  0
  5  6  1  0  0  0  0
  5  7  1  0  0  0  0
  5  8  1  0  0  0  0
  8  9  1  0  0  0  0
  8 10  1  0  0  0  0
  8 11  1  0  0  0  0
 11 12  1  0  0  0  0
 11 13  1  0  0  0  0
 11 14  1  0  0  0  0
 14 15  1  0  0  0  0
 14 16  1  0  0  0  0
 14 17  1  0  0  0  0
 17 18  1  0  0  0  0
 17 19  1  0  0  0  0
 17 20  1  0  0  0  0
 20 21  1  0  0  0  0
 20 22  1  0  0  0  0
 22 23  1  0  0  0  0
 22 24  1  0  0  0  0
 22 25  1  0  0  0  0
 20 26  1  0  0  0  0
 26 27  1  0  0  0  0
 26 28  1  0  0  0  0
 26 29  1  0  0  0  0
M  END
> <VConfSearch Rank>
346

> <Conf_Id>
73

> <Delta U+W>
1.580

> <U+W>
-26.246

> <U>
25.821

> <W>
-52.067

> <W(PB)>
-54.581

> <W(SA)>
2.514

> <Valence>
4.779

> <Coulomb>
19.614

> <VdW>
1.428

> <VdW6>
-9.390

> <VdW12>
10.818

> <Bond>
0.283

> <Angle>
1.640

> <Pdih>
2.856

> <Idih>
0.000

> <Tether>
0.000

$$$$
VeraChem MOL file


 29 28  0  0  0  0  0  0  0  0999 V2000     
   17.4665   15.6574   25.1285 C   0  0  0  0  0  0  0  0  0  0  0  0
   17.3897   16.3150   26.0042 H   0  0  0  0  0  0  0  0  0  0  0  0
   16.5722   15.0212   25.1052 H   0  0  0  0  0  0  0  0  0  0  0  0
   18.3399   15.0063   25.2651 H   0  0  0  0  0  0  0  0  0  0  0  0
   17.5851   16.4783   23.8269 C   0  0  0  0  0  0  0  0  0  0  0  0
   16.6837   17.0943   23.7008 H   0  0  0  0  0  0  0  0  0  0  0  0
   17.6248   15.7945   22.9675 H   0  0  0  0  0  0  0  0  0  0  0  0
   18.8375   17.3826   23.8332 C   0  0  0  0  0  0  0  0  0  0  0  0
   18.7893   18.0524   24.7015 H   0  0  0  0  0  0  0  0  0  0  0  0
   19.7358   16.7622   23.9568 H   0  0  0  0  0  0  0  0  0  0  0  0
   18.9543   18.2098   22.5302 C   0  0  0  0  0  0  0  0  0  0  0  0
   18.0852   18.8751   22.4338 H   0  0  0  0  0  0  0  0  0  0  0  0
   18.9159   17.5266   21.6704 H   0  0  0  0  0  0  0  0  0  0  0  0
   20.2575   19.0410   22.4353 C   0  0  0  0  0  0  0  0  0  0  0  0
   21.1260   18.3743   22.5288 H   0  0  0  0  0  0  0  0  0  0  0  0
   20.3090   19.4762   21.4287 H   0  0  0  0  0  0  0  0  0  0  0  0
   20.3498   20.1707   23.4933 C   0  0  0  0  0  0  0  0  0  0  0  0
   20.3242   19.7302   24.4976 H   0  0  0  0  0  0  0  0  0  0  0  0
   19.4726   20.8265   23.4145 H   0  0  0  0  0  0  0  0  0  0  0  0
   21.6390   21.0112   23.3653 C   0  0  2  0  0  0  0  0  0  0  0  0
   22.4966   20.3329   23.4100 H   0  0  0  0  0  0  0  0  0  0  0  0
   21.7476   22.0040   24.5337 C   0  0  0  0  0  0  0  0  0  0  0  0
   21.7507   21.4760   25.4954 H   0  0  0  0  0  0  0  0  0  0  0  0
   22.6787   22.5805   24.4681 H   0  0  0  0  0  0  0  0  0  0  0  0
   20.9076   22.7100   24.5341 H   0  0  0  0  0  0  0  0  0  0  0  0
   21.7276   21.7363   22.0502 N   0  3  0  0  0  0  0  0  0  0  0  0
   22.5964   22.2735   21.9771 H   0  0  0  0  0  0  0  0  0  0  0  0
   20.9507   22.3921   21.9329 H   0  0  0  0  0  0  0  0  0  0  0  0
   21.7035   21.0847   21.2613 H   0  0  0  0  0  0  0  0  0  0  0  0
  1  2  1  0  0  0  0
  1  3  1  0  0  0  0
  1  4  1  0  0  0  0
  1  5  1  0  0  0  0
  5  6  1  0  0  0  0
  5  7  1  0  0  0  0
  5  8  1  0  0  0  0
  8  9  1  0  0  0  0
  8 10  1  0  0  0  0
  8 11  1  0  0  0  0
 11 12  1  0  0  0  0
 11 13  1  0  0  0  0
 11 14  1  0  0  0  0
 14 15  1  0  0  0  0
 14 16  1  0  0  0  0
 14 17  1  0  0  0  0
 17 18  1  0  0  0  0
 17 19  1  0  0  0  0
 17 20  1  0  0  0  0
 20 21  1  0  0  0  0
 20 22  1  0  0  0  0
 22 23  1  0  0  0  0
 22 24  1  0  0  0  0
 22 25  1  0  0  0  0
 20 26  1  0  0  0  0
 26 27  1  0  0  0  0
 26 28  1  0  0  0  0
 26 29  1  0  0  0  0
M  END
> <VConfSearch Rank>
347

> <Conf_Id>
111

> <Delta U+W>
0.580

> <U+W>
-27.246

> <U>
24.710

> <W>
-51.957

> <W(PB)>
-54.511

> <W(SA)>
2.555

> <Valence>
3.735

> <Coulomb>
19.760

> <VdW>
1.216

> <VdW6>
-8.624

> <VdW12>
9.840

> <Bond>
0.236

> <Angle>
1.168

> <Pdih>
2.330

> <Idih>
0.000

> <Tether>
0.000

$$$$
VeraChem MOL file


 29 28  0  0  0  0  0  0  0  0999 V2000     
   21.9488   22.4978   25.1139 C   0  0  0  0  0  0  0  0  0  0  0  0
   22.1206   21.9906   26.0723 H   0  0  0  0  0  0  0  0  0  0  0  0
   22.6976   22.1369   24.3968 H   0  0  0  0  0  0  0  0  0  0  0  0
   22.1179   23.5718   25.2658 H   0  0  0  0  0  0  0  0  0  0  0  0
   20.5172   22.2392   24.5985 C   0  0  0  0  0  0  0  0  0  0  0  0
   20.3644   22.7851   23.6569 H   0  0  0  0  0  0  0  0  0  0  0  0
   19.7922   22.6417   25.3198 H   0  0  0  0  0  0  0  0  0  0  0  0
   20.2525   20.7336   24.3769 C   0  0  0  0  0  0  0  0  0  0  0  0
   20.9881   20.3423   23.6620 H   0  0  0  0  0  0  0  0  0  0  0  0
   20.4046   20.1925   25.3209 H   0  0  0  0  0  0  0  0  0  0  0  0
   18.8186   20.4734   23.8562 C   0  0  0  0  0  0  0  0  0  0  0  0
   18.6805   20.9708   22.8863 H   0  0  0  0  0  0  0  0  0  0  0  0
   18.0981   20.9358   24.5450 H   0  0  0  0  0  0  0  0  0  0  0  0
   18.4739   18.9698   23.7225 C   0  0  0  0  0  0  0  0  0  0  0  0
   18.5843   18.4887   24.7033 H   0  0  0  0  0  0  0  0  0  0  0  0
   17.4138   18.8781   23.4483 H   0  0  0  0  0  0  0  0  0  0  0  0
   19.3347   18.2324   22.6645 C   0  0  0  0  0  0  0  0  0  0  0  0
   20.3815   18.1924   22.9913 H   0  0  0  0  0  0  0  0  0  0  0  0
   19.3187   18.8136   21.7332 H   0  0  0  0  0  0  0  0  0  0  0  0
   18.8424   16.8000   22.3566 C   0  0  2  0  0  0  0  0  0  0  0  0
   17.7886   16.8542   22.0667 H   0  0  0  0  0  0  0  0  0  0  0  0
   18.9648   15.8711   23.5777 C   0  0  0  0  0  0  0  0  0  0  0  0
   19.9984   15.8305   23.9435 H   0  0  0  0  0  0  0  0  0  0  0  0
   18.3220   16.2068   24.3998 H   0  0  0  0  0  0  0  0  0  0  0  0
   18.6550   14.8509   23.3196 H   0  0  0  0  0  0  0  0  0  0  0  0
   19.5758   16.2149   21.1818 N   0  3  0  0  0  0  0  0  0  0  0  0
   19.4718   16.7959   20.3449 H   0  0  0  0  0  0  0  0  0  0  0  0
   19.2252   15.2812   20.9496 H   0  0  0  0  0  0  0  0  0  0  0  0
   20.5776   16.1263   21.3725 H   0  0  0  0  0  0  0  0  0  0  0  0
  1  2  1  0  0  0  0
  1  3  1  0  0  0  0
  1  4  1  0  0  0  0
  1  5  1  0  0  0  0
  5  6  1  0  0  0  0
  5  7  1  0  0  0  0
  5  8  1  0  0  0  0
  8  9  1  0  0  0  0
  8 10  1  0  0  0  0
  8 11  1  0  0  0  0
 11 12  1  0  0  0  0
 11 13  1  0  0  0  0
 11 14  1  0  0  0  0
 14 15  1  0  0  0  0
 14 16  1  0  0  0  0
 14 17  1  0  0  0  0
 17 18  1  0  0  0  0
 17 19  1  0  0  0  0
 17 20  1  0  0  0  0
 20 21  1  0  0  0  0
 20 22  1  0  0  0  0
 22 23  1  0  0  0  0
 22 24  1  0  0  0  0
 22 25  1  0  0  0  0
 20 26  1  0  0  0  0
 26 27  1  0  0  0  0
 26 28  1  0  0  0  0
 26 29  1  0  0  0  0
M  END
> <VConfSearch Rank>
348

> <Conf_Id>
39

> <Delta U+W>
0.965

> <U+W>
-26.861

> <U>
25.129

> <W>
-51.990

> <W(PB)>
-54.526

> <W(SA)>
2.536

> <Valence>
4.206

> <Coulomb>
19.678

> <VdW>
1.245

> <VdW6>
-8.834

> <VdW12>
10.079

> <Bond>
0.240

> <Angle>
1.353

> <Pdih>
2.613

> <Idih>
0.000

> <Tether>
0.000

$$$$
VeraChem MOL file


 29 28  0  0  0  0  0  0  0  0999 V2000     
   15.6303   18.0602   23.7657 C   0  0  0  0  0  0  0  0  0  0  0  0
   15.5365   18.6217   24.7043 H   0  0  0  0  0  0  0  0  0  0  0  0
   15.6455   18.7770   22.9356 H   0  0  0  0  0  0  0  0  0  0  0  0
   14.7291   17.4440   23.6519 H   0  0  0  0  0  0  0  0  0  0  0  0
   16.8948   17.1713   23.7738 C   0  0  0  0  0  0  0  0  0  0  0  0
   16.9854   16.6475   22.8120 H   0  0  0  0  0  0  0  0  0  0  0  0
   16.7719   16.3913   24.5381 H   0  0  0  0  0  0  0  0  0  0  0  0
   18.1979   17.9528   24.0694 C   0  0  0  0  0  0  0  0  0  0  0  0
   18.1025   18.4738   25.0319 H   0  0  0  0  0  0  0  0  0  0  0  0
   19.0091   17.2237   24.1902 H   0  0  0  0  0  0  0  0  0  0  0  0
   18.5735   18.9676   22.9596 C   0  0  0  0  0  0  0  0  0  0  0  0
   17.7569   19.6904   22.8354 H   0  0  0  0  0  0  0  0  0  0  0  0
   18.6733   18.4460   21.9979 H   0  0  0  0  0  0  0  0  0  0  0  0
   19.8703   19.7599   23.2581 C   0  0  0  0  0  0  0  0  0  0  0  0
   19.9750   20.5409   22.4938 H   0  0  0  0  0  0  0  0  0  0  0  0
   19.7599   20.2792   24.2193 H   0  0  0  0  0  0  0  0  0  0  0  0
   21.1466   18.8746   23.2712 C   0  0  0  0  0  0  0  0  0  0  0  0
   21.1816   18.2767   22.3512 H   0  0  0  0  0  0  0  0  0  0  0  0
   21.0909   18.1566   24.0986 H   0  0  0  0  0  0  0  0  0  0  0  0
   22.4760   19.6553   23.3988 C   0  0  2  0  0  0  0  0  0  0  0  0
   23.2869   18.9203   23.3874 H   0  0  0  0  0  0  0  0  0  0  0  0
   22.5666   20.4282   24.7261 C   0  0  0  0  0  0  0  0  0  0  0  0
   21.8384   21.2469   24.7686 H   0  0  0  0  0  0  0  0  0  0  0  0
   22.3852   19.7617   25.5784 H   0  0  0  0  0  0  0  0  0  0  0  0
   23.5663   20.8621   24.8499 H   0  0  0  0  0  0  0  0  0  0  0  0
   22.7235   20.5654   22.2274 N   0  3  0  0  0  0  0  0  0  0  0  0
   22.7075   20.0506   21.3422 H   0  0  0  0  0  0  0  0  0  0  0  0
   23.6356   21.0256   22.2974 H   0  0  0  0  0  0  0  0  0  0  0  0
   22.0130   21.2991   22.1704 H   0  0  0  0  0  0  0  0  0  0  0  0
  1  2  1  0  0  0  0
  1  3  1  0  0  0  0
  1  4  1  0  0  0  0
  1  5  1  0  0  0  0
  5  6  1  0  0  0  0
  5  7  1  0  0  0  0
  5  8  1  0  0  0  0
  8  9  1  0  0  0  0
  8 10  1  0  0  0  0
  8 11  1  0  0  0  0
 11 12  1  0  0  0  0
 11 13  1  0  0  0  0
 11 14  1  0  0  0  0
 14 15  1  0  0  0  0
 14 16  1  0  0  0  0
 14 17  1  0  0  0  0
 17 18  1  0  0  0  0
 17 19  1  0  0  0  0
 17 20  1  0  0  0  0
 20 21  1  0  0  0  0
 20 22  1  0  0  0  0
 22 23  1  0  0  0  0
 22 24  1  0  0  0  0
 22 25  1  0  0  0  0
 20 26  1  0  0  0  0
 26 27  1  0  0  0  0
 26 28  1  0  0  0  0
 26 29  1  0  0  0  0
M  END
> <VConfSearch Rank>
349

> <Conf_Id>
155

> <Delta U+W>
1.624

> <U+W>
-26.202

> <U>
25.894

> <W>
-52.096

> <W(PB)>
-54.602

> <W(SA)>
2.506

> <Valence>
4.779

> <Coulomb>
19.659

> <VdW>
1.456

> <VdW6>
-9.843

> <VdW12>
11.299

> <Bond>
0.315

> <Angle>
1.725

> <Pdih>
2.740

> <Idih>
0.000

> <Tether>
0.000

$$$$
VeraChem MOL file


 29 28  0  0  0  0  0  0  0  0999 V2000     
   23.2260   17.2348   24.4738 C   0  0  0  0  0  0  0  0  0  0  0  0
   22.9153   17.7087   25.4132 H   0  0  0  0  0  0  0  0  0  0  0  0
   22.5753   16.3695   24.2929 H   0  0  0  0  0  0  0  0  0  0  0  0
   24.2490   16.8624   24.6143 H   0  0  0  0  0  0  0  0  0  0  0  0
   23.1698   18.2288   23.2917 C   0  0  0  0  0  0  0  0  0  0  0  0
   23.5975   17.7463   22.4018 H   0  0  0  0  0  0  0  0  0  0  0  0
   23.8085   19.0966   23.5079 H   0  0  0  0  0  0  0  0  0  0  0  0
   21.7352   18.7043   22.9586 C   0  0  0  0  0  0  0  0  0  0  0  0
   21.7743   19.3232   22.0516 H   0  0  0  0  0  0  0  0  0  0  0  0
   21.1175   17.8306   22.7136 H   0  0  0  0  0  0  0  0  0  0  0  0
   21.0793   19.5198   24.1016 C   0  0  0  0  0  0  0  0  0  0  0  0
   21.7758   20.3067   24.4223 H   0  0  0  0  0  0  0  0  0  0  0  0
   20.9142   18.8771   24.9766 H   0  0  0  0  0  0  0  0  0  0  0  0
   19.7403   20.1861   23.6993 C   0  0  0  0  0  0  0  0  0  0  0  0
   19.4324   20.8439   24.5220 H   0  0  0  0  0  0  0  0  0  0  0  0
   19.8997   20.8348   22.8269 H   0  0  0  0  0  0  0  0  0  0  0  0
   18.6102   19.1682   23.3955 C   0  0  0  0  0  0  0  0  0  0  0  0
   18.4428   18.5277   24.2715 H   0  0  0  0  0  0  0  0  0  0  0  0
   18.9344   18.5069   22.5830 H   0  0  0  0  0  0  0  0  0  0  0  0
   17.2773   19.8263   22.9703 C   0  0  2  0  0  0  0  0  0  0  0  0
   17.4802   20.5050   22.1361 H   0  0  0  0  0  0  0  0  0  0  0  0
   16.6355   20.6347   24.1124 C   0  0  0  0  0  0  0  0  0  0  0  0
   16.4752   20.0096   24.9997 H   0  0  0  0  0  0  0  0  0  0  0  0
   17.2613   21.4870   24.4004 H   0  0  0  0  0  0  0  0  0  0  0  0
   15.6641   21.0381   23.8011 H   0  0  0  0  0  0  0  0  0  0  0  0
   16.3073   18.7997   22.4548 N   0  3  0  0  0  0  0  0  0  0  0  0
   16.6951   18.2782   21.6632 H   0  0  0  0  0  0  0  0  0  0  0  0
   15.4370   19.2349   22.1355 H   0  0  0  0  0  0  0  0  0  0  0  0
   16.0610   18.1206   23.1800 H   0  0  0  0  0  0  0  0  0  0  0  0
  1  2  1  0  0  0  0
  1  3  1  0  0  0  0
  1  4  1  0  0  0  0
  1  5  1  0  0  0  0
  5  6  1  0  0  0  0
  5  7  1  0  0  0  0
  5  8  1  0  0  0  0
  8  9  1  0  0  0  0
  8 10  1  0  0  0  0
  8 11  1  0  0  0  0
 11 12  1  0  0  0  0
 11 13  1  0  0  0  0
 11 14  1  0  0  0  0
 14 15  1  0  0  0  0
 14 16  1  0  0  0  0
 14 17  1  0  0  0  0
 17 18  1  0  0  0  0
 17 19  1  0  0  0  0
 17 20  1  0  0  0  0
 20 21  1  0  0  0  0
 20 22  1  0  0  0  0
 22 23  1  0  0  0  0
 22 24  1  0  0  0  0
 22 25  1  0  0  0  0
 20 26  1  0  0  0  0
 26 27  1  0  0  0  0
 26 28  1  0  0  0  0
 26 29  1  0  0  0  0
M  END
> <VConfSearch Rank>
350

> <Conf_Id>
135

> <Delta U+W>
1.581

> <U+W>
-26.245

> <U>
25.974

> <W>
-52.219

> <W(PB)>
-54.709

> <W(SA)>
2.490

> <Valence>
4.811

> <Coulomb>
19.700

> <VdW>
1.463

> <VdW6>
-9.391

> <VdW12>
10.854

> <Bond>
0.285

> <Angle>
1.671

> <Pdih>
2.855

> <Idih>
0.000

> <Tether>
0.000

$$$$
VeraChem MOL file


 29 28  0  0  0  0  0  0  0  0999 V2000     
   17.9562   17.3608   20.3314 C   0  0  0  0  0  0  0  0  0  0  0  0
   19.0141   17.2790   20.0502 H   0  0  0  0  0  0  0  0  0  0  0  0
   17.7528   16.6286   21.1227 H   0  0  0  0  0  0  0  0  0  0  0  0
   17.3537   17.0791   19.4582 H   0  0  0  0  0  0  0  0  0  0  0  0
   17.6116   18.7971   20.7859 C   0  0  0  0  0  0  0  0  0  0  0  0
   16.5557   18.8463   21.0865 H   0  0  0  0  0  0  0  0  0  0  0  0
   17.7191   19.4759   19.9283 H   0  0  0  0  0  0  0  0  0  0  0  0
   18.5088   19.3071   21.9391 C   0  0  0  0  0  0  0  0  0  0  0  0
   19.5578   19.2809   21.6160 H   0  0  0  0  0  0  0  0  0  0  0  0
   18.2676   20.3621   22.1290 H   0  0  0  0  0  0  0  0  0  0  0  0
   18.3358   18.5033   23.2525 C   0  0  0  0  0  0  0  0  0  0  0  0
   18.6855   17.4720   23.1117 H   0  0  0  0  0  0  0  0  0  0  0  0
   17.2661   18.4376   23.4945 H   0  0  0  0  0  0  0  0  0  0  0  0
   19.0756   19.1318   24.4586 C   0  0  0  0  0  0  0  0  0  0  0  0
   18.6947   20.1485   24.6223 H   0  0  0  0  0  0  0  0  0  0  0  0
   18.8248   18.5564   25.3605 H   0  0  0  0  0  0  0  0  0  0  0  0
   20.6164   19.1579   24.2877 C   0  0  0  0  0  0  0  0  0  0  0  0
   20.8934   19.8376   23.4718 H   0  0  0  0  0  0  0  0  0  0  0  0
   20.9524   18.1562   23.9891 H   0  0  0  0  0  0  0  0  0  0  0  0
   21.3740   19.5666   25.5713 C   0  0  2  0  0  0  0  0  0  0  0  0
   21.0592   18.9023   26.3819 H   0  0  0  0  0  0  0  0  0  0  0  0
   21.0708   21.0178   25.9850 C   0  0  0  0  0  0  0  0  0  0  0  0
   21.3153   21.7198   25.1781 H   0  0  0  0  0  0  0  0  0  0  0  0
   20.0133   21.1459   26.2435 H   0  0  0  0  0  0  0  0  0  0  0  0
   21.6569   21.2980   26.8689 H   0  0  0  0  0  0  0  0  0  0  0  0
   22.8560   19.3695   25.4128 N   0  3  0  0  0  0  0  0  0  0  0  0
   23.3583   19.6016   26.2745 H   0  0  0  0  0  0  0  0  0  0  0  0
   23.2349   19.9623   24.6693 H   0  0  0  0  0  0  0  0  0  0  0  0
   23.0844   18.3988   25.1793 H   0  0  0  0  0  0  0  0  0  0  0  0
  1  2  1  0  0  0  0
  1  3  1  0  0  0  0
  1  4  1  0  0  0  0
  1  5  1  0  0  0  0
  5  6  1  0  0  0  0
  5  7  1  0  0  0  0
  5  8  1  0  0  0  0
  8  9  1  0  0  0  0
  8 10  1  0  0  0  0
  8 11  1  0  0  0  0
 11 12  1  0  0  0  0
 11 13  1  0  0  0  0
 11 14  1  0  0  0  0
 14 15  1  0  0  0  0
 14 16  1  0  0  0  0
 14 17  1  0  0  0  0
 17 18  1  0  0  0  0
 17 19  1  0  0  0  0
 17 20  1  0  0  0  0
 20 21  1  0  0  0  0
 20 22  1  0  0  0  0
 22 23  1  0  0  0  0
 22 24  1  0  0  0  0
 22 25  1  0  0  0  0
 20 26  1  0  0  0  0
 26 27  1  0  0  0  0
 26 28  1  0  0  0  0
 26 29  1  0  0  0  0
M  END
> <VConfSearch Rank>
351

> <Conf_Id>
130

> <Delta U+W>
1.359

> <U+W>
-26.467

> <U>
25.687

> <W>
-52.154

> <W(PB)>
-54.643

> <W(SA)>
2.489

> <Valence>
4.682

> <Coulomb>
19.653

> <VdW>
1.352

> <VdW6>
-9.477

> <VdW12>
10.829

> <Bond>
0.274

> <Angle>
1.550

> <Pdih>
2.858

> <Idih>
0.000

> <Tether>
0.000

$$$$
VeraChem MOL file


 29 28  0  0  0  0  0  0  0  0999 V2000     
   16.0922   20.2145   22.1849 C   0  0  0  0  0  0  0  0  0  0  0  0
   15.2445   19.9486   21.5403 H   0  0  0  0  0  0  0  0  0  0  0  0
   15.7267   20.9123   22.9494 H   0  0  0  0  0  0  0  0  0  0  0  0
   16.8272   20.7395   21.5624 H   0  0  0  0  0  0  0  0  0  0  0  0
   16.6970   18.9480   22.8322 C   0  0  0  0  0  0  0  0  0  0  0  0
   17.0852   18.2820   22.0490 H   0  0  0  0  0  0  0  0  0  0  0  0
   15.8950   18.3926   23.3382 H   0  0  0  0  0  0  0  0  0  0  0  0
   17.8134   19.2533   23.8600 C   0  0  0  0  0  0  0  0  0  0  0  0
   17.4144   19.9044   24.6499 H   0  0  0  0  0  0  0  0  0  0  0  0
   18.0923   18.3124   24.3507 H   0  0  0  0  0  0  0  0  0  0  0  0
   19.0684   19.9091   23.2290 C   0  0  0  0  0  0  0  0  0  0  0  0
   18.7879   20.8804   22.8016 H   0  0  0  0  0  0  0  0  0  0  0  0
   19.4239   19.2957   22.3923 H   0  0  0  0  0  0  0  0  0  0  0  0
   20.2098   20.1475   24.2516 C   0  0  0  0  0  0  0  0  0  0  0  0
   20.9319   20.8639   23.8360 H   0  0  0  0  0  0  0  0  0  0  0  0
   19.7842   20.6420   25.1357 H   0  0  0  0  0  0  0  0  0  0  0  0
   20.9591   18.8629   24.7024 C   0  0  0  0  0  0  0  0  0  0  0  0
   20.3080   17.9834   24.6325 H   0  0  0  0  0  0  0  0  0  0  0  0
   21.1984   18.9730   25.7683 H   0  0  0  0  0  0  0  0  0  0  0  0
   22.2855   18.5935   23.9523 C   0  0  2  0  0  0  0  0  0  0  0  0
   22.9296   19.4699   24.0733 H   0  0  0  0  0  0  0  0  0  0  0  0
   22.0787   18.3531   22.4474 C   0  0  0  0  0  0  0  0  0  0  0  0
   21.7038   19.2564   21.9526 H   0  0  0  0  0  0  0  0  0  0  0  0
   23.0274   18.0903   21.9634 H   0  0  0  0  0  0  0  0  0  0  0  0
   21.3675   17.5370   22.2692 H   0  0  0  0  0  0  0  0  0  0  0  0
   23.0265   17.4378   24.5654 N   0  3  0  0  0  0  0  0  0  0  0  0
   23.2176   17.5967   25.5590 H   0  0  0  0  0  0  0  0  0  0  0  0
   23.9271   17.2837   24.1030 H   0  0  0  0  0  0  0  0  0  0  0  0
   22.4916   16.5684   24.4899 H   0  0  0  0  0  0  0  0  0  0  0  0
  1  2  1  0  0  0  0
  1  3  1  0  0  0  0
  1  4  1  0  0  0  0
  1  5  1  0  0  0  0
  5  6  1  0  0  0  0
  5  7  1  0  0  0  0
  5  8  1  0  0  0  0
  8  9  1  0  0  0  0
  8 10  1  0  0  0  0
  8 11  1  0  0  0  0
 11 12  1  0  0  0  0
 11 13  1  0  0  0  0
 11 14  1  0  0  0  0
 14 15  1  0  0  0  0
 14 16  1  0  0  0  0
 14 17  1  0  0  0  0
 17 18  1  0  0  0  0
 17 19  1  0  0  0  0
 17 20  1  0  0  0  0
 20 21  1  0  0  0  0
 20 22  1  0  0  0  0
 22 23  1  0  0  0  0
 22 24  1  0  0  0  0
 22 25  1  0  0  0  0
 20 26  1  0  0  0  0
 26 27  1  0  0  0  0
 26 28  1  0  0  0  0
 26 29  1  0  0  0  0
M  END
> <VConfSearch Rank>
352

> <Conf_Id>
157

> <Delta U+W>
4.354

> <U+W>
-23.472

> <U>
28.780

> <W>
-52.252

> <W(PB)>
-54.715

> <W(SA)>
2.462

> <Valence>
7.566

> <Coulomb>
19.822

> <VdW>
1.392

> <VdW6>
-10.248

> <VdW12>
11.641

> <Bond>
0.340

> <Angle>
2.096

> <Pdih>
5.129

> <Idih>
0.000

> <Tether>
0.000

$$$$
VeraChem MOL file


 29 28  0  0  0  0  0  0  0  0999 V2000     
   22.4519   21.1255   25.0866 C   0  0  0  0  0  0  0  0  0  0  0  0
   23.1985   21.9026   24.8778 H   0  0  0  0  0  0  0  0  0  0  0  0
   21.4786   21.5013   24.7524 H   0  0  0  0  0  0  0  0  0  0  0  0
   22.4062   20.9918   26.1752 H   0  0  0  0  0  0  0  0  0  0  0  0
   22.8377   19.8025   24.3847 C   0  0  0  0  0  0  0  0  0  0  0  0
   23.8269   19.4989   24.7551 H   0  0  0  0  0  0  0  0  0  0  0  0
   22.9562   19.9632   23.3042 H   0  0  0  0  0  0  0  0  0  0  0  0
   21.8350   18.6506   24.6520 C   0  0  0  0  0  0  0  0  0  0  0  0
   22.4045   17.7144   24.7339 H   0  0  0  0  0  0  0  0  0  0  0  0
   21.3504   18.7874   25.6286 H   0  0  0  0  0  0  0  0  0  0  0  0
   20.7638   18.4487   23.5493 C   0  0  0  0  0  0  0  0  0  0  0  0
   20.1699   17.5657   23.8180 H   0  0  0  0  0  0  0  0  0  0  0  0
   21.2605   18.2057   22.5998 H   0  0  0  0  0  0  0  0  0  0  0  0
   19.8267   19.6640   23.3419 C   0  0  0  0  0  0  0  0  0  0  0  0
   19.3904   19.9681   24.3023 H   0  0  0  0  0  0  0  0  0  0  0  0
   20.4185   20.5172   22.9866 H   0  0  0  0  0  0  0  0  0  0  0  0
   18.7040   19.4027   22.3048 C   0  0  0  0  0  0  0  0  0  0  0  0
   19.1652   19.1812   21.3331 H   0  0  0  0  0  0  0  0  0  0  0  0
   18.1260   20.3260   22.1659 H   0  0  0  0  0  0  0  0  0  0  0  0
   17.7422   18.2526   22.6795 C   0  0  2  0  0  0  0  0  0  0  0  0
   18.3259   17.3334   22.7835 H   0  0  0  0  0  0  0  0  0  0  0  0
   16.7069   18.0371   21.5644 C   0  0  0  0  0  0  0  0  0  0  0  0
   16.0855   18.9299   21.4213 H   0  0  0  0  0  0  0  0  0  0  0  0
   17.2019   17.8089   20.6123 H   0  0  0  0  0  0  0  0  0  0  0  0
   16.0458   17.1956   21.8059 H   0  0  0  0  0  0  0  0  0  0  0  0
   17.0591   18.4831   23.9994 N   0  3  0  0  0  0  0  0  0  0  0  0
   17.7407   18.5894   24.7557 H   0  0  0  0  0  0  0  0  0  0  0  0
   16.4450   17.7014   24.2452 H   0  0  0  0  0  0  0  0  0  0  0  0
   16.4851   19.3302   23.9789 H   0  0  0  0  0  0  0  0  0  0  0  0
  1  2  1  0  0  0  0
  1  3  1  0  0  0  0
  1  4  1  0  0  0  0
  1  5  1  0  0  0  0
  5  6  1  0  0  0  0
  5  7  1  0  0  0  0
  5  8  1  0  0  0  0
  8  9  1  0  0  0  0
  8 10  1  0  0  0  0
  8 11  1  0  0  0  0
 11 12  1  0  0  0  0
 11 13  1  0  0  0  0
 11 14  1  0  0  0  0
 14 15  1  0  0  0  0
 14 16  1  0  0  0  0
 14 17  1  0  0  0  0
 17 18  1  0  0  0  0
 17 19  1  0  0  0  0
 17 20  1  0  0  0  0
 20 21  1  0  0  0  0
 20 22  1  0  0  0  0
 22 23  1  0  0  0  0
 22 24  1  0  0  0  0
 22 25  1  0  0  0  0
 20 26  1  0  0  0  0
 26 27  1  0  0  0  0
 26 28  1  0  0  0  0
 26 29  1  0  0  0  0
M  END
> <VConfSearch Rank>
353

> <Conf_Id>
158

> <Delta U+W>
3.648

> <U+W>
-24.178

> <U>
28.057

> <W>
-52.235

> <W(PB)>
-54.696

> <W(SA)>
2.460

> <Valence>
6.543

> <Coulomb>
20.387

> <VdW>
1.127

> <VdW6>
-10.342

> <VdW12>
11.469

> <Bond>
0.308

> <Angle>
1.938

> <Pdih>
4.297

> <Idih>
0.000

> <Tether>
0.000

$$$$
VeraChem MOL file


 29 28  0  0  0  0  0  0  0  0999 V2000     
   20.9085   15.9391   25.2531 C   0  0  0  0  0  0  0  0  0  0  0  0
   21.1607   16.5585   26.1235 H   0  0  0  0  0  0  0  0  0  0  0  0
   19.8575   16.1188   24.9953 H   0  0  0  0  0  0  0  0  0  0  0  0
   20.9991   14.8868   25.5523 H   0  0  0  0  0  0  0  0  0  0  0  0
   21.8459   16.2451   24.0629 C   0  0  0  0  0  0  0  0  0  0  0  0
   21.5530   15.6370   23.1957 H   0  0  0  0  0  0  0  0  0  0  0  0
   22.8660   15.9329   24.3269 H   0  0  0  0  0  0  0  0  0  0  0  0
   21.8715   17.7415   23.6687 C   0  0  0  0  0  0  0  0  0  0  0  0
   22.1822   18.3430   24.5340 H   0  0  0  0  0  0  0  0  0  0  0  0
   22.6419   17.8863   22.8988 H   0  0  0  0  0  0  0  0  0  0  0  0
   20.5164   18.2609   23.1318 C   0  0  0  0  0  0  0  0  0  0  0  0
   19.7520   18.1707   23.9113 H   0  0  0  0  0  0  0  0  0  0  0  0
   20.1889   17.6272   22.2962 H   0  0  0  0  0  0  0  0  0  0  0  0
   20.6165   19.7299   22.6524 C   0  0  0  0  0  0  0  0  0  0  0  0
   21.0153   20.3691   23.4523 H   0  0  0  0  0  0  0  0  0  0  0  0
   21.3505   19.7737   21.8358 H   0  0  0  0  0  0  0  0  0  0  0  0
   19.2702   20.3020   22.1347 C   0  0  0  0  0  0  0  0  0  0  0  0
   18.6359   19.4934   21.7478 H   0  0  0  0  0  0  0  0  0  0  0  0
   19.4898   20.9471   21.2737 H   0  0  0  0  0  0  0  0  0  0  0  0
   18.4856   21.1514   23.1636 C   0  0  2  0  0  0  0  0  0  0  0  0
   19.1306   21.9737   23.4882 H   0  0  0  0  0  0  0  0  0  0  0  0
   18.0689   20.3496   24.4080 C   0  0  0  0  0  0  0  0  0  0  0  0
   17.4958   19.4557   24.1319 H   0  0  0  0  0  0  0  0  0  0  0  0
   18.9461   20.0376   24.9866 H   0  0  0  0  0  0  0  0  0  0  0  0
   17.4463   20.9617   25.0722 H   0  0  0  0  0  0  0  0  0  0  0  0
   17.2801   21.7872   22.5286 N   0  3  0  0  0  0  0  0  0  0  0  0
   17.5387   22.3668   21.7248 H   0  0  0  0  0  0  0  0  0  0  0  0
   16.7826   22.3893   23.1908 H   0  0  0  0  0  0  0  0  0  0  0  0
   16.6159   21.0818   22.1985 H   0  0  0  0  0  0  0  0  0  0  0  0
  1  2  1  0  0  0  0
  1  3  1  0  0  0  0
  1  4  1  0  0  0  0
  1  5  1  0  0  0  0
  5  6  1  0  0  0  0
  5  7  1  0  0  0  0
  5  8  1  0  0  0  0
  8  9  1  0  0  0  0
  8 10  1  0  0  0  0
  8 11  1  0  0  0  0
 11 12  1  0  0  0  0
 11 13  1  0  0  0  0
 11 14  1  0  0  0  0
 14 15  1  0  0  0  0
 14 16  1  0  0  0  0
 14 17  1  0  0  0  0
 17 18  1  0  0  0  0
 17 19  1  0  0  0  0
 17 20  1  0  0  0  0
 20 21  1  0  0  0  0
 20 22  1  0  0  0  0
 22 23  1  0  0  0  0
 22 24  1  0  0  0  0
 22 25  1  0  0  0  0
 20 26  1  0  0  0  0
 26 27  1  0  0  0  0
 26 28  1  0  0  0  0
 26 29  1  0  0  0  0
M  END
> <VConfSearch Rank>
354

> <Conf_Id>
156

> <Delta U+W>
3.393

> <U+W>
-24.433

> <U>
27.713

> <W>
-52.146

> <W(PB)>
-54.603

> <W(SA)>
2.458

> <Valence>
6.758

> <Coulomb>
19.720

> <VdW>
1.235

> <VdW6>
-9.782

> <VdW12>
11.017

> <Bond>
0.287

> <Angle>
1.880

> <Pdih>
4.591

> <Idih>
0.000

> <Tether>
0.000

$$$$
VeraChem MOL file


 29 28  0  0  0  0  0  0  0  0999 V2000     
   19.9871   18.4806   19.6890 C   0  0  0  0  0  0  0  0  0  0  0  0
   20.6057   17.6152   19.9601 H   0  0  0  0  0  0  0  0  0  0  0  0
   19.1683   18.1285   19.0480 H   0  0  0  0  0  0  0  0  0  0  0  0
   20.6072   19.1662   19.0970 H   0  0  0  0  0  0  0  0  0  0  0  0
   19.4420   19.1880   20.9476 C   0  0  0  0  0  0  0  0  0  0  0  0
   18.8526   20.0653   20.6467 H   0  0  0  0  0  0  0  0  0  0  0  0
   20.2877   19.5598   21.5411 H   0  0  0  0  0  0  0  0  0  0  0  0
   18.5678   18.2395   21.8011 C   0  0  0  0  0  0  0  0  0  0  0  0
   17.7744   17.8199   21.1675 H   0  0  0  0  0  0  0  0  0  0  0  0
   19.1672   17.3832   22.1368 H   0  0  0  0  0  0  0  0  0  0  0  0
   17.9023   18.9333   23.0179 C   0  0  0  0  0  0  0  0  0  0  0  0
   17.2852   18.1961   23.5498 H   0  0  0  0  0  0  0  0  0  0  0  0
   17.2046   19.6987   22.6511 H   0  0  0  0  0  0  0  0  0  0  0  0
   18.8775   19.5938   24.0267 C   0  0  0  0  0  0  0  0  0  0  0  0
   19.4139   20.4157   23.5363 H   0  0  0  0  0  0  0  0  0  0  0  0
   18.2753   20.0555   24.8196 H   0  0  0  0  0  0  0  0  0  0  0  0
   19.8857   18.5934   24.6554 C   0  0  0  0  0  0  0  0  0  0  0  0
   20.5070   18.1537   23.8656 H   0  0  0  0  0  0  0  0  0  0  0  0
   19.3347   17.7588   25.1086 H   0  0  0  0  0  0  0  0  0  0  0  0
   20.8306   19.2028   25.7179 C   0  0  2  0  0  0  0  0  0  0  0  0
   21.5157   18.4105   26.0349 H   0  0  0  0  0  0  0  0  0  0  0  0
   20.0695   19.6832   26.9659 C   0  0  0  0  0  0  0  0  0  0  0  0
   20.7735   19.9754   27.7546 H   0  0  0  0  0  0  0  0  0  0  0  0
   19.4351   20.5501   26.7470 H   0  0  0  0  0  0  0  0  0  0  0  0
   19.4341   18.8839   27.3671 H   0  0  0  0  0  0  0  0  0  0  0  0
   21.6930   20.2998   25.1570 N   0  3  0  0  0  0  0  0  0  0  0  0
   22.2396   19.9743   24.3546 H   0  0  0  0  0  0  0  0  0  0  0  0
   22.3539   20.6499   25.8564 H   0  0  0  0  0  0  0  0  0  0  0  0
   21.1271   21.0928   24.8449 H   0  0  0  0  0  0  0  0  0  0  0  0
  1  2  1  0  0  0  0
  1  3  1  0  0  0  0
  1  4  1  0  0  0  0
  1  5  1  0  0  0  0
  5  6  1  0  0  0  0
  5  7  1  0  0  0  0
  5  8  1  0  0  0  0
  8  9  1  0  0  0  0
  8 10  1  0  0  0  0
  8 11  1  0  0  0  0
 11 12  1  0  0  0  0
 11 13  1  0  0  0  0
 11 14  1  0  0  0  0
 14 15  1  0  0  0  0
 14 16  1  0  0  0  0
 14 17  1  0  0  0  0
 17 18  1  0  0  0  0
 17 19  1  0  0  0  0
 17 20  1  0  0  0  0
 20 21  1  0  0  0  0
 20 22  1  0  0  0  0
 22 23  1  0  0  0  0
 22 24  1  0  0  0  0
 22 25  1  0  0  0  0
 20 26  1  0  0  0  0
 26 27  1  0  0  0  0
 26 28  1  0  0  0  0
 26 29  1  0  0  0  0
M  END
> <VConfSearch Rank>
355

> <Conf_Id>
78

> <Delta U+W>
1.477

> <U+W>
-26.349

> <U>
26.385

> <W>
-52.734

> <W(PB)>
-55.179

> <W(SA)>
2.445

> <Valence>
4.726

> <Coulomb>
20.482

> <VdW>
1.177

> <VdW6>
-10.349

> <VdW12>
11.526

> <Bond>
0.319

> <Angle>
1.933

> <Pdih>
2.474

> <Idih>
0.000

> <Tether>
0.000

$$$$
VeraChem MOL file


 29 28  0  0  0  0  0  0  0  0999 V2000     
   22.2768   16.3417   22.9679 C   0  0  0  0  0  0  0  0  0  0  0  0
   22.6555   15.9982   23.9393 H   0  0  0  0  0  0  0  0  0  0  0  0
   21.1866   16.2333   22.9742 H   0  0  0  0  0  0  0  0  0  0  0  0
   22.6741   15.6672   22.1984 H   0  0  0  0  0  0  0  0  0  0  0  0
   22.7155   17.7983   22.6893 C   0  0  0  0  0  0  0  0  0  0  0  0
   22.3992   18.1072   21.6833 H   0  0  0  0  0  0  0  0  0  0  0  0
   23.8142   17.8253   22.6819 H   0  0  0  0  0  0  0  0  0  0  0  0
   22.2033   18.8069   23.7495 C   0  0  0  0  0  0  0  0  0  0  0  0
   22.0741   18.3066   24.7191 H   0  0  0  0  0  0  0  0  0  0  0  0
   22.9857   19.5618   23.9087 H   0  0  0  0  0  0  0  0  0  0  0  0
   20.9037   19.5582   23.3611 C   0  0  0  0  0  0  0  0  0  0  0  0
   21.0795   20.1417   22.4470 H   0  0  0  0  0  0  0  0  0  0  0  0
   20.6899   20.2869   24.1536 H   0  0  0  0  0  0  0  0  0  0  0  0
   19.6743   18.6393   23.1558 C   0  0  0  0  0  0  0  0  0  0  0  0
   19.8638   17.9693   22.3076 H   0  0  0  0  0  0  0  0  0  0  0  0
   19.5383   17.9940   24.0335 H   0  0  0  0  0  0  0  0  0  0  0  0
   18.3676   19.4198   22.8579 C   0  0  0  0  0  0  0  0  0  0  0  0
   17.5561   18.7005   22.6853 H   0  0  0  0  0  0  0  0  0  0  0  0
   18.4970   19.9644   21.9133 H   0  0  0  0  0  0  0  0  0  0  0  0
   17.9318   20.4227   23.9525 C   0  0  2  0  0  0  0  0  0  0  0  0
   18.7396   21.1448   24.1024 H   0  0  0  0  0  0  0  0  0  0  0  0
   17.6453   19.7270   25.2950 C   0  0  0  0  0  0  0  0  0  0  0  0
   17.2890   20.4515   26.0376 H   0  0  0  0  0  0  0  0  0  0  0  0
   16.8799   18.9491   25.1833 H   0  0  0  0  0  0  0  0  0  0  0  0
   18.5508   19.2630   25.7032 H   0  0  0  0  0  0  0  0  0  0  0  0
   16.7345   21.2178   23.5116 N   0  3  0  0  0  0  0  0  0  0  0  0
   15.9232   20.6145   23.3521 H   0  0  0  0  0  0  0  0  0  0  0  0
   16.9179   21.7237   22.6402 H   0  0  0  0  0  0  0  0  0  0  0  0
   16.4659   21.9111   24.2157 H   0  0  0  0  0  0  0  0  0  0  0  0
  1  2  1  0  0  0  0
  1  3  1  0  0  0  0
  1  4  1  0  0  0  0
  1  5  1  0  0  0  0
  5  6  1  0  0  0  0
  5  7  1  0  0  0  0
  5  8  1  0  0  0  0
  8  9  1  0  0  0  0
  8 10  1  0  0  0  0
  8 11  1  0  0  0  0
 11 12  1  0  0  0  0
 11 13  1  0  0  0  0
 11 14  1  0  0  0  0
 14 15  1  0  0  0  0
 14 16  1  0  0  0  0
 14 17  1  0  0  0  0
 17 18  1  0  0  0  0
 17 19  1  0  0  0  0
 17 20  1  0  0  0  0
 20 21  1  0  0  0  0
 20 22  1  0  0  0  0
 22 23  1  0  0  0  0
 22 24  1  0  0  0  0
 22 25  1  0  0  0  0
 20 26  1  0  0  0  0
 26 27  1  0  0  0  0
 26 28  1  0  0  0  0
 26 29  1  0  0  0  0
M  END
> <VConfSearch Rank>
356

> <Conf_Id>
145

> <Delta U+W>
3.784

> <U+W>
-24.042

> <U>
28.220

> <W>
-52.262

> <W(PB)>
-54.724

> <W(SA)>
2.462

> <Valence>
7.040

> <Coulomb>
19.984

> <VdW>
1.197

> <VdW6>
-10.566

> <VdW12>
11.763

> <Bond>
0.320

> <Angle>
2.280

> <Pdih>
4.439

> <Idih>
0.000

> <Tether>
0.000

$$$$
VeraChem MOL file


 29 28  0  0  0  0  0  0  0  0999 V2000     
   19.8512   17.4197   27.0668 C   0  0  0  0  0  0  0  0  0  0  0  0
   19.9665   16.3393   27.2241 H   0  0  0  0  0  0  0  0  0  0  0  0
   20.8504   17.8744   27.0713 H   0  0  0  0  0  0  0  0  0  0  0  0
   19.2918   17.8265   27.9192 H   0  0  0  0  0  0  0  0  0  0  0  0
   19.1153   17.7123   25.7423 C   0  0  0  0  0  0  0  0  0  0  0  0
   18.9790   18.7954   25.6384 H   0  0  0  0  0  0  0  0  0  0  0  0
   18.1083   17.2741   25.7835 H   0  0  0  0  0  0  0  0  0  0  0  0
   19.8803   17.1369   24.5260 C   0  0  0  0  0  0  0  0  0  0  0  0
   20.9126   17.5125   24.5090 H   0  0  0  0  0  0  0  0  0  0  0  0
   19.9568   16.0484   24.6553 H   0  0  0  0  0  0  0  0  0  0  0  0
   19.1852   17.4227   23.1693 C   0  0  0  0  0  0  0  0  0  0  0  0
   18.1003   17.5247   23.3100 H   0  0  0  0  0  0  0  0  0  0  0  0
   19.3174   16.5419   22.5257 H   0  0  0  0  0  0  0  0  0  0  0  0
   19.7407   18.6492   22.4003 C   0  0  0  0  0  0  0  0  0  0  0  0
   20.8017   18.4785   22.1743 H   0  0  0  0  0  0  0  0  0  0  0  0
   19.2241   18.6986   21.4334 H   0  0  0  0  0  0  0  0  0  0  0  0
   19.5739   19.9974   23.1508 C   0  0  0  0  0  0  0  0  0  0  0  0
   20.1659   19.9723   24.0736 H   0  0  0  0  0  0  0  0  0  0  0  0
   18.5267   20.1178   23.4580 H   0  0  0  0  0  0  0  0  0  0  0  0
   20.0054   21.2478   22.3483 C   0  0  2  0  0  0  0  0  0  0  0  0
   19.9084   22.1101   23.0152 H   0  0  0  0  0  0  0  0  0  0  0  0
   19.0972   21.5002   21.1320 C   0  0  0  0  0  0  0  0  0  0  0  0
   19.3363   22.4659   20.6699 H   0  0  0  0  0  0  0  0  0  0  0  0
   19.2171   20.7252   20.3660 H   0  0  0  0  0  0  0  0  0  0  0  0
   18.0423   21.5277   21.4318 H   0  0  0  0  0  0  0  0  0  0  0  0
   21.4519   21.1971   21.9400 N   0  3  0  0  0  0  0  0  0  0  0  0
   21.6290   20.4184   21.3005 H   0  0  0  0  0  0  0  0  0  0  0  0
   22.0666   21.0775   22.7502 H   0  0  0  0  0  0  0  0  0  0  0  0
   21.7365   22.0575   21.4634 H   0  0  0  0  0  0  0  0  0  0  0  0
  1  2  1  0  0  0  0
  1  3  1  0  0  0  0
  1  4  1  0  0  0  0
  1  5  1  0  0  0  0
  5  6  1  0  0  0  0
  5  7  1  0  0  0  0
  5  8  1  0  0  0  0
  8  9  1  0  0  0  0
  8 10  1  0  0  0  0
  8 11  1  0  0  0  0
 11 12  1  0  0  0  0
 11 13  1  0  0  0  0
 11 14  1  0  0  0  0
 14 15  1  0  0  0  0
 14 16  1  0  0  0  0
 14 17  1  0  0  0  0
 17 18  1  0  0  0  0
 17 19  1  0  0  0  0
 17 20  1  0  0  0  0
 20 21  1  0  0  0  0
 20 22  1  0  0  0  0
 22 23  1  0  0  0  0
 22 24  1  0  0  0  0
 22 25  1  0  0  0  0
 20 26  1  0  0  0  0
 26 27  1  0  0  0  0
 26 28  1  0  0  0  0
 26 29  1  0  0  0  0
M  END
> <VConfSearch Rank>
357

> <Conf_Id>
71

> <Delta U+W>
3.542

> <U+W>
-24.284

> <U>
28.217

> <W>
-52.501

> <W(PB)>
-54.947

> <W(SA)>
2.446

> <Valence>
6.821

> <Coulomb>
20.147

> <VdW>
1.249

> <VdW6>
-10.237

> <VdW12>
11.486

> <Bond>
0.317

> <Angle>
1.990

> <Pdih>
4.515

> <Idih>
0.000

> <Tether>
0.000

$$$$
VeraChem MOL file


 29 28  0  0  0  0  0  0  0  0999 V2000     
   17.2515   21.6455   25.1245 C   0  0  0  0  0  0  0  0  0  0  0  0
   18.0424   22.3595   24.8600 H   0  0  0  0  0  0  0  0  0  0  0  0
   16.3210   21.9714   24.6415 H   0  0  0  0  0  0  0  0  0  0  0  0
   17.1024   21.6948   26.2109 H   0  0  0  0  0  0  0  0  0  0  0  0
   17.6300   20.2137   24.6907 C   0  0  0  0  0  0  0  0  0  0  0  0
   16.8354   19.5202   24.9996 H   0  0  0  0  0  0  0  0  0  0  0  0
   18.5370   19.9052   25.2240 H   0  0  0  0  0  0  0  0  0  0  0  0
   17.8345   20.1175   23.1596 C   0  0  0  0  0  0  0  0  0  0  0  0
   16.8928   20.4044   22.6715 H   0  0  0  0  0  0  0  0  0  0  0  0
   18.5832   20.8491   22.8259 H   0  0  0  0  0  0  0  0  0  0  0  0
   18.2242   18.6963   22.6757 C   0  0  0  0  0  0  0  0  0  0  0  0
   17.7403   18.5220   21.7047 H   0  0  0  0  0  0  0  0  0  0  0  0
   17.8106   17.9357   23.3521 H   0  0  0  0  0  0  0  0  0  0  0  0
   19.7462   18.4706   22.4845 C   0  0  0  0  0  0  0  0  0  0  0  0
   19.8889   17.4666   22.0644 H   0  0  0  0  0  0  0  0  0  0  0  0
   20.1177   19.1758   21.7292 H   0  0  0  0  0  0  0  0  0  0  0  0
   20.5770   18.6103   23.7877 C   0  0  0  0  0  0  0  0  0  0  0  0
   20.1152   18.0058   24.5790 H   0  0  0  0  0  0  0  0  0  0  0  0
   20.5412   19.6514   24.1319 H   0  0  0  0  0  0  0  0  0  0  0  0
   22.0622   18.1976   23.6584 C   0  0  2  0  0  0  0  0  0  0  0  0
   22.5266   18.3431   24.6387 H   0  0  0  0  0  0  0  0  0  0  0  0
   22.8201   19.0769   22.6487 C   0  0  0  0  0  0  0  0  0  0  0  0
   22.6980   20.1403   22.8892 H   0  0  0  0  0  0  0  0  0  0  0  0
   23.8933   18.8514   22.6730 H   0  0  0  0  0  0  0  0  0  0  0  0
   22.4664   18.9132   21.6237 H   0  0  0  0  0  0  0  0  0  0  0  0
   22.2275   16.7385   23.3330 N   0  3  0  0  0  0  0  0  0  0  0  0
   21.7618   16.1445   24.0250 H   0  0  0  0  0  0  0  0  0  0  0  0
   23.2153   16.4693   23.3135 H   0  0  0  0  0  0  0  0  0  0  0  0
   21.8304   16.5149   22.4172 H   0  0  0  0  0  0  0  0  0  0  0  0
  1  2  1  0  0  0  0
  1  3  1  0  0  0  0
  1  4  1  0  0  0  0
  1  5  1  0  0  0  0
  5  6  1  0  0  0  0
  5  7  1  0  0  0  0
  5  8  1  0  0  0  0
  8  9  1  0  0  0  0
  8 10  1  0  0  0  0
  8 11  1  0  0  0  0
 11 12  1  0  0  0  0
 11 13  1  0  0  0  0
 11 14  1  0  0  0  0
 14 15  1  0  0  0  0
 14 16  1  0  0  0  0
 14 17  1  0  0  0  0
 17 18  1  0  0  0  0
 17 19  1  0  0  0  0
 17 20  1  0  0  0  0
 20 21  1  0  0  0  0
 20 22  1  0  0  0  0
 22 23  1  0  0  0  0
 22 24  1  0  0  0  0
 22 25  1  0  0  0  0
 20 26  1  0  0  0  0
 26 27  1  0  0  0  0
 26 28  1  0  0  0  0
 26 29  1  0  0  0  0
M  END
> <VConfSearch Rank>
358

> <Conf_Id>
163

> <Delta U+W>
3.309

> <U+W>
-24.517

> <U>
27.916

> <W>
-52.433

> <W(PB)>
-54.866

> <W(SA)>
2.433

> <Valence>
6.693

> <Coulomb>
20.015

> <VdW>
1.208

> <VdW6>
-10.294

> <VdW12>
11.503

> <Bond>
0.312

> <Angle>
1.939

> <Pdih>
4.441

> <Idih>
0.000

> <Tether>
0.000

$$$$
VeraChem MOL file


 29 28  0  0  0  0  0  0  0  0999 V2000     
   22.7245   17.5280   21.3430 C   0  0  0  0  0  0  0  0  0  0  0  0
   23.0138   18.3355   20.6580 H   0  0  0  0  0  0  0  0  0  0  0  0
   23.2327   17.6905   22.3014 H   0  0  0  0  0  0  0  0  0  0  0  0
   23.1006   16.5843   20.9270 H   0  0  0  0  0  0  0  0  0  0  0  0
   21.1897   17.4686   21.5153 C   0  0  0  0  0  0  0  0  0  0  0  0
   20.9279   16.6770   22.2312 H   0  0  0  0  0  0  0  0  0  0  0  0
   20.7387   17.1770   20.5564 H   0  0  0  0  0  0  0  0  0  0  0  0
   20.5662   18.8111   21.9675 C   0  0  0  0  0  0  0  0  0  0  0  0
   20.8271   19.5983   21.2468 H   0  0  0  0  0  0  0  0  0  0  0  0
   19.4743   18.7059   21.9307 H   0  0  0  0  0  0  0  0  0  0  0  0
   20.9975   19.2422   23.3921 C   0  0  0  0  0  0  0  0  0  0  0  0
   22.0896   19.3457   23.4268 H   0  0  0  0  0  0  0  0  0  0  0  0
   20.7453   18.4505   24.1097 H   0  0  0  0  0  0  0  0  0  0  0  0
   20.3785   20.5902   23.8451 C   0  0  0  0  0  0  0  0  0  0  0  0
   20.7789   20.8488   24.8345 H   0  0  0  0  0  0  0  0  0  0  0  0
   20.7227   21.3860   23.1703 H   0  0  0  0  0  0  0  0  0  0  0  0
   18.8273   20.6172   23.8970 C   0  0  0  0  0  0  0  0  0  0  0  0
   18.4309   20.5585   22.8753 H   0  0  0  0  0  0  0  0  0  0  0  0
   18.5012   21.5900   24.2883 H   0  0  0  0  0  0  0  0  0  0  0  0
   18.2045   19.4893   24.7489 C   0  0  2  0  0  0  0  0  0  0  0  0
   18.5366   18.5289   24.3436 H   0  0  0  0  0  0  0  0  0  0  0  0
   16.6708   19.5401   24.6667 C   0  0  0  0  0  0  0  0  0  0  0  0
   16.2240   18.7183   25.2398 H   0  0  0  0  0  0  0  0  0  0  0  0
   16.2828   20.4857   25.0655 H   0  0  0  0  0  0  0  0  0  0  0  0
   16.3331   19.4432   23.6274 H   0  0  0  0  0  0  0  0  0  0  0  0
   18.6611   19.5375   26.1810 N   0  3  0  0  0  0  0  0  0  0  0  0
   19.6806   19.4740   26.2472 H   0  0  0  0  0  0  0  0  0  0  0  0
   18.2673   18.7657   26.7266 H   0  0  0  0  0  0  0  0  0  0  0  0
   18.3763   20.4103   26.6333 H   0  0  0  0  0  0  0  0  0  0  0  0
  1  2  1  0  0  0  0
  1  3  1  0  0  0  0
  1  4  1  0  0  0  0
  1  5  1  0  0  0  0
  5  6  1  0  0  0  0
  5  7  1  0  0  0  0
  5  8  1  0  0  0  0
  8  9  1  0  0  0  0
  8 10  1  0  0  0  0
  8 11  1  0  0  0  0
 11 12  1  0  0  0  0
 11 13  1  0  0  0  0
 11 14  1  0  0  0  0
 14 15  1  0  0  0  0
 14 16  1  0  0  0  0
 14 17  1  0  0  0  0
 17 18  1  0  0  0  0
 17 19  1  0  0  0  0
 17 20  1  0  0  0  0
 20 21  1  0  0  0  0
 20 22  1  0  0  0  0
 22 23  1  0  0  0  0
 22 24  1  0  0  0  0
 22 25  1  0  0  0  0
 20 26  1  0  0  0  0
 26 27  1  0  0  0  0
 26 28  1  0  0  0  0
 26 29  1  0  0  0  0
M  END
> <VConfSearch Rank>
359

> <Conf_Id>
173

> <Delta U+W>
1.363

> <U+W>
-26.462

> <U>
25.816

> <W>
-52.279

> <W(PB)>
-54.727

> <W(SA)>
2.449

> <Valence>
4.504

> <Coulomb>
20.342

> <VdW>
0.971

> <VdW6>
-10.532

> <VdW12>
11.503

> <Bond>
0.307

> <Angle>
1.715

> <Pdih>
2.481

> <Idih>
0.000

> <Tether>
0.000

$$$$
VeraChem MOL file


 29 28  0  0  0  0  0  0  0  0999 V2000     
   22.5664   21.6618   22.8087 C   0  0  0  0  0  0  0  0  0  0  0  0
   21.9255   22.5389   22.6501 H   0  0  0  0  0  0  0  0  0  0  0  0
   23.3523   21.9372   23.5241 H   0  0  0  0  0  0  0  0  0  0  0  0
   23.0503   21.4205   21.8534 H   0  0  0  0  0  0  0  0  0  0  0  0
   21.7446   20.4605   23.3218 C   0  0  0  0  0  0  0  0  0  0  0  0
   22.4066   19.5922   23.4453 H   0  0  0  0  0  0  0  0  0  0  0  0
   20.9968   20.1940   22.5632 H   0  0  0  0  0  0  0  0  0  0  0  0
   21.0441   20.7798   24.6621 C   0  0  0  0  0  0  0  0  0  0  0  0
   21.7908   21.1590   25.3735 H   0  0  0  0  0  0  0  0  0  0  0  0
   20.3243   21.5961   24.5114 H   0  0  0  0  0  0  0  0  0  0  0  0
   20.3226   19.5712   25.3128 C   0  0  0  0  0  0  0  0  0  0  0  0
   19.9029   19.9132   26.2690 H   0  0  0  0  0  0  0  0  0  0  0  0
   21.0517   18.7915   25.5726 H   0  0  0  0  0  0  0  0  0  0  0  0
   19.1700   18.9725   24.4651 C   0  0  0  0  0  0  0  0  0  0  0  0
   18.3674   18.6649   25.1484 H   0  0  0  0  0  0  0  0  0  0  0  0
   18.7420   19.7540   23.8243 H   0  0  0  0  0  0  0  0  0  0  0  0
   19.6063   17.7385   23.6271 C   0  0  0  0  0  0  0  0  0  0  0  0
   19.9776   16.9607   24.3071 H   0  0  0  0  0  0  0  0  0  0  0  0
   20.4540   17.9966   22.9827 H   0  0  0  0  0  0  0  0  0  0  0  0
   18.4924   17.1233   22.7477 C   0  0  2  0  0  0  0  0  0  0  0  0
   18.9125   16.2348   22.2662 H   0  0  0  0  0  0  0  0  0  0  0  0
   18.0400   18.0839   21.6341 C   0  0  0  0  0  0  0  0  0  0  0  0
   18.8991   18.4355   21.0493 H   0  0  0  0  0  0  0  0  0  0  0  0
   17.3548   17.5754   20.9448 H   0  0  0  0  0  0  0  0  0  0  0  0
   17.5183   18.9590   22.0388 H   0  0  0  0  0  0  0  0  0  0  0  0
   17.3188   16.6434   23.5563 N   0  3  0  0  0  0  0  0  0  0  0  0
   17.6062   15.9687   24.2711 H   0  0  0  0  0  0  0  0  0  0  0  0
   16.6198   16.1845   22.9652 H   0  0  0  0  0  0  0  0  0  0  0  0
   16.8551   17.4203   24.0338 H   0  0  0  0  0  0  0  0  0  0  0  0
  1  2  1  0  0  0  0
  1  3  1  0  0  0  0
  1  4  1  0  0  0  0
  1  5  1  0  0  0  0
  5  6  1  0  0  0  0
  5  7  1  0  0  0  0
  5  8  1  0  0  0  0
  8  9  1  0  0  0  0
  8 10  1  0  0  0  0
  8 11  1  0  0  0  0
 11 12  1  0  0  0  0
 11 13  1  0  0  0  0
 11 14  1  0  0  0  0
 14 15  1  0  0  0  0
 14 16  1  0  0  0  0
 14 17  1  0  0  0  0
 17 18  1  0  0  0  0
 17 19  1  0  0  0  0
 17 20  1  0  0  0  0
 20 21  1  0  0  0  0
 20 22  1  0  0  0  0
 22 23  1  0  0  0  0
 22 24  1  0  0  0  0
 22 25  1  0  0  0  0
 20 26  1  0  0  0  0
 26 27  1  0  0  0  0
 26 28  1  0  0  0  0
 26 29  1  0  0  0  0
M  END
> <VConfSearch Rank>
360

> <Conf_Id>
117

> <Delta U+W>
3.377

> <U+W>
-24.449

> <U>
27.947

> <W>
-52.396

> <W(PB)>
-54.842

> <W(SA)>
2.447

> <Valence>
6.731

> <Coulomb>
20.067

> <VdW>
1.149

> <VdW6>
-10.427

> <VdW12>
11.575

> <Bond>
0.324

> <Angle>
1.943

> <Pdih>
4.465

> <Idih>
0.000

> <Tether>
0.000

$$$$
VeraChem MOL file


 29 28  0  0  0  0  0  0  0  0999 V2000     
   18.3435   14.5116   23.5091 C   0  0  0  0  0  0  0  0  0  0  0  0
   19.3703   14.1356   23.4117 H   0  0  0  0  0  0  0  0  0  0  0  0
   18.0718   14.4926   24.5726 H   0  0  0  0  0  0  0  0  0  0  0  0
   17.6786   13.8174   22.9789 H   0  0  0  0  0  0  0  0  0  0  0  0
   18.2174   15.9365   22.9298 C   0  0  0  0  0  0  0  0  0  0  0  0
   17.1738   16.2718   23.0106 H   0  0  0  0  0  0  0  0  0  0  0  0
   18.4624   15.9176   21.8586 H   0  0  0  0  0  0  0  0  0  0  0  0
   19.1438   16.9343   23.6592 C   0  0  0  0  0  0  0  0  0  0  0  0
   18.8966   16.9481   24.7298 H   0  0  0  0  0  0  0  0  0  0  0  0
   20.1853   16.5937   23.5776 H   0  0  0  0  0  0  0  0  0  0  0  0
   19.0202   18.3624   23.0818 C   0  0  0  0  0  0  0  0  0  0  0  0
   17.9780   18.7012   23.1628 H   0  0  0  0  0  0  0  0  0  0  0  0
   19.2677   18.3479   22.0113 H   0  0  0  0  0  0  0  0  0  0  0  0
   19.9466   19.3606   23.8123 C   0  0  0  0  0  0  0  0  0  0  0  0
   19.6960   19.3772   24.8821 H   0  0  0  0  0  0  0  0  0  0  0  0
   20.9848   19.0120   23.7324 H   0  0  0  0  0  0  0  0  0  0  0  0
   19.8217   20.7900   23.2312 C   0  0  0  0  0  0  0  0  0  0  0  0
   18.7683   21.0982   23.2704 H   0  0  0  0  0  0  0  0  0  0  0  0
   20.1081   20.7864   22.1710 H   0  0  0  0  0  0  0  0  0  0  0  0
   20.6723   21.8275   23.9954 C   0  0  2  0  0  0  0  0  0  0  0  0
   20.3858   21.7951   25.0512 H   0  0  0  0  0  0  0  0  0  0  0  0
   20.3947   23.2424   23.4632 C   0  0  0  0  0  0  0  0  0  0  0  0
   20.9686   23.9887   24.0264 H   0  0  0  0  0  0  0  0  0  0  0  0
   20.6680   23.3289   22.4040 H   0  0  0  0  0  0  0  0  0  0  0  0
   19.3318   23.4952   23.5635 H   0  0  0  0  0  0  0  0  0  0  0  0
   22.1439   21.5215   23.9362 N   0  3  0  0  0  0  0  0  0  0  0  0
   22.3498   20.5989   24.3287 H   0  0  0  0  0  0  0  0  0  0  0  0
   22.6903   22.2081   24.4643 H   0  0  0  0  0  0  0  0  0  0  0  0
   22.4883   21.5312   22.9725 H   0  0  0  0  0  0  0  0  0  0  0  0
  1  2  1  0  0  0  0
  1  3  1  0  0  0  0
  1  4  1  0  0  0  0
  1  5  1  0  0  0  0
  5  6  1  0  0  0  0
  5  7  1  0  0  0  0
  5  8  1  0  0  0  0
  8  9  1  0  0  0  0
  8 10  1  0  0  0  0
  8 11  1  0  0  0  0
 11 12  1  0  0  0  0
 11 13  1  0  0  0  0
 11 14  1  0  0  0  0
 14 15  1  0  0  0  0
 14 16  1  0  0  0  0
 14 17  1  0  0  0  0
 17 18  1  0  0  0  0
 17 19  1  0  0  0  0
 17 20  1  0  0  0  0
 20 21  1  0  0  0  0
 20 22  1  0  0  0  0
 22 23  1  0  0  0  0
 22 24  1  0  0  0  0
 22 25  1  0  0  0  0
 20 26  1  0  0  0  0
 26 27  1  0  0  0  0
 26 28  1  0  0  0  0
 26 29  1  0  0  0  0
M  END
> <VConfSearch Rank>
361

> <Conf_Id>
164

> <Delta U+W>
0.000

> <U+W>
-27.826

> <U>
23.963

> <W>
-51.789

> <W(PB)>
-54.342

> <W(SA)>
2.554

> <Valence>
3.166

> <Coulomb>
19.734

> <VdW>
1.062

> <VdW6>
-7.938

> <VdW12>
9.001

> <Bond>
0.188

> <Angle>
0.880

> <Pdih>
2.098

> <Idih>
0.000

> <Tether>
0.000

$$$$
VeraChem MOL file


 29 28  0  0  0  0  0  0  0  0999 V2000     
   22.8547   22.7705   22.6126 C   0  0  0  0  0  0  0  0  0  0  0  0
   23.7633   22.1566   22.6640 H   0  0  0  0  0  0  0  0  0  0  0  0
   22.5516   22.8455   21.5601 H   0  0  0  0  0  0  0  0  0  0  0  0
   23.1091   23.7793   22.9628 H   0  0  0  0  0  0  0  0  0  0  0  0
   21.7261   22.1637   23.4728 C   0  0  0  0  0  0  0  0  0  0  0  0
   20.8429   22.8164   23.4286 H   0  0  0  0  0  0  0  0  0  0  0  0
   22.0453   22.1329   24.5240 H   0  0  0  0  0  0  0  0  0  0  0  0
   21.3483   20.7424   23.0006 C   0  0  0  0  0  0  0  0  0  0  0  0
   21.0323   20.7780   21.9488 H   0  0  0  0  0  0  0  0  0  0  0  0
   22.2346   20.0943   23.0445 H   0  0  0  0  0  0  0  0  0  0  0  0
   20.2183   20.1314   23.8596 C   0  0  0  0  0  0  0  0  0  0  0  0
   19.3323   20.7798   23.8150 H   0  0  0  0  0  0  0  0  0  0  0  0
   20.5354   20.0978   24.9112 H   0  0  0  0  0  0  0  0  0  0  0  0
   19.8411   18.7091   23.3871 C   0  0  0  0  0  0  0  0  0  0  0  0
   19.5344   18.7527   22.3338 H   0  0  0  0  0  0  0  0  0  0  0  0
   20.7261   18.0596   23.4366 H   0  0  0  0  0  0  0  0  0  0  0  0
   18.7055   18.1011   24.2465 C   0  0  0  0  0  0  0  0  0  0  0  0
   17.7984   18.7122   24.1476 H   0  0  0  0  0  0  0  0  0  0  0  0
   19.0013   18.1520   25.3027 H   0  0  0  0  0  0  0  0  0  0  0  0
   18.3816   16.6299   23.9002 C   0  0  2  0  0  0  0  0  0  0  0  0
   19.3076   16.0501   23.9649 H   0  0  0  0  0  0  0  0  0  0  0  0
   17.8110   16.4800   22.4785 C   0  0  0  0  0  0  0  0  0  0  0  0
   16.9130   17.0958   22.3444 H   0  0  0  0  0  0  0  0  0  0  0  0
   18.5461   16.7737   21.7205 H   0  0  0  0  0  0  0  0  0  0  0  0
   17.5401   15.4358   22.2792 H   0  0  0  0  0  0  0  0  0  0  0  0
   17.4363   16.0324   24.9051 N   0  3  0  0  0  0  0  0  0  0  0  0
   17.2496   15.0460   24.7025 H   0  0  0  0  0  0  0  0  0  0  0  0
   16.5360   16.5194   24.9074 H   0  0  0  0  0  0  0  0  0  0  0  0
   17.8154   16.0815   25.8552 H   0  0  0  0  0  0  0  0  0  0  0  0
  1  2  1  0  0  0  0
  1  3  1  0  0  0  0
  1  4  1  0  0  0  0
  1  5  1  0  0  0  0
  5  6  1  0  0  0  0
  5  7  1  0  0  0  0
  5  8  1  0  0  0  0
  8  9  1  0  0  0  0
  8 10  1  0  0  0  0
  8 11  1  0  0  0  0
 11 12  1  0  0  0  0
 11 13  1  0  0  0  0
 11 14  1  0  0  0  0
 14 15  1  0  0  0  0
 14 16  1  0  0  0  0
 14 17  1  0  0  0  0
 17 18  1  0  0  0  0
 17 19  1  0  0  0  0
 17 20  1  0  0  0  0
 20 21  1  0  0  0  0
 20 22  1  0  0  0  0
 22 23  1  0  0  0  0
 22 24  1  0  0  0  0
 22 25  1  0  0  0  0
 20 26  1  0  0  0  0
 26 27  1  0  0  0  0
 26 28  1  0  0  0  0
 26 29  1  0  0  0  0
M  END
> <VConfSearch Rank>
362

> <Conf_Id>
58

> <Delta U+W>
0.412

> <U+W>
-27.414

> <U>
24.279

> <W>
-51.694

> <W(PB)>
-54.271

> <W(SA)>
2.577

> <Valence>
3.709

> <Coulomb>
19.380

> <VdW>
1.191

> <VdW6>
-8.093

> <VdW12>
9.284

> <Bond>
0.200

> <Angle>
1.161

> <Pdih>
2.348

> <Idih>
0.000

> <Tether>
0.000

$$$$
VeraChem MOL file


 29 28  0  0  0  0  0  0  0  0999 V2000     
   17.0624   19.1722   27.3566 C   0  0  0  0  0  0  0  0  0  0  0  0
   17.6661   19.9613   27.8237 H   0  0  0  0  0  0  0  0  0  0  0  0
   16.2254   19.6486   26.8296 H   0  0  0  0  0  0  0  0  0  0  0  0
   16.6452   18.5482   28.1576 H   0  0  0  0  0  0  0  0  0  0  0  0
   17.9137   18.3214   26.3905 C   0  0  0  0  0  0  0  0  0  0  0  0
   17.2921   17.5209   25.9652 H   0  0  0  0  0  0  0  0  0  0  0  0
   18.7217   17.8313   26.9516 H   0  0  0  0  0  0  0  0  0  0  0  0
   18.5134   19.1764   25.2523 C   0  0  0  0  0  0  0  0  0  0  0  0
   17.7022   19.6658   24.6957 H   0  0  0  0  0  0  0  0  0  0  0  0
   19.1317   19.9764   25.6823 H   0  0  0  0  0  0  0  0  0  0  0  0
   19.3668   18.3277   24.2830 C   0  0  0  0  0  0  0  0  0  0  0  0
   18.7475   17.5277   23.8542 H   0  0  0  0  0  0  0  0  0  0  0  0
   20.1773   17.8384   24.8407 H   0  0  0  0  0  0  0  0  0  0  0  0
   19.9667   19.1834   23.1445 C   0  0  0  0  0  0  0  0  0  0  0  0
   19.1521   19.6704   22.5924 H   0  0  0  0  0  0  0  0  0  0  0  0
   20.5793   19.9822   23.5828 H   0  0  0  0  0  0  0  0  0  0  0  0
   20.8247   18.3268   22.1772 C   0  0  0  0  0  0  0  0  0  0  0  0
   20.2129   17.5036   21.7856 H   0  0  0  0  0  0  0  0  0  0  0  0
   21.6421   17.8549   22.7384 H   0  0  0  0  0  0  0  0  0  0  0  0
   21.4259   19.1006   20.9802 C   0  0  2  0  0  0  0  0  0  0  0  0
   21.9753   18.3780   20.3689 H   0  0  0  0  0  0  0  0  0  0  0  0
   22.4236   20.1814   21.4317 C   0  0  0  0  0  0  0  0  0  0  0  0
   22.9338   20.6183   20.5646 H   0  0  0  0  0  0  0  0  0  0  0  0
   21.9241   20.9950   21.9709 H   0  0  0  0  0  0  0  0  0  0  0  0
   23.1913   19.7535   22.0884 H   0  0  0  0  0  0  0  0  0  0  0  0
   20.3681   19.6847   20.0848 N   0  3  0  0  0  0  0  0  0  0  0  0
   19.7254   18.9641   19.7436 H   0  0  0  0  0  0  0  0  0  0  0  0
   20.7809   20.1396   19.2655 H   0  0  0  0  0  0  0  0  0  0  0  0
   19.8109   20.3868   20.5779 H   0  0  0  0  0  0  0  0  0  0  0  0
  1  2  1  0  0  0  0
  1  3  1  0  0  0  0
  1  4  1  0  0  0  0
  1  5  1  0  0  0  0
  5  6  1  0  0  0  0
  5  7  1  0  0  0  0
  5  8  1  0  0  0  0
  8  9  1  0  0  0  0
  8 10  1  0  0  0  0
  8 11  1  0  0  0  0
 11 12  1  0  0  0  0
 11 13  1  0  0  0  0
 11 14  1  0  0  0  0
 14 15  1  0  0  0  0
 14 16  1  0  0  0  0
 14 17  1  0  0  0  0
 17 18  1  0  0  0  0
 17 19  1  0  0  0  0
 17 20  1  0  0  0  0
 20 21  1  0  0  0  0
 20 22  1  0  0  0  0
 22 23  1  0  0  0  0
 22 24  1  0  0  0  0
 22 25  1  0  0  0  0
 20 26  1  0  0  0  0
 26 27  1  0  0  0  0
 26 28  1  0  0  0  0
 26 29  1  0  0  0  0
M  END
> <VConfSearch Rank>
363

> <Conf_Id>
137

> <Delta U+W>
0.280

> <U+W>
-27.546

> <U>
24.513

> <W>
-52.059

> <W(PB)>
-54.556

> <W(SA)>
2.497

> <Valence>
3.677

> <Coulomb>
19.662

> <VdW>
1.174

> <VdW6>
-8.569

> <VdW12>
9.743

> <Bond>
0.224

> <Angle>
1.211

> <Pdih>
2.243

> <Idih>
0.000

> <Tether>
0.000

$$$$
VeraChem MOL file


 29 28  0  0  0  0  0  0  0  0999 V2000     
   23.2397   17.0474   21.6894 C   0  0  0  0  0  0  0  0  0  0  0  0
   22.4523   16.3772   21.3205 H   0  0  0  0  0  0  0  0  0  0  0  0
   23.4135   17.8213   20.9304 H   0  0  0  0  0  0  0  0  0  0  0  0
   24.1620   16.4606   21.7899 H   0  0  0  0  0  0  0  0  0  0  0  0
   22.8440   17.6763   23.0422 C   0  0  0  0  0  0  0  0  0  0  0  0
   23.6647   18.3129   23.4016 H   0  0  0  0  0  0  0  0  0  0  0  0
   22.7092   16.8810   23.7886 H   0  0  0  0  0  0  0  0  0  0  0  0
   21.5481   18.5093   22.9284 C   0  0  0  0  0  0  0  0  0  0  0  0
   21.6889   19.3042   22.1831 H   0  0  0  0  0  0  0  0  0  0  0  0
   20.7410   17.8637   22.5591 H   0  0  0  0  0  0  0  0  0  0  0  0
   21.1487   19.1367   24.2859 C   0  0  0  0  0  0  0  0  0  0  0  0
   22.0017   19.7078   24.6777 H   0  0  0  0  0  0  0  0  0  0  0  0
   20.9482   18.3420   25.0178 H   0  0  0  0  0  0  0  0  0  0  0  0
   19.9263   20.0839   24.1997 C   0  0  0  0  0  0  0  0  0  0  0  0
   19.8224   20.5858   25.1701 H   0  0  0  0  0  0  0  0  0  0  0  0
   20.1245   20.8737   23.4620 H   0  0  0  0  0  0  0  0  0  0  0  0
   18.6024   19.3572   23.8462 C   0  0  0  0  0  0  0  0  0  0  0  0
   18.3989   18.5749   24.5894 H   0  0  0  0  0  0  0  0  0  0  0  0
   18.7204   18.8483   22.8821 H   0  0  0  0  0  0  0  0  0  0  0  0
   17.3832   20.3019   23.7390 C   0  0  2  0  0  0  0  0  0  0  0  0
   17.6323   21.1061   23.0399 H   0  0  0  0  0  0  0  0  0  0  0  0
   17.0111   20.9305   25.0941 C   0  0  0  0  0  0  0  0  0  0  0  0
   16.8186   20.1590   25.8500 H   0  0  0  0  0  0  0  0  0  0  0  0
   17.8090   21.5840   25.4647 H   0  0  0  0  0  0  0  0  0  0  0  0
   16.1080   21.5459   24.9990 H   0  0  0  0  0  0  0  0  0  0  0  0
   16.1950   19.5878   23.1568 N   0  3  0  0  0  0  0  0  0  0  0  0
   16.4041   19.1986   22.2328 H   0  0  0  0  0  0  0  0  0  0  0  0
   15.3961   20.2191   23.0474 H   0  0  0  0  0  0  0  0  0  0  0  0
   15.8932   18.8143   23.7556 H   0  0  0  0  0  0  0  0  0  0  0  0
  1  2  1  0  0  0  0
  1  3  1  0  0  0  0
  1  4  1  0  0  0  0
  1  5  1  0  0  0  0
  5  6  1  0  0  0  0
  5  7  1  0  0  0  0
  5  8  1  0  0  0  0
  8  9  1  0  0  0  0
  8 10  1  0  0  0  0
  8 11  1  0  0  0  0
 11 12  1  0  0  0  0
 11 13  1  0  0  0  0
 11 14  1  0  0  0  0
 14 15  1  0  0  0  0
 14 16  1  0  0  0  0
 14 17  1  0  0  0  0
 17 18  1  0  0  0  0
 17 19  1  0  0  0  0
 17 20  1  0  0  0  0
 20 21  1  0  0  0  0
 20 22  1  0  0  0  0
 22 23  1  0  0  0  0
 22 24  1  0  0  0  0
 22 25  1  0  0  0  0
 20 26  1  0  0  0  0
 26 27  1  0  0  0  0
 26 28  1  0  0  0  0
 26 29  1  0  0  0  0
M  END
> <VConfSearch Rank>
364

> <Conf_Id>
40

> <Delta U+W>
1.128

> <U+W>
-26.698

> <U>
25.442

> <W>
-52.140

> <W(PB)>
-54.658

> <W(SA)>
2.519

> <Valence>
4.343

> <Coulomb>
19.740

> <VdW>
1.360

> <VdW6>
-8.739

> <VdW12>
10.099

> <Bond>
0.251

> <Angle>
1.483

> <Pdih>
2.608

> <Idih>
0.000

> <Tether>
0.000

$$$$
VeraChem MOL file


 29 28  0  0  0  0  0  0  0  0999 V2000     
   21.1581   16.9641   19.9954 C   0  0  0  0  0  0  0  0  0  0  0  0
   21.0879   16.1578   20.7357 H   0  0  0  0  0  0  0  0  0  0  0  0
   20.1899   17.0490   19.4852 H   0  0  0  0  0  0  0  0  0  0  0  0
   21.9049   16.6620   19.2498 H   0  0  0  0  0  0  0  0  0  0  0  0
   21.5607   18.3050   20.6503 C   0  0  0  0  0  0  0  0  0  0  0  0
   21.7433   19.0433   19.8570 H   0  0  0  0  0  0  0  0  0  0  0  0
   22.5140   18.1852   21.1837 H   0  0  0  0  0  0  0  0  0  0  0  0
   20.4885   18.8693   21.6139 C   0  0  0  0  0  0  0  0  0  0  0  0
   20.8020   19.8770   21.9142 H   0  0  0  0  0  0  0  0  0  0  0  0
   19.5380   18.9870   21.0757 H   0  0  0  0  0  0  0  0  0  0  0  0
   20.2715   17.9944   22.8749 C   0  0  0  0  0  0  0  0  0  0  0  0
   21.2206   17.8811   23.4166 H   0  0  0  0  0  0  0  0  0  0  0  0
   19.9686   16.9849   22.5687 H   0  0  0  0  0  0  0  0  0  0  0  0
   19.1881   18.5452   23.8351 C   0  0  0  0  0  0  0  0  0  0  0  0
   18.2445   18.6766   23.2876 H   0  0  0  0  0  0  0  0  0  0  0  0
   18.9968   17.7825   24.6012 H   0  0  0  0  0  0  0  0  0  0  0  0
   19.5851   19.8777   24.5218 C   0  0  0  0  0  0  0  0  0  0  0  0
   19.7486   20.6467   23.7571 H   0  0  0  0  0  0  0  0  0  0  0  0
   20.5385   19.7530   25.0520 H   0  0  0  0  0  0  0  0  0  0  0  0
   18.5096   20.3923   25.5034 C   0  0  2  0  0  0  0  0  0  0  0  0
   17.5618   20.4731   24.9622 H   0  0  0  0  0  0  0  0  0  0  0  0
   18.8872   21.7876   26.0261 C   0  0  0  0  0  0  0  0  0  0  0  0
   18.1103   22.1743   26.6971 H   0  0  0  0  0  0  0  0  0  0  0  0
   19.8346   21.7614   26.5790 H   0  0  0  0  0  0  0  0  0  0  0  0
   18.9947   22.4987   25.1975 H   0  0  0  0  0  0  0  0  0  0  0  0
   18.2749   19.4478   26.6506 N   0  3  0  0  0  0  0  0  0  0  0  0
   19.1246   19.3176   27.2061 H   0  0  0  0  0  0  0  0  0  0  0  0
   17.9770   18.5257   26.3211 H   0  0  0  0  0  0  0  0  0  0  0  0
   17.5472   19.7979   27.2803 H   0  0  0  0  0  0  0  0  0  0  0  0
  1  2  1  0  0  0  0
  1  3  1  0  0  0  0
  1  4  1  0  0  0  0
  1  5  1  0  0  0  0
  5  6  1  0  0  0  0
  5  7  1  0  0  0  0
  5  8  1  0  0  0  0
  8  9  1  0  0  0  0
  8 10  1  0  0  0  0
  8 11  1  0  0  0  0
 11 12  1  0  0  0  0
 11 13  1  0  0  0  0
 11 14  1  0  0  0  0
 14 15  1  0  0  0  0
 14 16  1  0  0  0  0
 14 17  1  0  0  0  0
 17 18  1  0  0  0  0
 17 19  1  0  0  0  0
 17 20  1  0  0  0  0
 20 21  1  0  0  0  0
 20 22  1  0  0  0  0
 22 23  1  0  0  0  0
 22 24  1  0  0  0  0
 22 25  1  0  0  0  0
 20 26  1  0  0  0  0
 26 27  1  0  0  0  0
 26 28  1  0  0  0  0
 26 29  1  0  0  0  0
M  END
> <VConfSearch Rank>
365

> <Conf_Id>
134

> <Delta U+W>
1.228

> <U+W>
-26.598

> <U>
25.451

> <W>
-52.048

> <W(PB)>
-54.539

> <W(SA)>
2.490

> <Valence>
4.319

> <Coulomb>
19.732

> <VdW>
1.400

> <VdW6>
-9.173

> <VdW12>
10.573

> <Bond>
0.281

> <Angle>
1.459

> <Pdih>
2.580

> <Idih>
0.000

> <Tether>
0.000

$$$$
VeraChem MOL file


 29 28  0  0  0  0  0  0  0  0999 V2000     
   19.6932   21.3911   19.8572 C   0  0  0  0  0  0  0  0  0  0  0  0
   20.7613   21.1424   19.8799 H   0  0  0  0  0  0  0  0  0  0  0  0
   19.1624   20.5841   19.3357 H   0  0  0  0  0  0  0  0  0  0  0  0
   19.5810   22.3062   19.2615 H   0  0  0  0  0  0  0  0  0  0  0  0
   19.1268   21.6001   21.2800 C   0  0  0  0  0  0  0  0  0  0  0  0
   18.0955   21.9708   21.1976 H   0  0  0  0  0  0  0  0  0  0  0  0
   19.6962   22.3875   21.7933 H   0  0  0  0  0  0  0  0  0  0  0  0
   19.1226   20.3123   22.1389 C   0  0  0  0  0  0  0  0  0  0  0  0
   18.5830   20.5280   23.0699 H   0  0  0  0  0  0  0  0  0  0  0  0
   18.5505   19.5293   21.6226 H   0  0  0  0  0  0  0  0  0  0  0  0
   20.5428   19.7892   22.4728 C   0  0  0  0  0  0  0  0  0  0  0  0
   21.1142   20.5719   22.9904 H   0  0  0  0  0  0  0  0  0  0  0  0
   21.0828   19.5778   21.5409 H   0  0  0  0  0  0  0  0  0  0  0  0
   20.5394   18.4973   23.3268 C   0  0  0  0  0  0  0  0  0  0  0  0
   19.9797   17.7173   22.7941 H   0  0  0  0  0  0  0  0  0  0  0  0
   21.5732   18.1348   23.4126 H   0  0  0  0  0  0  0  0  0  0  0  0
   19.9572   18.6977   24.7499 C   0  0  0  0  0  0  0  0  0  0  0  0
   18.8840   18.9188   24.6915 H   0  0  0  0  0  0  0  0  0  0  0  0
   20.4346   19.5764   25.2033 H   0  0  0  0  0  0  0  0  0  0  0  0
   20.1761   17.4852   25.6830 C   0  0  2  0  0  0  0  0  0  0  0  0
   21.2461   17.2565   25.7033 H   0  0  0  0  0  0  0  0  0  0  0  0
   19.4200   16.2363   25.1957 C   0  0  0  0  0  0  0  0  0  0  0  0
   18.3450   16.4345   25.1025 H   0  0  0  0  0  0  0  0  0  0  0  0
   19.7932   15.8993   24.2217 H   0  0  0  0  0  0  0  0  0  0  0  0
   19.5530   15.4052   25.8993 H   0  0  0  0  0  0  0  0  0  0  0  0
   19.7854   17.8115   27.0977 N   0  3  0  0  0  0  0  0  0  0  0  0
   20.3089   18.6147   27.4577 H   0  0  0  0  0  0  0  0  0  0  0  0
   19.9661   17.0237   27.7266 H   0  0  0  0  0  0  0  0  0  0  0  0
   18.7894   18.0364   27.1683 H   0  0  0  0  0  0  0  0  0  0  0  0
  1  2  1  0  0  0  0
  1  3  1  0  0  0  0
  1  4  1  0  0  0  0
  1  5  1  0  0  0  0
  5  6  1  0  0  0  0
  5  7  1  0  0  0  0
  5  8  1  0  0  0  0
  8  9  1  0  0  0  0
  8 10  1  0  0  0  0
  8 11  1  0  0  0  0
 11 12  1  0  0  0  0
 11 13  1  0  0  0  0
 11 14  1  0  0  0  0
 14 15  1  0  0  0  0
 14 16  1  0  0  0  0
 14 17  1  0  0  0  0
 17 18  1  0  0  0  0
 17 19  1  0  0  0  0
 17 20  1  0  0  0  0
 20 21  1  0  0  0  0
 20 22  1  0  0  0  0
 22 23  1  0  0  0  0
 22 24  1  0  0  0  0
 22 25  1  0  0  0  0
 20 26  1  0  0  0  0
 26 27  1  0  0  0  0
 26 28  1  0  0  0  0
 26 29  1  0  0  0  0
M  END
> <VConfSearch Rank>
366

> <Conf_Id>
73

> <Delta U+W>
1.580

> <U+W>
-26.246

> <U>
25.821

> <W>
-52.067

> <W(PB)>
-54.581

> <W(SA)>
2.514

> <Valence>
4.779

> <Coulomb>
19.614

> <VdW>
1.428

> <VdW6>
-9.390

> <VdW12>
10.818

> <Bond>
0.283

> <Angle>
1.640

> <Pdih>
2.856

> <Idih>
0.000

> <Tether>
0.000

$$$$
VeraChem MOL file


 29 28  0  0  0  0  0  0  0  0999 V2000     
   24.0736   17.8625   22.8836 C   0  0  0  0  0  0  0  0  0  0  0  0
   23.9915   18.5556   22.0362 H   0  0  0  0  0  0  0  0  0  0  0  0
   25.1214   17.8528   23.2107 H   0  0  0  0  0  0  0  0  0  0  0  0
   23.8223   16.8550   22.5271 H   0  0  0  0  0  0  0  0  0  0  0  0
   23.1455   18.2888   24.0408 C   0  0  0  0  0  0  0  0  0  0  0  0
   23.4416   19.2852   24.3976 H   0  0  0  0  0  0  0  0  0  0  0  0
   23.2757   17.5977   24.8854 H   0  0  0  0  0  0  0  0  0  0  0  0
   21.6631   18.3099   23.6069 C   0  0  0  0  0  0  0  0  0  0  0  0
   21.5500   18.9955   22.7573 H   0  0  0  0  0  0  0  0  0  0  0  0
   21.3714   17.3112   23.2537 H   0  0  0  0  0  0  0  0  0  0  0  0
   20.7324   18.7419   24.7656 C   0  0  0  0  0  0  0  0  0  0  0  0
   20.9831   19.7639   25.0817 H   0  0  0  0  0  0  0  0  0  0  0  0
   20.9218   18.0959   25.6340 H   0  0  0  0  0  0  0  0  0  0  0  0
   19.2256   18.6614   24.4169 C   0  0  0  0  0  0  0  0  0  0  0  0
   18.9753   17.6383   24.1039 H   0  0  0  0  0  0  0  0  0  0  0  0
   18.6549   18.8520   25.3352 H   0  0  0  0  0  0  0  0  0  0  0  0
   18.7898   19.6652   23.3185 C   0  0  0  0  0  0  0  0  0  0  0  0
   19.3432   19.4554   22.3949 H   0  0  0  0  0  0  0  0  0  0  0  0
   19.0572   20.6865   23.6208 H   0  0  0  0  0  0  0  0  0  0  0  0
   17.2793   19.5958   23.0050 C   0  0  2  0  0  0  0  0  0  0  0  0
   17.0305   18.5630   22.7423 H   0  0  0  0  0  0  0  0  0  0  0  0
   16.9411   20.4939   21.8043 C   0  0  0  0  0  0  0  0  0  0  0  0
   17.5117   20.1910   20.9175 H   0  0  0  0  0  0  0  0  0  0  0  0
   15.8754   20.4226   21.5540 H   0  0  0  0  0  0  0  0  0  0  0  0
   17.1728   21.5451   22.0171 H   0  0  0  0  0  0  0  0  0  0  0  0
   16.4261   19.9596   24.1895 N   0  3  0  0  0  0  0  0  0  0  0  0
   15.4289   19.8909   23.9673 H   0  0  0  0  0  0  0  0  0  0  0  0
   16.6062   20.9187   24.4983 H   0  0  0  0  0  0  0  0  0  0  0  0
   16.6060   19.3404   24.9843 H   0  0  0  0  0  0  0  0  0  0  0  0
  1  2  1  0  0  0  0
  1  3  1  0  0  0  0
  1  4  1  0  0  0  0
  1  5  1  0  0  0  0
  5  6  1  0  0  0  0
  5  7  1  0  0  0  0
  5  8  1  0  0  0  0
  8  9  1  0  0  0  0
  8 10  1  0  0  0  0
  8 11  1  0  0  0  0
 11 12  1  0  0  0  0
 11 13  1  0  0  0  0
 11 14  1  0  0  0  0
 14 15  1  0  0  0  0
 14 16  1  0  0  0  0
 14 17  1  0  0  0  0
 17 18  1  0  0  0  0
 17 19  1  0  0  0  0
 17 20  1  0  0  0  0
 20 21  1  0  0  0  0
 20 22  1  0  0  0  0
 22 23  1  0  0  0  0
 22 24  1  0  0  0  0
 22 25  1  0  0  0  0
 20 26  1  0  0  0  0
 26 27  1  0  0  0  0
 26 28  1  0  0  0  0
 26 29  1  0  0  0  0
M  END
> <VConfSearch Rank>
367

> <Conf_Id>
111

> <Delta U+W>
0.580

> <U+W>
-27.246

> <U>
24.710

> <W>
-51.957

> <W(PB)>
-54.511

> <W(SA)>
2.555

> <Valence>
3.735

> <Coulomb>
19.760

> <VdW>
1.216

> <VdW6>
-8.624

> <VdW12>
9.840

> <Bond>
0.236

> <Angle>
1.168

> <Pdih>
2.330

> <Idih>
0.000

> <Tether>
0.000

$$$$
VeraChem MOL file


 29 28  0  0  0  0  0  0  0  0999 V2000     
   16.4976   17.1318   25.7191 C   0  0  0  0  0  0  0  0  0  0  0  0
   15.7641   17.8898   25.4147 H   0  0  0  0  0  0  0  0  0  0  0  0
   16.5990   16.4063   24.9014 H   0  0  0  0  0  0  0  0  0  0  0  0
   16.0931   16.6023   26.5914 H   0  0  0  0  0  0  0  0  0  0  0  0
   17.8568   17.7800   26.0573 C   0  0  0  0  0  0  0  0  0  0  0  0
   18.5591   17.0025   26.3895 H   0  0  0  0  0  0  0  0  0  0  0  0
   17.7298   18.4737   26.9002 H   0  0  0  0  0  0  0  0  0  0  0  0
   18.4485   18.5333   24.8455 C   0  0  0  0  0  0  0  0  0  0  0  0
   18.5620   17.8318   24.0086 H   0  0  0  0  0  0  0  0  0  0  0  0
   17.7441   19.3104   24.5183 H   0  0  0  0  0  0  0  0  0  0  0  0
   19.8134   19.1802   25.1823 C   0  0  0  0  0  0  0  0  0  0  0  0
   20.5351   18.3996   25.4599 H   0  0  0  0  0  0  0  0  0  0  0  0
   19.6973   19.8212   26.0672 H   0  0  0  0  0  0  0  0  0  0  0  0
   20.3921   20.0362   24.0290 C   0  0  0  0  0  0  0  0  0  0  0  0
   19.6776   20.8322   23.7808 H   0  0  0  0  0  0  0  0  0  0  0  0
   21.3024   20.5357   24.3885 H   0  0  0  0  0  0  0  0  0  0  0  0
   20.7357   19.2109   22.7622 C   0  0  0  0  0  0  0  0  0  0  0  0
   19.8176   18.8173   22.3080 H   0  0  0  0  0  0  0  0  0  0  0  0
   21.3350   18.3414   23.0626 H   0  0  0  0  0  0  0  0  0  0  0  0
   21.5273   20.0085   21.7010 C   0  0  2  0  0  0  0  0  0  0  0  0
   22.4204   20.4229   22.1788 H   0  0  0  0  0  0  0  0  0  0  0  0
   20.7036   21.1701   21.1169 C   0  0  0  0  0  0  0  0  0  0  0  0
   19.7655   20.8094   20.6769 H   0  0  0  0  0  0  0  0  0  0  0  0
   20.4598   21.9120   21.8860 H   0  0  0  0  0  0  0  0  0  0  0  0
   21.2693   21.6891   20.3334 H   0  0  0  0  0  0  0  0  0  0  0  0
   22.0145   19.1098   20.5986 N   0  3  0  0  0  0  0  0  0  0  0  0
   22.6016   18.3529   20.9608 H   0  0  0  0  0  0  0  0  0  0  0  0
   22.5731   19.6273   19.9139 H   0  0  0  0  0  0  0  0  0  0  0  0
   21.2345   18.6799   20.0941 H   0  0  0  0  0  0  0  0  0  0  0  0
  1  2  1  0  0  0  0
  1  3  1  0  0  0  0
  1  4  1  0  0  0  0
  1  5  1  0  0  0  0
  5  6  1  0  0  0  0
  5  7  1  0  0  0  0
  5  8  1  0  0  0  0
  8  9  1  0  0  0  0
  8 10  1  0  0  0  0
  8 11  1  0  0  0  0
 11 12  1  0  0  0  0
 11 13  1  0  0  0  0
 11 14  1  0  0  0  0
 14 15  1  0  0  0  0
 14 16  1  0  0  0  0
 14 17  1  0  0  0  0
 17 18  1  0  0  0  0
 17 19  1  0  0  0  0
 17 20  1  0  0  0  0
 20 21  1  0  0  0  0
 20 22  1  0  0  0  0
 22 23  1  0  0  0  0
 22 24  1  0  0  0  0
 22 25  1  0  0  0  0
 20 26  1  0  0  0  0
 26 27  1  0  0  0  0
 26 28  1  0  0  0  0
 26 29  1  0  0  0  0
M  END
> <VConfSearch Rank>
368

> <Conf_Id>
39

> <Delta U+W>
0.965

> <U+W>
-26.861

> <U>
25.129

> <W>
-51.990

> <W(PB)>
-54.526

> <W(SA)>
2.536

> <Valence>
4.206

> <Coulomb>
19.678

> <VdW>
1.245

> <VdW6>
-8.834

> <VdW12>
10.079

> <Bond>
0.240

> <Angle>
1.353

> <Pdih>
2.613

> <Idih>
0.000

> <Tether>
0.000

$$$$
VeraChem MOL file


 29 28  0  0  0  0  0  0  0  0999 V2000     
   15.8099   20.5510   24.1649 C   0  0  0  0  0  0  0  0  0  0  0  0
   15.7027   19.9024   25.0440 H   0  0  0  0  0  0  0  0  0  0  0  0
   16.4327   21.4096   24.4442 H   0  0  0  0  0  0  0  0  0  0  0  0
   14.8144   20.9362   23.9089 H   0  0  0  0  0  0  0  0  0  0  0  0
   16.4120   19.7749   22.9716 C   0  0  0  0  0  0  0  0  0  0  0  0
   16.5420   20.4530   22.1166 H   0  0  0  0  0  0  0  0  0  0  0  0
   15.6919   19.0096   22.6500 H   0  0  0  0  0  0  0  0  0  0  0  0
   17.7568   19.0822   23.2999 C   0  0  0  0  0  0  0  0  0  0  0  0
   17.6212   18.4051   24.1545 H   0  0  0  0  0  0  0  0  0  0  0  0
   18.0297   18.4514   22.4445 H   0  0  0  0  0  0  0  0  0  0  0  0
   18.9066   20.0779   23.5980 C   0  0  0  0  0  0  0  0  0  0  0  0
   18.6275   20.7128   24.4487 H   0  0  0  0  0  0  0  0  0  0  0  0
   19.0452   20.7520   22.7417 H   0  0  0  0  0  0  0  0  0  0  0  0
   20.2505   19.3878   23.9389 C   0  0  0  0  0  0  0  0  0  0  0  0
   20.9563   20.1617   24.2676 H   0  0  0  0  0  0  0  0  0  0  0  0
   20.1024   18.7185   24.7967 H   0  0  0  0  0  0  0  0  0  0  0  0
   20.8624   18.6026   22.7465 C   0  0  0  0  0  0  0  0  0  0  0  0
   20.8981   19.2548   21.8641 H   0  0  0  0  0  0  0  0  0  0  0  0
   20.2068   17.7648   22.4790 H   0  0  0  0  0  0  0  0  0  0  0  0
   22.2821   18.0423   22.9990 C   0  0  2  0  0  0  0  0  0  0  0  0
   22.5943   17.5245   22.0868 H   0  0  0  0  0  0  0  0  0  0  0  0
   22.3027   17.0177   24.1466 C   0  0  0  0  0  0  0  0  0  0  0  0
   22.0884   17.4881   25.1136 H   0  0  0  0  0  0  0  0  0  0  0  0
   21.5612   16.2272   23.9766 H   0  0  0  0  0  0  0  0  0  0  0  0
   23.2877   16.5403   24.2171 H   0  0  0  0  0  0  0  0  0  0  0  0
   23.2969   19.1285   23.2282 N   0  3  0  0  0  0  0  0  0  0  0  0
   23.3197   19.7915   22.4482 H   0  0  0  0  0  0  0  0  0  0  0  0
   24.2402   18.7434   23.3305 H   0  0  0  0  0  0  0  0  0  0  0  0
   23.0880   19.6587   24.0778 H   0  0  0  0  0  0  0  0  0  0  0  0
  1  2  1  0  0  0  0
  1  3  1  0  0  0  0
  1  4  1  0  0  0  0
  1  5  1  0  0  0  0
  5  6  1  0  0  0  0
  5  7  1  0  0  0  0
  5  8  1  0  0  0  0
  8  9  1  0  0  0  0
  8 10  1  0  0  0  0
  8 11  1  0  0  0  0
 11 12  1  0  0  0  0
 11 13  1  0  0  0  0
 11 14  1  0  0  0  0
 14 15  1  0  0  0  0
 14 16  1  0  0  0  0
 14 17  1  0  0  0  0
 17 18  1  0  0  0  0
 17 19  1  0  0  0  0
 17 20  1  0  0  0  0
 20 21  1  0  0  0  0
 20 22  1  0  0  0  0
 22 23  1  0  0  0  0
 22 24  1  0  0  0  0
 22 25  1  0  0  0  0
 20 26  1  0  0  0  0
 26 27  1  0  0  0  0
 26 28  1  0  0  0  0
 26 29  1  0  0  0  0
M  END
> <VConfSearch Rank>
369

> <Conf_Id>
155

> <Delta U+W>
1.624

> <U+W>
-26.202

> <U>
25.894

> <W>
-52.096

> <W(PB)>
-54.602

> <W(SA)>
2.506

> <Valence>
4.779

> <Coulomb>
19.659

> <VdW>
1.456

> <VdW6>
-9.843

> <VdW12>
11.299

> <Bond>
0.315

> <Angle>
1.725

> <Pdih>
2.740

> <Idih>
0.000

> <Tether>
0.000

$$$$
VeraChem MOL file


 29 28  0  0  0  0  0  0  0  0999 V2000     
   23.6616   18.0419   23.4135 C   0  0  0  0  0  0  0  0  0  0  0  0
   23.4751   18.2555   24.4734 H   0  0  0  0  0  0  0  0  0  0  0  0
   23.1852   17.0843   23.1663 H   0  0  0  0  0  0  0  0  0  0  0  0
   24.7452   17.9208   23.2867 H   0  0  0  0  0  0  0  0  0  0  0  0
   23.1339   19.1757   22.5055 C   0  0  0  0  0  0  0  0  0  0  0  0
   23.4445   18.9751   21.4706 H   0  0  0  0  0  0  0  0  0  0  0  0
   23.6061   20.1265   22.7894 H   0  0  0  0  0  0  0  0  0  0  0  0
   21.5938   19.3240   22.5427 C   0  0  0  0  0  0  0  0  0  0  0  0
   21.2976   20.0776   21.8001 H   0  0  0  0  0  0  0  0  0  0  0  0
   21.1365   18.3777   22.2261 H   0  0  0  0  0  0  0  0  0  0  0  0
   21.0521   19.7414   23.9334 C   0  0  0  0  0  0  0  0  0  0  0  0
   21.6197   20.6120   24.2897 H   0  0  0  0  0  0  0  0  0  0  0  0
   21.2263   18.9388   24.6623 H   0  0  0  0  0  0  0  0  0  0  0  0
   19.5472   20.1074   23.9288 C   0  0  0  0  0  0  0  0  0  0  0  0
   19.2984   20.5166   24.9163 H   0  0  0  0  0  0  0  0  0  0  0  0
   19.3668   20.9139   23.2047 H   0  0  0  0  0  0  0  0  0  0  0  0
   18.6196   18.9047   23.6149 C   0  0  0  0  0  0  0  0  0  0  0  0
   18.7913   18.1033   24.3457 H   0  0  0  0  0  0  0  0  0  0  0  0
   18.8869   18.4944   22.6336 H   0  0  0  0  0  0  0  0  0  0  0  0
   17.1171   19.2682   23.5855 C   0  0  2  0  0  0  0  0  0  0  0  0
   16.9803   20.1077   22.8969 H   0  0  0  0  0  0  0  0  0  0  0  0
   16.5900   19.6825   24.9713 C   0  0  0  0  0  0  0  0  0  0  0  0
   16.7678   18.8957   25.7150 H   0  0  0  0  0  0  0  0  0  0  0  0
   17.0693   20.6032   25.3230 H   0  0  0  0  0  0  0  0  0  0  0  0
   15.5108   19.8751   24.9319 H   0  0  0  0  0  0  0  0  0  0  0  0
   16.2965   18.1335   23.0382 N   0  3  0  0  0  0  0  0  0  0  0  0
   16.5993   17.8689   22.0963 H   0  0  0  0  0  0  0  0  0  0  0  0
   15.3050   18.3832   22.9802 H   0  0  0  0  0  0  0  0  0  0  0  0
   16.3677   17.3012   23.6297 H   0  0  0  0  0  0  0  0  0  0  0  0
  1  2  1  0  0  0  0
  1  3  1  0  0  0  0
  1  4  1  0  0  0  0
  1  5  1  0  0  0  0
  5  6  1  0  0  0  0
  5  7  1  0  0  0  0
  5  8  1  0  0  0  0
  8  9  1  0  0  0  0
  8 10  1  0  0  0  0
  8 11  1  0  0  0  0
 11 12  1  0  0  0  0
 11 13  1  0  0  0  0
 11 14  1  0  0  0  0
 14 15  1  0  0  0  0
 14 16  1  0  0  0  0
 14 17  1  0  0  0  0
 17 18  1  0  0  0  0
 17 19  1  0  0  0  0
 17 20  1  0  0  0  0
 20 21  1  0  0  0  0
 20 22  1  0  0  0  0
 22 23  1  0  0  0  0
 22 24  1  0  0  0  0
 22 25  1  0  0  0  0
 20 26  1  0  0  0  0
 26 27  1  0  0  0  0
 26 28  1  0  0  0  0
 26 29  1  0  0  0  0
M  END
> <VConfSearch Rank>
370

> <Conf_Id>
135

> <Delta U+W>
1.581

> <U+W>
-26.245

> <U>
25.974

> <W>
-52.219

> <W(PB)>
-54.709

> <W(SA)>
2.490

> <Valence>
4.811

> <Coulomb>
19.700

> <VdW>
1.463

> <VdW6>
-9.391

> <VdW12>
10.854

> <Bond>
0.285

> <Angle>
1.671

> <Pdih>
2.855

> <Idih>
0.000

> <Tether>
0.000

$$$$
VeraChem MOL file


 29 28  0  0  0  0  0  0  0  0999 V2000     
   22.7847   18.5353   26.1655 C   0  0  0  0  0  0  0  0  0  0  0  0
   22.1348   19.2060   26.7423 H   0  0  0  0  0  0  0  0  0  0  0  0
   22.3217   17.5409   26.1451 H   0  0  0  0  0  0  0  0  0  0  0  0
   23.7370   18.4452   26.7039 H   0  0  0  0  0  0  0  0  0  0  0  0
   23.0195   19.0807   24.7387 C   0  0  0  0  0  0  0  0  0  0  0  0
   23.6501   18.3797   24.1742 H   0  0  0  0  0  0  0  0  0  0  0  0
   23.5875   20.0190   24.8067 H   0  0  0  0  0  0  0  0  0  0  0  0
   21.7084   19.3483   23.9612 C   0  0  0  0  0  0  0  0  0  0  0  0
   21.1010   20.0720   24.5206 H   0  0  0  0  0  0  0  0  0  0  0  0
   21.9608   19.8267   23.0049 H   0  0  0  0  0  0  0  0  0  0  0  0
   20.8864   18.0643   23.6843 C   0  0  0  0  0  0  0  0  0  0  0  0
   20.5246   17.6377   24.6291 H   0  0  0  0  0  0  0  0  0  0  0  0
   21.5437   17.3079   23.2339 H   0  0  0  0  0  0  0  0  0  0  0  0
   19.6838   18.2979   22.7375 C   0  0  0  0  0  0  0  0  0  0  0  0
   20.0527   18.6863   21.7790 H   0  0  0  0  0  0  0  0  0  0  0  0
   19.2162   17.3274   22.5210 H   0  0  0  0  0  0  0  0  0  0  0  0
   18.6150   19.2538   23.3272 C   0  0  0  0  0  0  0  0  0  0  0  0
   19.0276   20.2661   23.4247 H   0  0  0  0  0  0  0  0  0  0  0  0
   18.3666   18.9174   24.3425 H   0  0  0  0  0  0  0  0  0  0  0  0
   17.3122   19.3118   22.4977 C   0  0  2  0  0  0  0  0  0  0  0  0
   16.9345   18.2915   22.3802 H   0  0  0  0  0  0  0  0  0  0  0  0
   17.5432   19.9103   21.0986 C   0  0  0  0  0  0  0  0  0  0  0  0
   17.9790   20.9150   21.1637 H   0  0  0  0  0  0  0  0  0  0  0  0
   18.2150   19.2820   20.5024 H   0  0  0  0  0  0  0  0  0  0  0  0
   16.5966   19.9850   20.5493 H   0  0  0  0  0  0  0  0  0  0  0  0
   16.2415   20.0796   23.2219 N   0  3  0  0  0  0  0  0  0  0  0  0
   15.3643   20.0867   22.6935 H   0  0  0  0  0  0  0  0  0  0  0  0
   16.5161   21.0543   23.3712 H   0  0  0  0  0  0  0  0  0  0  0  0
   16.0407   19.6721   24.1398 H   0  0  0  0  0  0  0  0  0  0  0  0
  1  2  1  0  0  0  0
  1  3  1  0  0  0  0
  1  4  1  0  0  0  0
  1  5  1  0  0  0  0
  5  6  1  0  0  0  0
  5  7  1  0  0  0  0
  5  8  1  0  0  0  0
  8  9  1  0  0  0  0
  8 10  1  0  0  0  0
  8 11  1  0  0  0  0
 11 12  1  0  0  0  0
 11 13  1  0  0  0  0
 11 14  1  0  0  0  0
 14 15  1  0  0  0  0
 14 16  1  0  0  0  0
 14 17  1  0  0  0  0
 17 18  1  0  0  0  0
 17 19  1  0  0  0  0
 17 20  1  0  0  0  0
 20 21  1  0  0  0  0
 20 22  1  0  0  0  0
 22 23  1  0  0  0  0
 22 24  1  0  0  0  0
 22 25  1  0  0  0  0
 20 26  1  0  0  0  0
 26 27  1  0  0  0  0
 26 28  1  0  0  0  0
 26 29  1  0  0  0  0
M  END
> <VConfSearch Rank>
371

> <Conf_Id>
130

> <Delta U+W>
1.359

> <U+W>
-26.467

> <U>
25.687

> <W>
-52.154

> <W(PB)>
-54.643

> <W(SA)>
2.489

> <Valence>
4.682

> <Coulomb>
19.653

> <VdW>
1.352

> <VdW6>
-9.477

> <VdW12>
10.829

> <Bond>
0.274

> <Angle>
1.550

> <Pdih>
2.858

> <Idih>
0.000

> <Tether>
0.000

$$$$
VeraChem MOL file


 29 28  0  0  0  0  0  0  0  0999 V2000     
   16.4521   21.1586   22.4153 C   0  0  0  0  0  0  0  0  0  0  0  0
   16.0762   21.9997   21.8184 H   0  0  0  0  0  0  0  0  0  0  0  0
   15.6145   20.4714   22.5919 H   0  0  0  0  0  0  0  0  0  0  0  0
   16.7777   21.5608   23.3825 H   0  0  0  0  0  0  0  0  0  0  0  0
   17.6088   20.4468   21.6776 C   0  0  0  0  0  0  0  0  0  0  0  0
   18.4465   21.1452   21.5427 H   0  0  0  0  0  0  0  0  0  0  0  0
   17.2697   20.1750   20.6681 H   0  0  0  0  0  0  0  0  0  0  0  0
   18.1041   19.1679   22.3952 C   0  0  0  0  0  0  0  0  0  0  0  0
   17.2666   18.4664   22.5106 H   0  0  0  0  0  0  0  0  0  0  0  0
   18.8324   18.6704   21.7424 H   0  0  0  0  0  0  0  0  0  0  0  0
   18.7440   19.4474   23.7793 C   0  0  0  0  0  0  0  0  0  0  0  0
   17.9854   19.8824   24.4428 H   0  0  0  0  0  0  0  0  0  0  0  0
   19.5320   20.2030   23.6755 H   0  0  0  0  0  0  0  0  0  0  0  0
   19.3013   18.1708   24.4612 C   0  0  0  0  0  0  0  0  0  0  0  0
   19.4639   18.3662   25.5301 H   0  0  0  0  0  0  0  0  0  0  0  0
   18.5274   17.3917   24.4216 H   0  0  0  0  0  0  0  0  0  0  0  0
   20.6100   17.6157   23.8335 C   0  0  0  0  0  0  0  0  0  0  0  0
   20.6802   17.8819   22.7721 H   0  0  0  0  0  0  0  0  0  0  0  0
   20.5555   16.5195   23.8633 H   0  0  0  0  0  0  0  0  0  0  0  0
   21.9060   18.0380   24.5661 C   0  0  2  0  0  0  0  0  0  0  0  0
   21.8243   17.7242   25.6113 H   0  0  0  0  0  0  0  0  0  0  0  0
   22.1362   19.5584   24.5374 C   0  0  0  0  0  0  0  0  0  0  0  0
   21.3593   20.0846   25.1039 H   0  0  0  0  0  0  0  0  0  0  0  0
   23.0990   19.8129   24.9973 H   0  0  0  0  0  0  0  0  0  0  0  0
   22.1377   19.9409   23.5092 H   0  0  0  0  0  0  0  0  0  0  0  0
   23.1017   17.3214   24.0029 N   0  3  0  0  0  0  0  0  0  0  0  0
   22.9912   16.3046   24.0550 H   0  0  0  0  0  0  0  0  0  0  0  0
   23.9561   17.5614   24.5139 H   0  0  0  0  0  0  0  0  0  0  0  0
   23.2548   17.5647   23.0206 H   0  0  0  0  0  0  0  0  0  0  0  0
  1  2  1  0  0  0  0
  1  3  1  0  0  0  0
  1  4  1  0  0  0  0
  1  5  1  0  0  0  0
  5  6  1  0  0  0  0
  5  7  1  0  0  0  0
  5  8  1  0  0  0  0
  8  9  1  0  0  0  0
  8 10  1  0  0  0  0
  8 11  1  0  0  0  0
 11 12  1  0  0  0  0
 11 13  1  0  0  0  0
 11 14  1  0  0  0  0
 14 15  1  0  0  0  0
 14 16  1  0  0  0  0
 14 17  1  0  0  0  0
 17 18  1  0  0  0  0
 17 19  1  0  0  0  0
 17 20  1  0  0  0  0
 20 21  1  0  0  0  0
 20 22  1  0  0  0  0
 22 23  1  0  0  0  0
 22 24  1  0  0  0  0
 22 25  1  0  0  0  0
 20 26  1  0  0  0  0
 26 27  1  0  0  0  0
 26 28  1  0  0  0  0
 26 29  1  0  0  0  0
M  END
> <VConfSearch Rank>
372

> <Conf_Id>
157

> <Delta U+W>
4.354

> <U+W>
-23.472

> <U>
28.780

> <W>
-52.252

> <W(PB)>
-54.715

> <W(SA)>
2.462

> <Valence>
7.566

> <Coulomb>
19.822

> <VdW>
1.392

> <VdW6>
-10.248

> <VdW12>
11.641

> <Bond>
0.340

> <Angle>
2.096

> <Pdih>
5.129

> <Idih>
0.000

> <Tether>
0.000

$$$$
VeraChem MOL file


 29 28  0  0  0  0  0  0  0  0999 V2000     
   23.0704   20.6373   22.9334 C   0  0  0  0  0  0  0  0  0  0  0  0
   23.8204   21.3114   23.3670 H   0  0  0  0  0  0  0  0  0  0  0  0
   22.8244   19.8835   23.6894 H   0  0  0  0  0  0  0  0  0  0  0  0
   23.5372   20.1228   22.0835 H   0  0  0  0  0  0  0  0  0  0  0  0
   21.8255   21.4343   22.4788 C   0  0  0  0  0  0  0  0  0  0  0  0
   22.1518   22.1783   21.7386 H   0  0  0  0  0  0  0  0  0  0  0  0
   21.4100   22.0070   23.3195 H   0  0  0  0  0  0  0  0  0  0  0  0
   20.7288   20.5463   21.8365 C   0  0  0  0  0  0  0  0  0  0  0  0
   20.2663   21.1141   21.0173 H   0  0  0  0  0  0  0  0  0  0  0  0
   21.1824   19.6640   21.3645 H   0  0  0  0  0  0  0  0  0  0  0  0
   19.5942   20.1114   22.7998 C   0  0  0  0  0  0  0  0  0  0  0  0
   18.8511   19.5571   22.2121 H   0  0  0  0  0  0  0  0  0  0  0  0
   19.0788   21.0036   23.1811 H   0  0  0  0  0  0  0  0  0  0  0  0
   20.0687   19.2441   23.9918 C   0  0  0  0  0  0  0  0  0  0  0  0
   20.6585   18.3940   23.6245 H   0  0  0  0  0  0  0  0  0  0  0  0
   20.7418   19.8384   24.6228 H   0  0  0  0  0  0  0  0  0  0  0  0
   18.9055   18.7402   24.8847 C   0  0  0  0  0  0  0  0  0  0  0  0
   18.3817   19.6087   25.3059 H   0  0  0  0  0  0  0  0  0  0  0  0
   19.3246   18.1918   25.7389 H   0  0  0  0  0  0  0  0  0  0  0  0
   17.8828   17.8402   24.1553 C   0  0  2  0  0  0  0  0  0  0  0  0
   17.4502   18.4089   23.3272 H   0  0  0  0  0  0  0  0  0  0  0  0
   16.7442   17.4440   25.1085 C   0  0  0  0  0  0  0  0  0  0  0  0
   17.1220   16.8622   25.9586 H   0  0  0  0  0  0  0  0  0  0  0  0
   16.2380   18.3345   25.5017 H   0  0  0  0  0  0  0  0  0  0  0  0
   15.9938   16.8380   24.5860 H   0  0  0  0  0  0  0  0  0  0  0  0
   18.5203   16.6177   23.5545 N   0  3  0  0  0  0  0  0  0  0  0  0
   19.2547   16.8724   22.8884 H   0  0  0  0  0  0  0  0  0  0  0  0
   17.8347   16.0451   23.0538 H   0  0  0  0  0  0  0  0  0  0  0  0
   18.9464   16.0279   24.2743 H   0  0  0  0  0  0  0  0  0  0  0  0
  1  2  1  0  0  0  0
  1  3  1  0  0  0  0
  1  4  1  0  0  0  0
  1  5  1  0  0  0  0
  5  6  1  0  0  0  0
  5  7  1  0  0  0  0
  5  8  1  0  0  0  0
  8  9  1  0  0  0  0
  8 10  1  0  0  0  0
  8 11  1  0  0  0  0
 11 12  1  0  0  0  0
 11 13  1  0  0  0  0
 11 14  1  0  0  0  0
 14 15  1  0  0  0  0
 14 16  1  0  0  0  0
 14 17  1  0  0  0  0
 17 18  1  0  0  0  0
 17 19  1  0  0  0  0
 17 20  1  0  0  0  0
 20 21  1  0  0  0  0
 20 22  1  0  0  0  0
 22 23  1  0  0  0  0
 22 24  1  0  0  0  0
 22 25  1  0  0  0  0
 20 26  1  0  0  0  0
 26 27  1  0  0  0  0
 26 28  1  0  0  0  0
 26 29  1  0  0  0  0
M  END
> <VConfSearch Rank>
373

> <Conf_Id>
158

> <Delta U+W>
3.648

> <U+W>
-24.178

> <U>
28.057

> <W>
-52.235

> <W(PB)>
-54.696

> <W(SA)>
2.460

> <Valence>
6.543

> <Coulomb>
20.387

> <VdW>
1.127

> <VdW6>
-10.342

> <VdW12>
11.469

> <Bond>
0.308

> <Angle>
1.938

> <Pdih>
4.297

> <Idih>
0.000

> <Tether>
0.000

$$$$
VeraChem MOL file


 29 28  0  0  0  0  0  0  0  0999 V2000     
   21.5636   20.1812   26.5613 C   0  0  0  0  0  0  0  0  0  0  0  0
   20.5865   20.2572   27.0558 H   0  0  0  0  0  0  0  0  0  0  0  0
   21.6773   19.1595   26.1785 H   0  0  0  0  0  0  0  0  0  0  0  0
   22.3384   20.3358   27.3232 H   0  0  0  0  0  0  0  0  0  0  0  0
   21.6983   21.2290   25.4331 C   0  0  0  0  0  0  0  0  0  0  0  0
   22.6699   21.1113   24.9332 H   0  0  0  0  0  0  0  0  0  0  0  0
   21.7026   22.2325   25.8811 H   0  0  0  0  0  0  0  0  0  0  0  0
   20.5594   21.1574   24.3876 C   0  0  0  0  0  0  0  0  0  0  0  0
   19.5918   21.2936   24.8900 H   0  0  0  0  0  0  0  0  0  0  0  0
   20.6691   22.0023   23.6937 H   0  0  0  0  0  0  0  0  0  0  0  0
   20.5464   19.8380   23.5794 C   0  0  0  0  0  0  0  0  0  0  0  0
   20.3834   18.9924   24.2565 H   0  0  0  0  0  0  0  0  0  0  0  0
   21.5311   19.6846   23.1170 H   0  0  0  0  0  0  0  0  0  0  0  0
   19.4593   19.8536   22.4767 C   0  0  0  0  0  0  0  0  0  0  0  0
   18.4755   20.0814   22.9098 H   0  0  0  0  0  0  0  0  0  0  0  0
   19.6843   20.6785   21.7864 H   0  0  0  0  0  0  0  0  0  0  0  0
   19.3900   18.5352   21.6612 C   0  0  0  0  0  0  0  0  0  0  0  0
   20.3694   18.0387   21.6552 H   0  0  0  0  0  0  0  0  0  0  0  0
   19.1826   18.7990   20.6157 H   0  0  0  0  0  0  0  0  0  0  0  0
   18.2912   17.5451   22.1174 C   0  0  2  0  0  0  0  0  0  0  0  0
   17.3266   18.0589   22.0628 H   0  0  0  0  0  0  0  0  0  0  0  0
   18.4909   17.0530   23.5607 C   0  0  0  0  0  0  0  0  0  0  0  0
   19.4858   16.6111   23.6965 H   0  0  0  0  0  0  0  0  0  0  0  0
   18.3729   17.8751   24.2762 H   0  0  0  0  0  0  0  0  0  0  0  0
   17.7426   16.2931   23.8174 H   0  0  0  0  0  0  0  0  0  0  0  0
   18.1986   16.3745   21.1785 N   0  3  0  0  0  0  0  0  0  0  0  0
   18.0170   16.6758   20.2166 H   0  0  0  0  0  0  0  0  0  0  0  0
   17.4417   15.7391   21.4466 H   0  0  0  0  0  0  0  0  0  0  0  0
   19.0659   15.8309   21.1722 H   0  0  0  0  0  0  0  0  0  0  0  0
  1  2  1  0  0  0  0
  1  3  1  0  0  0  0
  1  4  1  0  0  0  0
  1  5  1  0  0  0  0
  5  6  1  0  0  0  0
  5  7  1  0  0  0  0
  5  8  1  0  0  0  0
  8  9  1  0  0  0  0
  8 10  1  0  0  0  0
  8 11  1  0  0  0  0
 11 12  1  0  0  0  0
 11 13  1  0  0  0  0
 11 14  1  0  0  0  0
 14 15  1  0  0  0  0
 14 16  1  0  0  0  0
 14 17  1  0  0  0  0
 17 18  1  0  0  0  0
 17 19  1  0  0  0  0
 17 20  1  0  0  0  0
 20 21  1  0  0  0  0
 20 22  1  0  0  0  0
 22 23  1  0  0  0  0
 22 24  1  0  0  0  0
 22 25  1  0  0  0  0
 20 26  1  0  0  0  0
 26 27  1  0  0  0  0
 26 28  1  0  0  0  0
 26 29  1  0  0  0  0
M  END
> <VConfSearch Rank>
374

> <Conf_Id>
156

> <Delta U+W>
3.393

> <U+W>
-24.433

> <U>
27.713

> <W>
-52.146

> <W(PB)>
-54.603

> <W(SA)>
2.458

> <Valence>
6.758

> <Coulomb>
19.720

> <VdW>
1.235

> <VdW6>
-9.782

> <VdW12>
11.017

> <Bond>
0.287

> <Angle>
1.880

> <Pdih>
4.591

> <Idih>
0.000

> <Tether>
0.000

$$$$
VeraChem MOL file


 29 28  0  0  0  0  0  0  0  0999 V2000     
   19.5264   21.3953   26.7093 C   0  0  0  0  0  0  0  0  0  0  0  0
   19.9672   22.1886   26.0915 H   0  0  0  0  0  0  0  0  0  0  0  0
   18.6025   21.7839   27.1572 H   0  0  0  0  0  0  0  0  0  0  0  0
   20.2280   21.1730   27.5237 H   0  0  0  0  0  0  0  0  0  0  0  0
   19.2473   20.1304   25.8703 C   0  0  0  0  0  0  0  0  0  0  0  0
   18.8351   19.3454   26.5196 H   0  0  0  0  0  0  0  0  0  0  0  0
   20.1977   19.7500   25.4733 H   0  0  0  0  0  0  0  0  0  0  0  0
   18.2636   20.4200   24.7124 C   0  0  0  0  0  0  0  0  0  0  0  0
   17.3506   20.8710   25.1250 H   0  0  0  0  0  0  0  0  0  0  0  0
   18.6928   21.1744   24.0401 H   0  0  0  0  0  0  0  0  0  0  0  0
   17.8608   19.1570   23.9076 C   0  0  0  0  0  0  0  0  0  0  0  0
   17.1464   19.4502   23.1260 H   0  0  0  0  0  0  0  0  0  0  0  0
   17.3142   18.4735   24.5717 H   0  0  0  0  0  0  0  0  0  0  0  0
   19.0322   18.3804   23.2520 C   0  0  0  0  0  0  0  0  0  0  0  0
   19.6894   17.9771   24.0325 H   0  0  0  0  0  0  0  0  0  0  0  0
   18.6077   17.5108   22.7343 H   0  0  0  0  0  0  0  0  0  0  0  0
   19.8526   19.2344   22.2469 C   0  0  0  0  0  0  0  0  0  0  0  0
   20.3006   20.0876   22.7707 H   0  0  0  0  0  0  0  0  0  0  0  0
   19.1756   19.6608   21.4951 H   0  0  0  0  0  0  0  0  0  0  0  0
   20.9879   18.4740   21.5217 C   0  0  2  0  0  0  0  0  0  0  0  0
   21.5127   19.1990   20.8917 H   0  0  0  0  0  0  0  0  0  0  0  0
   20.4494   17.3651   20.6009 C   0  0  0  0  0  0  0  0  0  0  0  0
   21.2607   16.9427   19.9955 H   0  0  0  0  0  0  0  0  0  0  0  0
   19.9977   16.5455   21.1721 H   0  0  0  0  0  0  0  0  0  0  0  0
   19.6934   17.7626   19.9124 H   0  0  0  0  0  0  0  0  0  0  0  0
   22.0152   17.9305   22.4760 N   0  3  0  0  0  0  0  0  0  0  0  0
   22.4137   18.6711   23.0602 H   0  0  0  0  0  0  0  0  0  0  0  0
   22.7897   17.4838   21.9767 H   0  0  0  0  0  0  0  0  0  0  0  0
   21.6072   17.2299   23.0999 H   0  0  0  0  0  0  0  0  0  0  0  0
  1  2  1  0  0  0  0
  1  3  1  0  0  0  0
  1  4  1  0  0  0  0
  1  5  1  0  0  0  0
  5  6  1  0  0  0  0
  5  7  1  0  0  0  0
  5  8  1  0  0  0  0
  8  9  1  0  0  0  0
  8 10  1  0  0  0  0
  8 11  1  0  0  0  0
 11 12  1  0  0  0  0
 11 13  1  0  0  0  0
 11 14  1  0  0  0  0
 14 15  1  0  0  0  0
 14 16  1  0  0  0  0
 14 17  1  0  0  0  0
 17 18  1  0  0  0  0
 17 19  1  0  0  0  0
 17 20  1  0  0  0  0
 20 21  1  0  0  0  0
 20 22  1  0  0  0  0
 22 23  1  0  0  0  0
 22 24  1  0  0  0  0
 22 25  1  0  0  0  0
 20 26  1  0  0  0  0
 26 27  1  0  0  0  0
 26 28  1  0  0  0  0
 26 29  1  0  0  0  0
M  END
> <VConfSearch Rank>
375

> <Conf_Id>
78

> <Delta U+W>
1.477

> <U+W>
-26.349

> <U>
26.385

> <W>
-52.734

> <W(PB)>
-55.179

> <W(SA)>
2.445

> <Valence>
4.726

> <Coulomb>
20.482

> <VdW>
1.177

> <VdW6>
-10.349

> <VdW12>
11.526

> <Bond>
0.319

> <Angle>
1.933

> <Pdih>
2.474

> <Idih>
0.000

> <Tether>
0.000

$$$$
VeraChem MOL file


 29 28  0  0  0  0  0  0  0  0999 V2000     
   16.8145   16.8616   23.2438 C   0  0  0  0  0  0  0  0  0  0  0  0
   17.1366   15.8139   23.3050 H   0  0  0  0  0  0  0  0  0  0  0  0
   17.1572   17.3725   24.1504 H   0  0  0  0  0  0  0  0  0  0  0  0
   15.7169   16.8731   23.2497 H   0  0  0  0  0  0  0  0  0  0  0  0
   17.3557   17.5303   21.9587 C   0  0  0  0  0  0  0  0  0  0  0  0
   16.9650   18.5532   21.8662 H   0  0  0  0  0  0  0  0  0  0  0  0
   16.9590   16.9765   21.0962 H   0  0  0  0  0  0  0  0  0  0  0  0
   18.9038   17.5342   21.8741 C   0  0  0  0  0  0  0  0  0  0  0  0
   19.3167   16.6768   22.4232 H   0  0  0  0  0  0  0  0  0  0  0  0
   19.1888   17.3776   20.8245 H   0  0  0  0  0  0  0  0  0  0  0  0
   19.5799   18.8461   22.3494 C   0  0  0  0  0  0  0  0  0  0  0  0
   19.2394   19.6801   21.7204 H   0  0  0  0  0  0  0  0  0  0  0  0
   20.6587   18.7488   22.1719 H   0  0  0  0  0  0  0  0  0  0  0  0
   19.3278   19.1890   23.8383 C   0  0  0  0  0  0  0  0  0  0  0  0
   18.2556   19.3664   23.9898 H   0  0  0  0  0  0  0  0  0  0  0  0
   19.5902   18.3303   24.4700 H   0  0  0  0  0  0  0  0  0  0  0  0
   20.0875   20.4548   24.3137 C   0  0  0  0  0  0  0  0  0  0  0  0
   19.8258   20.6531   25.3615 H   0  0  0  0  0  0  0  0  0  0  0  0
   19.7191   21.3157   23.7403 H   0  0  0  0  0  0  0  0  0  0  0  0
   21.6275   20.3919   24.1788 C   0  0  2  0  0  0  0  0  0  0  0  0
   21.8764   20.2129   23.1289 H   0  0  0  0  0  0  0  0  0  0  0  0
   22.2375   19.2594   25.0237 C   0  0  0  0  0  0  0  0  0  0  0  0
   23.3320   19.2696   24.9514 H   0  0  0  0  0  0  0  0  0  0  0  0
   21.9649   19.3626   26.0814 H   0  0  0  0  0  0  0  0  0  0  0  0
   21.8985   18.2769   24.6750 H   0  0  0  0  0  0  0  0  0  0  0  0
   22.2562   21.7087   24.5407 N   0  3  0  0  0  0  0  0  0  0  0  0
   22.0751   21.9534   25.5180 H   0  0  0  0  0  0  0  0  0  0  0  0
   21.8948   22.4713   23.9604 H   0  0  0  0  0  0  0  0  0  0  0  0
   23.2722   21.6853   24.4149 H   0  0  0  0  0  0  0  0  0  0  0  0
  1  2  1  0  0  0  0
  1  3  1  0  0  0  0
  1  4  1  0  0  0  0
  1  5  1  0  0  0  0
  5  6  1  0  0  0  0
  5  7  1  0  0  0  0
  5  8  1  0  0  0  0
  8  9  1  0  0  0  0
  8 10  1  0  0  0  0
  8 11  1  0  0  0  0
 11 12  1  0  0  0  0
 11 13  1  0  0  0  0
 11 14  1  0  0  0  0
 14 15  1  0  0  0  0
 14 16  1  0  0  0  0
 14 17  1  0  0  0  0
 17 18  1  0  0  0  0
 17 19  1  0  0  0  0
 17 20  1  0  0  0  0
 20 21  1  0  0  0  0
 20 22  1  0  0  0  0
 22 23  1  0  0  0  0
 22 24  1  0  0  0  0
 22 25  1  0  0  0  0
 20 26  1  0  0  0  0
 26 27  1  0  0  0  0
 26 28  1  0  0  0  0
 26 29  1  0  0  0  0
M  END
> <VConfSearch Rank>
376

> <Conf_Id>
145

> <Delta U+W>
3.784

> <U+W>
-24.042

> <U>
28.220

> <W>
-52.262

> <W(PB)>
-54.724

> <W(SA)>
2.462

> <Valence>
7.040

> <Coulomb>
19.984

> <VdW>
1.197

> <VdW6>
-10.566

> <VdW12>
11.763

> <Bond>
0.320

> <Angle>
2.280

> <Pdih>
4.439

> <Idih>
0.000

> <Tether>
0.000

$$$$
VeraChem MOL file


 29 28  0  0  0  0  0  0  0  0999 V2000     
   17.1789   21.8550   24.7405 C   0  0  0  0  0  0  0  0  0  0  0  0
   16.3278   22.2059   24.1424 H   0  0  0  0  0  0  0  0  0  0  0  0
   16.8463   20.9960   25.3376 H   0  0  0  0  0  0  0  0  0  0  0  0
   17.4581   22.6593   25.4334 H   0  0  0  0  0  0  0  0  0  0  0  0
   18.3717   21.4743   23.8384 C   0  0  0  0  0  0  0  0  0  0  0  0
   19.2164   21.1708   24.4684 H   0  0  0  0  0  0  0  0  0  0  0  0
   18.7017   22.3621   23.2812 H   0  0  0  0  0  0  0  0  0  0  0  0
   17.9976   20.3490   22.8437 C   0  0  0  0  0  0  0  0  0  0  0  0
   17.6004   19.4773   23.3818 H   0  0  0  0  0  0  0  0  0  0  0  0
   17.1769   20.7129   22.2102 H   0  0  0  0  0  0  0  0  0  0  0  0
   19.1731   19.9209   21.9268 C   0  0  0  0  0  0  0  0  0  0  0  0
   19.8697   20.7582   21.7831 H   0  0  0  0  0  0  0  0  0  0  0  0
   18.7662   19.7014   20.9300 H   0  0  0  0  0  0  0  0  0  0  0  0
   19.9434   18.6622   22.4030 C   0  0  0  0  0  0  0  0  0  0  0  0
   19.2509   17.8107   22.4357 H   0  0  0  0  0  0  0  0  0  0  0  0
   20.6925   18.4206   21.6383 H   0  0  0  0  0  0  0  0  0  0  0  0
   20.6385   18.8273   23.7809 C   0  0  0  0  0  0  0  0  0  0  0  0
   19.8756   18.9797   24.5538 H   0  0  0  0  0  0  0  0  0  0  0  0
   21.2563   19.7349   23.7724 H   0  0  0  0  0  0  0  0  0  0  0  0
   21.5165   17.6299   24.2154 C   0  0  2  0  0  0  0  0  0  0  0  0
   21.8796   17.8442   25.2254 H   0  0  0  0  0  0  0  0  0  0  0  0
   22.7480   17.4528   23.3099 C   0  0  0  0  0  0  0  0  0  0  0  0
   23.4220   16.6935   23.7251 H   0  0  0  0  0  0  0  0  0  0  0  0
   22.4682   17.1334   22.2992 H   0  0  0  0  0  0  0  0  0  0  0  0
   23.3123   18.3903   23.2310 H   0  0  0  0  0  0  0  0  0  0  0  0
   20.7331   16.3503   24.3168 N   0  3  0  0  0  0  0  0  0  0  0  0
   20.3637   16.0691   23.4051 H   0  0  0  0  0  0  0  0  0  0  0  0
   19.9388   16.4460   24.9559 H   0  0  0  0  0  0  0  0  0  0  0  0
   21.3147   15.5820   24.6633 H   0  0  0  0  0  0  0  0  0  0  0  0
  1  2  1  0  0  0  0
  1  3  1  0  0  0  0
  1  4  1  0  0  0  0
  1  5  1  0  0  0  0
  5  6  1  0  0  0  0
  5  7  1  0  0  0  0
  5  8  1  0  0  0  0
  8  9  1  0  0  0  0
  8 10  1  0  0  0  0
  8 11  1  0  0  0  0
 11 12  1  0  0  0  0
 11 13  1  0  0  0  0
 11 14  1  0  0  0  0
 14 15  1  0  0  0  0
 14 16  1  0  0  0  0
 14 17  1  0  0  0  0
 17 18  1  0  0  0  0
 17 19  1  0  0  0  0
 17 20  1  0  0  0  0
 20 21  1  0  0  0  0
 20 22  1  0  0  0  0
 22 23  1  0  0  0  0
 22 24  1  0  0  0  0
 22 25  1  0  0  0  0
 20 26  1  0  0  0  0
 26 27  1  0  0  0  0
 26 28  1  0  0  0  0
 26 29  1  0  0  0  0
M  END
> <VConfSearch Rank>
377

> <Conf_Id>
71

> <Delta U+W>
3.542

> <U+W>
-24.284

> <U>
28.217

> <W>
-52.501

> <W(PB)>
-54.947

> <W(SA)>
2.446

> <Valence>
6.821

> <Coulomb>
20.147

> <VdW>
1.249

> <VdW6>
-10.237

> <VdW12>
11.486

> <Bond>
0.317

> <Angle>
1.990

> <Pdih>
4.515

> <Idih>
0.000

> <Tether>
0.000

$$$$
VeraChem MOL file


 29 28  0  0  0  0  0  0  0  0999 V2000     
   18.6777   20.9801   20.2321 C   0  0  0  0  0  0  0  0  0  0  0  0
   19.7586   20.9572   20.0414 H   0  0  0  0  0  0  0  0  0  0  0  0
   18.1713   20.4918   19.3893 H   0  0  0  0  0  0  0  0  0  0  0  0
   18.3612   22.0310   20.2523 H   0  0  0  0  0  0  0  0  0  0  0  0
   18.3353   20.2820   21.5652 C   0  0  0  0  0  0  0  0  0  0  0  0
   17.2531   20.3522   21.7427 H   0  0  0  0  0  0  0  0  0  0  0  0
   18.8212   20.8207   22.3874 H   0  0  0  0  0  0  0  0  0  0  0  0
   18.7629   18.7946   21.5557 C   0  0  0  0  0  0  0  0  0  0  0  0
   18.2279   18.2917   20.7382 H   0  0  0  0  0  0  0  0  0  0  0  0
   19.8318   18.7042   21.3182 H   0  0  0  0  0  0  0  0  0  0  0  0
   18.4454   18.0513   22.8795 C   0  0  0  0  0  0  0  0  0  0  0  0
   18.1481   17.0232   22.6306 H   0  0  0  0  0  0  0  0  0  0  0  0
   17.5708   18.5007   23.3697 H   0  0  0  0  0  0  0  0  0  0  0  0
   19.6306   17.9649   23.8754 C   0  0  0  0  0  0  0  0  0  0  0  0
   19.3118   17.3508   24.7277 H   0  0  0  0  0  0  0  0  0  0  0  0
   20.4572   17.4225   23.3976 H   0  0  0  0  0  0  0  0  0  0  0  0
   20.1313   19.3417   24.3868 C   0  0  0  0  0  0  0  0  0  0  0  0
   19.2746   19.9323   24.7367 H   0  0  0  0  0  0  0  0  0  0  0  0
   20.5732   19.9007   23.5526 H   0  0  0  0  0  0  0  0  0  0  0  0
   21.1763   19.2709   25.5252 C   0  0  2  0  0  0  0  0  0  0  0  0
   21.4406   20.2998   25.7884 H   0  0  0  0  0  0  0  0  0  0  0  0
   22.4654   18.5575   25.0820 C   0  0  0  0  0  0  0  0  0  0  0  0
   22.8681   19.0122   24.1684 H   0  0  0  0  0  0  0  0  0  0  0  0
   23.2346   18.6365   25.8599 H   0  0  0  0  0  0  0  0  0  0  0  0
   22.2926   17.4920   24.8885 H   0  0  0  0  0  0  0  0  0  0  0  0
   20.6209   18.6512   26.7780 N   0  3  0  0  0  0  0  0  0  0  0  0
   19.7865   19.1472   27.1041 H   0  0  0  0  0  0  0  0  0  0  0  0
   21.3053   18.6698   27.5395 H   0  0  0  0  0  0  0  0  0  0  0  0
   20.3589   17.6744   26.6246 H   0  0  0  0  0  0  0  0  0  0  0  0
  1  2  1  0  0  0  0
  1  3  1  0  0  0  0
  1  4  1  0  0  0  0
  1  5  1  0  0  0  0
  5  6  1  0  0  0  0
  5  7  1  0  0  0  0
  5  8  1  0  0  0  0
  8  9  1  0  0  0  0
  8 10  1  0  0  0  0
  8 11  1  0  0  0  0
 11 12  1  0  0  0  0
 11 13  1  0  0  0  0
 11 14  1  0  0  0  0
 14 15  1  0  0  0  0
 14 16  1  0  0  0  0
 14 17  1  0  0  0  0
 17 18  1  0  0  0  0
 17 19  1  0  0  0  0
 17 20  1  0  0  0  0
 20 21  1  0  0  0  0
 20 22  1  0  0  0  0
 22 23  1  0  0  0  0
 22 24  1  0  0  0  0
 22 25  1  0  0  0  0
 20 26  1  0  0  0  0
 26 27  1  0  0  0  0
 26 28  1  0  0  0  0
 26 29  1  0  0  0  0
M  END
> <VConfSearch Rank>
378

> <Conf_Id>
163

> <Delta U+W>
3.309

> <U+W>
-24.517

> <U>
27.916

> <W>
-52.433

> <W(PB)>
-54.866

> <W(SA)>
2.433

> <Valence>
6.693

> <Coulomb>
20.015

> <VdW>
1.208

> <VdW6>
-10.294

> <VdW12>
11.503

> <Bond>
0.312

> <Angle>
1.939

> <Pdih>
4.441

> <Idih>
0.000

> <Tether>
0.000

$$$$
VeraChem MOL file


 29 28  0  0  0  0  0  0  0  0999 V2000     
   18.5593   15.5321   24.5945 C   0  0  0  0  0  0  0  0  0  0  0  0
   19.3912   15.1438   25.1962 H   0  0  0  0  0  0  0  0  0  0  0  0
   17.9419   16.1746   25.2343 H   0  0  0  0  0  0  0  0  0  0  0  0
   17.9396   14.6792   24.2888 H   0  0  0  0  0  0  0  0  0  0  0  0
   19.0787   16.2943   23.3543 C   0  0  0  0  0  0  0  0  0  0  0  0
   18.2298   16.7028   22.7884 H   0  0  0  0  0  0  0  0  0  0  0  0
   19.5784   15.5797   22.6854 H   0  0  0  0  0  0  0  0  0  0  0  0
   20.0736   17.4291   23.6982 C   0  0  0  0  0  0  0  0  0  0  0  0
   20.9222   17.0155   24.2602 H   0  0  0  0  0  0  0  0  0  0  0  0
   20.4837   17.8158   22.7565 H   0  0  0  0  0  0  0  0  0  0  0  0
   19.4316   18.5900   24.4993 C   0  0  0  0  0  0  0  0  0  0  0  0
   19.0214   18.2006   25.4399 H   0  0  0  0  0  0  0  0  0  0  0  0
   18.5777   18.9957   23.9413 H   0  0  0  0  0  0  0  0  0  0  0  0
   20.4282   19.7255   24.8501 C   0  0  0  0  0  0  0  0  0  0  0  0
   19.9096   20.4743   25.4637 H   0  0  0  0  0  0  0  0  0  0  0  0
   21.2227   19.3182   25.4905 H   0  0  0  0  0  0  0  0  0  0  0  0
   21.0823   20.4268   23.6296 C   0  0  0  0  0  0  0  0  0  0  0  0
   21.7614   19.7238   23.1306 H   0  0  0  0  0  0  0  0  0  0  0  0
   21.7151   21.2492   23.9887 H   0  0  0  0  0  0  0  0  0  0  0  0
   20.0704   20.9738   22.5987 C   0  0  2  0  0  0  0  0  0  0  0  0
   19.4515   20.1418   22.2496 H   0  0  0  0  0  0  0  0  0  0  0  0
   20.8067   21.5655   21.3867 C   0  0  0  0  0  0  0  0  0  0  0  0
   20.0922   21.9218   20.6344 H   0  0  0  0  0  0  0  0  0  0  0  0
   21.4423   22.4100   21.6816 H   0  0  0  0  0  0  0  0  0  0  0  0
   21.4427   20.8092   20.9100 H   0  0  0  0  0  0  0  0  0  0  0  0
   19.1360   21.9879   23.1991 N   0  3  0  0  0  0  0  0  0  0  0  0
   18.6187   21.5929   23.9892 H   0  0  0  0  0  0  0  0  0  0  0  0
   18.4500   22.3177   22.5143 H   0  0  0  0  0  0  0  0  0  0  0  0
   19.6457   22.8064   23.5422 H   0  0  0  0  0  0  0  0  0  0  0  0
  1  2  1  0  0  0  0
  1  3  1  0  0  0  0
  1  4  1  0  0  0  0
  1  5  1  0  0  0  0
  5  6  1  0  0  0  0
  5  7  1  0  0  0  0
  5  8  1  0  0  0  0
  8  9  1  0  0  0  0
  8 10  1  0  0  0  0
  8 11  1  0  0  0  0
 11 12  1  0  0  0  0
 11 13  1  0  0  0  0
 11 14  1  0  0  0  0
 14 15  1  0  0  0  0
 14 16  1  0  0  0  0
 14 17  1  0  0  0  0
 17 18  1  0  0  0  0
 17 19  1  0  0  0  0
 17 20  1  0  0  0  0
 20 21  1  0  0  0  0
 20 22  1  0  0  0  0
 22 23  1  0  0  0  0
 22 24  1  0  0  0  0
 22 25  1  0  0  0  0
 20 26  1  0  0  0  0
 26 27  1  0  0  0  0
 26 28  1  0  0  0  0
 26 29  1  0  0  0  0
M  END
> <VConfSearch Rank>
379

> <Conf_Id>
173

> <Delta U+W>
1.363

> <U+W>
-26.462

> <U>
25.816

> <W>
-52.279

> <W(PB)>
-54.727

> <W(SA)>
2.449

> <Valence>
4.504

> <Coulomb>
20.342

> <VdW>
0.971

> <VdW6>
-10.532

> <VdW12>
11.503

> <Bond>
0.307

> <Angle>
1.715

> <Pdih>
2.481

> <Idih>
0.000

> <Tether>
0.000

$$$$
VeraChem MOL file


 29 28  0  0  0  0  0  0  0  0999 V2000     
   18.0427   21.5405   21.1399 C   0  0  0  0  0  0  0  0  0  0  0  0
   18.0615   20.9381   20.2223 H   0  0  0  0  0  0  0  0  0  0  0  0
   17.0197   21.9116   21.2846 H   0  0  0  0  0  0  0  0  0  0  0  0
   18.6973   22.4084   20.9871 H   0  0  0  0  0  0  0  0  0  0  0  0
   18.5104   20.7129   22.3558 C   0  0  0  0  0  0  0  0  0  0  0  0
   18.5065   21.3483   23.2523 H   0  0  0  0  0  0  0  0  0  0  0  0
   19.5474   20.3934   22.1880 H   0  0  0  0  0  0  0  0  0  0  0  0
   17.6096   19.4780   22.5853 C   0  0  0  0  0  0  0  0  0  0  0  0
   16.5615   19.8045   22.6315 H   0  0  0  0  0  0  0  0  0  0  0  0
   17.6824   18.8079   21.7176 H   0  0  0  0  0  0  0  0  0  0  0  0
   17.9285   18.6826   23.8777 C   0  0  0  0  0  0  0  0  0  0  0  0
   17.2020   17.8612   23.9474 H   0  0  0  0  0  0  0  0  0  0  0  0
   17.7494   19.3106   24.7613 H   0  0  0  0  0  0  0  0  0  0  0  0
   19.3539   18.0733   23.9277 C   0  0  0  0  0  0  0  0  0  0  0  0
   19.2899   17.0943   24.4207 H   0  0  0  0  0  0  0  0  0  0  0  0
   19.7051   17.8780   22.9063 H   0  0  0  0  0  0  0  0  0  0  0  0
   20.3674   18.9552   24.7088 C   0  0  0  0  0  0  0  0  0  0  0  0
   20.0078   19.0826   25.7382 H   0  0  0  0  0  0  0  0  0  0  0  0
   20.4028   19.9636   24.2815 H   0  0  0  0  0  0  0  0  0  0  0  0
   21.8085   18.3960   24.7635 C   0  0  2  0  0  0  0  0  0  0  0  0
   22.3964   19.0743   25.3898 H   0  0  0  0  0  0  0  0  0  0  0  0
   22.4669   18.3611   23.3732 C   0  0  0  0  0  0  0  0  0  0  0  0
   22.4095   19.3441   22.8896 H   0  0  0  0  0  0  0  0  0  0  0  0
   23.5274   18.0942   23.4583 H   0  0  0  0  0  0  0  0  0  0  0  0
   21.9892   17.6257   22.7152 H   0  0  0  0  0  0  0  0  0  0  0  0
   21.8791   17.0489   25.4281 N   0  3  0  0  0  0  0  0  0  0  0  0
   21.4830   17.0748   26.3721 H   0  0  0  0  0  0  0  0  0  0  0  0
   22.8462   16.7225   25.5104 H   0  0  0  0  0  0  0  0  0  0  0  0
   21.3616   16.3452   24.8955 H   0  0  0  0  0  0  0  0  0  0  0  0
  1  2  1  0  0  0  0
  1  3  1  0  0  0  0
  1  4  1  0  0  0  0
  1  5  1  0  0  0  0
  5  6  1  0  0  0  0
  5  7  1  0  0  0  0
  5  8  1  0  0  0  0
  8  9  1  0  0  0  0
  8 10  1  0  0  0  0
  8 11  1  0  0  0  0
 11 12  1  0  0  0  0
 11 13  1  0  0  0  0
 11 14  1  0  0  0  0
 14 15  1  0  0  0  0
 14 16  1  0  0  0  0
 14 17  1  0  0  0  0
 17 18  1  0  0  0  0
 17 19  1  0  0  0  0
 17 20  1  0  0  0  0
 20 21  1  0  0  0  0
 20 22  1  0  0  0  0
 22 23  1  0  0  0  0
 22 24  1  0  0  0  0
 22 25  1  0  0  0  0
 20 26  1  0  0  0  0
 26 27  1  0  0  0  0
 26 28  1  0  0  0  0
 26 29  1  0  0  0  0
M  END
> <VConfSearch Rank>
380

> <Conf_Id>
117

> <Delta U+W>
3.377

> <U+W>
-24.449

> <U>
27.947

> <W>
-52.396

> <W(PB)>
-54.842

> <W(SA)>
2.447

> <Valence>
6.731

> <Coulomb>
20.067

> <VdW>
1.149

> <VdW6>
-10.427

> <VdW12>
11.575

> <Bond>
0.324

> <Angle>
1.943

> <Pdih>
4.465

> <Idih>
0.000

> <Tether>
0.000

$$$$
VeraChem MOL file


 29 28  0  0  0  0  0  0  0  0999 V2000     
   14.9968   19.9172   23.2953 C   0  0  0  0  0  0  0  0  0  0  0  0
   14.7914   18.9116   22.9057 H   0  0  0  0  0  0  0  0  0  0  0  0
   14.8459   19.9002   24.3826 H   0  0  0  0  0  0  0  0  0  0  0  0
   14.2573   20.6038   22.8630 H   0  0  0  0  0  0  0  0  0  0  0  0
   16.4301   20.3670   22.9414 C   0  0  0  0  0  0  0  0  0  0  0  0
   16.5944   21.3878   23.3141 H   0  0  0  0  0  0  0  0  0  0  0  0
   16.5404   20.4068   21.8486 H   0  0  0  0  0  0  0  0  0  0  0  0
   17.4915   19.4167   23.5384 C   0  0  0  0  0  0  0  0  0  0  0  0
   17.3758   19.3784   24.6305 H   0  0  0  0  0  0  0  0  0  0  0  0
   17.3217   18.3974   23.1648 H   0  0  0  0  0  0  0  0  0  0  0  0
   18.9281   19.8639   23.1862 C   0  0  0  0  0  0  0  0  0  0  0  0
   19.0959   20.8838   23.5591 H   0  0  0  0  0  0  0  0  0  0  0  0
   19.0430   19.9017   22.0940 H   0  0  0  0  0  0  0  0  0  0  0  0
   19.9897   18.9134   23.7843 C   0  0  0  0  0  0  0  0  0  0  0  0
   19.8763   18.8789   24.8768 H   0  0  0  0  0  0  0  0  0  0  0  0
   19.8114   17.8957   23.4121 H   0  0  0  0  0  0  0  0  0  0  0  0
   21.4277   19.3629   23.4289 C   0  0  0  0  0  0  0  0  0  0  0  0
   21.5673   20.4005   23.7607 H   0  0  0  0  0  0  0  0  0  0  0  0
   21.5584   19.3622   22.3385 H   0  0  0  0  0  0  0  0  0  0  0  0
   22.5136   18.4813   24.0828 C   0  0  2  0  0  0  0  0  0  0  0  0
   22.3478   18.4787   25.1645 H   0  0  0  0  0  0  0  0  0  0  0  0
   23.9099   19.0627   23.8098 C   0  0  0  0  0  0  0  0  0  0  0  0
   24.6840   18.4613   24.3024 H   0  0  0  0  0  0  0  0  0  0  0  0
   24.1272   19.0855   22.7346 H   0  0  0  0  0  0  0  0  0  0  0  0
   23.9882   20.0866   24.1961 H   0  0  0  0  0  0  0  0  0  0  0  0
   22.4416   17.0486   23.6300 N   0  3  0  0  0  0  0  0  0  0  0  0
   21.5310   16.6338   23.8456 H   0  0  0  0  0  0  0  0  0  0  0  0
   23.1557   16.4751   24.0882 H   0  0  0  0  0  0  0  0  0  0  0  0
   22.5859   16.9690   22.6199 H   0  0  0  0  0  0  0  0  0  0  0  0
  1  2  1  0  0  0  0
  1  3  1  0  0  0  0
  1  4  1  0  0  0  0
  1  5  1  0  0  0  0
  5  6  1  0  0  0  0
  5  7  1  0  0  0  0
  5  8  1  0  0  0  0
  8  9  1  0  0  0  0
  8 10  1  0  0  0  0
  8 11  1  0  0  0  0
 11 12  1  0  0  0  0
 11 13  1  0  0  0  0
 11 14  1  0  0  0  0
 14 15  1  0  0  0  0
 14 16  1  0  0  0  0
 14 17  1  0  0  0  0
 17 18  1  0  0  0  0
 17 19  1  0  0  0  0
 17 20  1  0  0  0  0
 20 21  1  0  0  0  0
 20 22  1  0  0  0  0
 22 23  1  0  0  0  0
 22 24  1  0  0  0  0
 22 25  1  0  0  0  0
 20 26  1  0  0  0  0
 26 27  1  0  0  0  0
 26 28  1  0  0  0  0
 26 29  1  0  0  0  0
M  END
> <VConfSearch Rank>
381

> <Conf_Id>
164

> <Delta U+W>
0.000

> <U+W>
-27.826

> <U>
23.963

> <W>
-51.789

> <W(PB)>
-54.342

> <W(SA)>
2.554

> <Valence>
3.166

> <Coulomb>
19.734

> <VdW>
1.062

> <VdW6>
-7.938

> <VdW12>
9.001

> <Bond>
0.188

> <Angle>
0.880

> <Pdih>
2.098

> <Idih>
0.000

> <Tether>
0.000

$$$$
VeraChem MOL file


 29 28  0  0  0  0  0  0  0  0999 V2000     
   16.5867   15.7175   22.2441 C   0  0  0  0  0  0  0  0  0  0  0  0
   16.3294   16.1856   21.2850 H   0  0  0  0  0  0  0  0  0  0  0  0
   17.3599   14.9605   22.0587 H   0  0  0  0  0  0  0  0  0  0  0  0
   15.6928   15.2018   22.6181 H   0  0  0  0  0  0  0  0  0  0  0  0
   17.0742   16.7704   23.2618 C   0  0  0  0  0  0  0  0  0  0  0  0
   17.2915   16.2779   24.2201 H   0  0  0  0  0  0  0  0  0  0  0  0
   16.2689   17.4936   23.4523 H   0  0  0  0  0  0  0  0  0  0  0  0
   18.3328   17.5117   22.7593 C   0  0  0  0  0  0  0  0  0  0  0  0
   19.1340   16.7845   22.5680 H   0  0  0  0  0  0  0  0  0  0  0  0
   18.1114   18.0004   21.8004 H   0  0  0  0  0  0  0  0  0  0  0  0
   18.8240   18.5668   23.7759 C   0  0  0  0  0  0  0  0  0  0  0  0
   19.0454   18.0773   24.7345 H   0  0  0  0  0  0  0  0  0  0  0  0
   18.0212   19.2924   23.9671 H   0  0  0  0  0  0  0  0  0  0  0  0
   20.0829   19.3086   23.2725 C   0  0  0  0  0  0  0  0  0  0  0  0
   20.8752   18.5743   23.0765 H   0  0  0  0  0  0  0  0  0  0  0  0
   19.8597   19.8022   22.3164 H   0  0  0  0  0  0  0  0  0  0  0  0
   20.5757   20.3619   24.2949 C   0  0  0  0  0  0  0  0  0  0  0  0
   20.8619   19.8640   25.2309 H   0  0  0  0  0  0  0  0  0  0  0  0
   19.7385   21.0286   24.5406 H   0  0  0  0  0  0  0  0  0  0  0  0
   21.7526   21.2237   23.7834 C   0  0  2  0  0  0  0  0  0  0  0  0
   21.4589   21.6751   22.8307 H   0  0  0  0  0  0  0  0  0  0  0  0
   23.0266   20.3904   23.5557 C   0  0  0  0  0  0  0  0  0  0  0  0
   23.3260   19.8650   24.4712 H   0  0  0  0  0  0  0  0  0  0  0  0
   22.8807   19.6465   22.7641 H   0  0  0  0  0  0  0  0  0  0  0  0
   23.8589   21.0342   23.2456 H   0  0  0  0  0  0  0  0  0  0  0  0
   22.0379   22.3629   24.7221 N   0  3  0  0  0  0  0  0  0  0  0  0
   22.7908   22.9599   24.3678 H   0  0  0  0  0  0  0  0  0  0  0  0
   22.3248   22.0246   25.6446 H   0  0  0  0  0  0  0  0  0  0  0  0
   21.2147   22.9577   24.8546 H   0  0  0  0  0  0  0  0  0  0  0  0
  1  2  1  0  0  0  0
  1  3  1  0  0  0  0
  1  4  1  0  0  0  0
  1  5  1  0  0  0  0
  5  6  1  0  0  0  0
  5  7  1  0  0  0  0
  5  8  1  0  0  0  0
  8  9  1  0  0  0  0
  8 10  1  0  0  0  0
  8 11  1  0  0  0  0
 11 12  1  0  0  0  0
 11 13  1  0  0  0  0
 11 14  1  0  0  0  0
 14 15  1  0  0  0  0
 14 16  1  0  0  0  0
 14 17  1  0  0  0  0
 17 18  1  0  0  0  0
 17 19  1  0  0  0  0
 17 20  1  0  0  0  0
 20 21  1  0  0  0  0
 20 22  1  0  0  0  0
 22 23  1  0  0  0  0
 22 24  1  0  0  0  0
 22 25  1  0  0  0  0
 20 26  1  0  0  0  0
 26 27  1  0  0  0  0
 26 28  1  0  0  0  0
 26 29  1  0  0  0  0
M  END
> <VConfSearch Rank>
382

> <Conf_Id>
58

> <Delta U+W>
0.412

> <U+W>
-27.414

> <U>
24.279

> <W>
-51.694

> <W(PB)>
-54.271

> <W(SA)>
2.577

> <Valence>
3.709

> <Coulomb>
19.380

> <VdW>
1.191

> <VdW6>
-8.093

> <VdW12>
9.284

> <Bond>
0.200

> <Angle>
1.161

> <Pdih>
2.348

> <Idih>
0.000

> <Tether>
0.000

$$$$
VeraChem MOL file


 29 28  0  0  0  0  0  0  0  0999 V2000     
   18.2060   15.8911   20.4267 C   0  0  0  0  0  0  0  0  0  0  0  0
   17.9735   15.1696   21.2209 H   0  0  0  0  0  0  0  0  0  0  0  0
   17.2948   16.4624   20.2062 H   0  0  0  0  0  0  0  0  0  0  0  0
   18.4755   15.3252   19.5255 H   0  0  0  0  0  0  0  0  0  0  0  0
   19.3589   16.8267   20.8477 C   0  0  0  0  0  0  0  0  0  0  0  0
   19.5911   17.5136   20.0217 H   0  0  0  0  0  0  0  0  0  0  0  0
   20.2645   16.2308   21.0286 H   0  0  0  0  0  0  0  0  0  0  0  0
   19.0052   17.6358   22.1150 C   0  0  0  0  0  0  0  0  0  0  0  0
   18.0983   18.2281   21.9300 H   0  0  0  0  0  0  0  0  0  0  0  0
   18.7715   16.9450   22.9370 H   0  0  0  0  0  0  0  0  0  0  0  0
   20.1576   18.5737   22.5398 C   0  0  0  0  0  0  0  0  0  0  0  0
   20.3907   19.2635   21.7168 H   0  0  0  0  0  0  0  0  0  0  0  0
   21.0639   17.9804   22.7241 H   0  0  0  0  0  0  0  0  0  0  0  0
   19.8035   19.3829   23.8078 C   0  0  0  0  0  0  0  0  0  0  0  0
   18.8966   19.9720   23.6175 H   0  0  0  0  0  0  0  0  0  0  0  0
   19.5676   18.6855   24.6223 H   0  0  0  0  0  0  0  0  0  0  0  0
   20.9650   20.3195   24.2309 C   0  0  0  0  0  0  0  0  0  0  0  0
   21.2225   20.9768   23.3900 H   0  0  0  0  0  0  0  0  0  0  0  0
   21.8620   19.7181   24.4296 H   0  0  0  0  0  0  0  0  0  0  0  0
   20.6737   21.2011   25.4683 C   0  0  2  0  0  0  0  0  0  0  0  0
   21.5552   21.8278   25.6357 H   0  0  0  0  0  0  0  0  0  0  0  0
   20.4524   20.3612   26.7383 C   0  0  0  0  0  0  0  0  0  0  0  0
   20.3847   21.0102   27.6200 H   0  0  0  0  0  0  0  0  0  0  0  0
   19.5268   19.7762   26.6818 H   0  0  0  0  0  0  0  0  0  0  0  0
   21.2881   19.6688   26.8985 H   0  0  0  0  0  0  0  0  0  0  0  0
   19.5269   22.1472   25.2417 N   0  3  0  0  0  0  0  0  0  0  0  0
   19.6867   22.7414   24.4231 H   0  0  0  0  0  0  0  0  0  0  0  0
   19.3873   22.7652   26.0462 H   0  0  0  0  0  0  0  0  0  0  0  0
   18.6519   21.6398   25.0887 H   0  0  0  0  0  0  0  0  0  0  0  0
  1  2  1  0  0  0  0
  1  3  1  0  0  0  0
  1  4  1  0  0  0  0
  1  5  1  0  0  0  0
  5  6  1  0  0  0  0
  5  7  1  0  0  0  0
  5  8  1  0  0  0  0
  8  9  1  0  0  0  0
  8 10  1  0  0  0  0
  8 11  1  0  0  0  0
 11 12  1  0  0  0  0
 11 13  1  0  0  0  0
 11 14  1  0  0  0  0
 14 15  1  0  0  0  0
 14 16  1  0  0  0  0
 14 17  1  0  0  0  0
 17 18  1  0  0  0  0
 17 19  1  0  0  0  0
 17 20  1  0  0  0  0
 20 21  1  0  0  0  0
 20 22  1  0  0  0  0
 22 23  1  0  0  0  0
 22 24  1  0  0  0  0
 22 25  1  0  0  0  0
 20 26  1  0  0  0  0
 26 27  1  0  0  0  0
 26 28  1  0  0  0  0
 26 29  1  0  0  0  0
M  END
> <VConfSearch Rank>
383

> <Conf_Id>
137

> <Delta U+W>
0.280

> <U+W>
-27.546

> <U>
24.513

> <W>
-52.059

> <W(PB)>
-54.556

> <W(SA)>
2.497

> <Valence>
3.677

> <Coulomb>
19.662

> <VdW>
1.174

> <VdW6>
-8.569

> <VdW12>
9.743

> <Bond>
0.224

> <Angle>
1.211

> <Pdih>
2.243

> <Idih>
0.000

> <Tether>
0.000

$$$$
VeraChem MOL file


 29 28  0  0  0  0  0  0  0  0999 V2000     
   16.3228   19.8213   20.7459 C   0  0  0  0  0  0  0  0  0  0  0  0
   15.9421   20.4015   21.5965 H   0  0  0  0  0  0  0  0  0  0  0  0
   16.8798   20.5023   20.0892 H   0  0  0  0  0  0  0  0  0  0  0  0
   15.4598   19.4416   20.1836 H   0  0  0  0  0  0  0  0  0  0  0  0
   17.2166   18.6573   21.2238 C   0  0  0  0  0  0  0  0  0  0  0  0
   17.5530   18.0758   20.3540 H   0  0  0  0  0  0  0  0  0  0  0  0
   16.6242   17.9763   21.8508 H   0  0  0  0  0  0  0  0  0  0  0  0
   18.4405   19.1648   22.0179 C   0  0  0  0  0  0  0  0  0  0  0  0
   19.0305   19.8429   21.3862 H   0  0  0  0  0  0  0  0  0  0  0  0
   18.0897   19.7516   22.8766 H   0  0  0  0  0  0  0  0  0  0  0  0
   19.3348   17.9975   22.5011 C   0  0  0  0  0  0  0  0  0  0  0  0
   19.6031   17.3745   21.6366 H   0  0  0  0  0  0  0  0  0  0  0  0
   18.7649   17.3500   23.1818 H   0  0  0  0  0  0  0  0  0  0  0  0
   20.6411   18.4579   23.1942 C   0  0  0  0  0  0  0  0  0  0  0  0
   21.2640   17.5695   23.3588 H   0  0  0  0  0  0  0  0  0  0  0  0
   21.2066   19.1115   22.5157 H   0  0  0  0  0  0  0  0  0  0  0  0
   20.4041   19.1837   24.5442 C   0  0  0  0  0  0  0  0  0  0  0  0
   19.8482   18.5266   25.2260 H   0  0  0  0  0  0  0  0  0  0  0  0
   19.7704   20.0619   24.3716 H   0  0  0  0  0  0  0  0  0  0  0  0
   21.7043   19.6633   25.2298 C   0  0  2  0  0  0  0  0  0  0  0  0
   22.2696   20.2650   24.5114 H   0  0  0  0  0  0  0  0  0  0  0  0
   22.5896   18.4900   25.6876 C   0  0  0  0  0  0  0  0  0  0  0  0
   22.0413   17.8176   26.3591 H   0  0  0  0  0  0  0  0  0  0  0  0
   22.9513   17.9049   24.8345 H   0  0  0  0  0  0  0  0  0  0  0  0
   23.4728   18.8592   26.2235 H   0  0  0  0  0  0  0  0  0  0  0  0
   21.4013   20.5668   26.3928 N   0  3  0  0  0  0  0  0  0  0  0  0
   20.8503   21.3806   26.1049 H   0  0  0  0  0  0  0  0  0  0  0  0
   22.2597   20.9184   26.8266 H   0  0  0  0  0  0  0  0  0  0  0  0
   20.8710   20.0770   27.1185 H   0  0  0  0  0  0  0  0  0  0  0  0
  1  2  1  0  0  0  0
  1  3  1  0  0  0  0
  1  4  1  0  0  0  0
  1  5  1  0  0  0  0
  5  6  1  0  0  0  0
  5  7  1  0  0  0  0
  5  8  1  0  0  0  0
  8  9  1  0  0  0  0
  8 10  1  0  0  0  0
  8 11  1  0  0  0  0
 11 12  1  0  0  0  0
 11 13  1  0  0  0  0
 11 14  1  0  0  0  0
 14 15  1  0  0  0  0
 14 16  1  0  0  0  0
 14 17  1  0  0  0  0
 17 18  1  0  0  0  0
 17 19  1  0  0  0  0
 17 20  1  0  0  0  0
 20 21  1  0  0  0  0
 20 22  1  0  0  0  0
 22 23  1  0  0  0  0
 22 24  1  0  0  0  0
 22 25  1  0  0  0  0
 20 26  1  0  0  0  0
 26 27  1  0  0  0  0
 26 28  1  0  0  0  0
 26 29  1  0  0  0  0
M  END
> <VConfSearch Rank>
384

> <Conf_Id>
40

> <Delta U+W>
1.128

> <U+W>
-26.698

> <U>
25.442

> <W>
-52.140

> <W(PB)>
-54.658

> <W(SA)>
2.519

> <Valence>
4.343

> <Coulomb>
19.740

> <VdW>
1.360

> <VdW6>
-8.739

> <VdW12>
10.099

> <Bond>
0.251

> <Angle>
1.483

> <Pdih>
2.608

> <Idih>
0.000

> <Tether>
0.000

$$$$
VeraChem MOL file


 29 28  0  0  0  0  0  0  0  0999 V2000     
   20.3160   20.0220   27.7471 C   0  0  0  0  0  0  0  0  0  0  0  0
   20.5480   18.9503   27.7174 H   0  0  0  0  0  0  0  0  0  0  0  0
   21.2452   20.5808   27.5756 H   0  0  0  0  0  0  0  0  0  0  0  0
   19.9668   20.2549   28.7614 H   0  0  0  0  0  0  0  0  0  0  0  0
   19.2393   20.4008   26.7050 C   0  0  0  0  0  0  0  0  0  0  0  0
   18.9505   21.4494   26.8625 H   0  0  0  0  0  0  0  0  0  0  0  0
   18.3326   19.8036   26.8755 H   0  0  0  0  0  0  0  0  0  0  0  0
   19.7100   20.2320   25.2400 C   0  0  0  0  0  0  0  0  0  0  0  0
   18.9361   20.6539   24.5865 H   0  0  0  0  0  0  0  0  0  0  0  0
   20.6162   20.8308   25.0751 H   0  0  0  0  0  0  0  0  0  0  0  0
   19.9776   18.7573   24.8445 C   0  0  0  0  0  0  0  0  0  0  0  0
   19.0699   18.1592   25.0038 H   0  0  0  0  0  0  0  0  0  0  0  0
   20.7444   18.3370   25.5078 H   0  0  0  0  0  0  0  0  0  0  0  0
   20.4646   18.5835   23.3845 C   0  0  0  0  0  0  0  0  0  0  0  0
   21.3612   19.1974   23.2208 H   0  0  0  0  0  0  0  0  0  0  0  0
   20.7777   17.5392   23.2553 H   0  0  0  0  0  0  0  0  0  0  0  0
   19.3889   18.9343   22.3242 C   0  0  0  0  0  0  0  0  0  0  0  0
   19.0971   19.9856   22.4358 H   0  0  0  0  0  0  0  0  0  0  0  0
   18.4849   18.3361   22.4997 H   0  0  0  0  0  0  0  0  0  0  0  0
   19.8795   18.7193   20.8757 C   0  0  2  0  0  0  0  0  0  0  0  0
   20.7997   19.2949   20.7362 H   0  0  0  0  0  0  0  0  0  0  0  0
   18.8322   19.2340   19.8751 C   0  0  0  0  0  0  0  0  0  0  0  0
   19.1892   19.1163   18.8445 H   0  0  0  0  0  0  0  0  0  0  0  0
   17.8863   18.6869   19.9740 H   0  0  0  0  0  0  0  0  0  0  0  0
   18.6290   20.2999   20.0367 H   0  0  0  0  0  0  0  0  0  0  0  0
   20.2188   17.2823   20.5877 N   0  3  0  0  0  0  0  0  0  0  0  0
   19.4020   16.6762   20.7017 H   0  0  0  0  0  0  0  0  0  0  0  0
   20.9494   16.9373   21.2160 H   0  0  0  0  0  0  0  0  0  0  0  0
   20.5581   17.1630   19.6289 H   0  0  0  0  0  0  0  0  0  0  0  0
  1  2  1  0  0  0  0
  1  3  1  0  0  0  0
  1  4  1  0  0  0  0
  1  5  1  0  0  0  0
  5  6  1  0  0  0  0
  5  7  1  0  0  0  0
  5  8  1  0  0  0  0
  8  9  1  0  0  0  0
  8 10  1  0  0  0  0
  8 11  1  0  0  0  0
 11 12  1  0  0  0  0
 11 13  1  0  0  0  0
 11 14  1  0  0  0  0
 14 15  1  0  0  0  0
 14 16  1  0  0  0  0
 14 17  1  0  0  0  0
 17 18  1  0  0  0  0
 17 19  1  0  0  0  0
 17 20  1  0  0  0  0
 20 21  1  0  0  0  0
 20 22  1  0  0  0  0
 22 23  1  0  0  0  0
 22 24  1  0  0  0  0
 22 25  1  0  0  0  0
 20 26  1  0  0  0  0
 26 27  1  0  0  0  0
 26 28  1  0  0  0  0
 26 29  1  0  0  0  0
M  END
> <VConfSearch Rank>
385

> <Conf_Id>
134

> <Delta U+W>
1.228

> <U+W>
-26.598

> <U>
25.451

> <W>
-52.048

> <W(PB)>
-54.539

> <W(SA)>
2.490

> <Valence>
4.319

> <Coulomb>
19.732

> <VdW>
1.400

> <VdW6>
-9.173

> <VdW12>
10.573

> <Bond>
0.281

> <Angle>
1.459

> <Pdih>
2.580

> <Idih>
0.000

> <Tether>
0.000

$$$$
VeraChem MOL file


 29 28  0  0  0  0  0  0  0  0999 V2000     
   23.5146   17.5724   21.9234 C   0  0  0  0  0  0  0  0  0  0  0  0
   23.8114   18.6122   22.1076 H   0  0  0  0  0  0  0  0  0  0  0  0
   23.6963   16.9946   22.8390 H   0  0  0  0  0  0  0  0  0  0  0  0
   24.1736   17.1759   21.1402 H   0  0  0  0  0  0  0  0  0  0  0  0
   22.0353   17.4714   21.4869 C   0  0  0  0  0  0  0  0  0  0  0  0
   21.8253   16.4338   21.1919 H   0  0  0  0  0  0  0  0  0  0  0  0
   21.8712   18.0850   20.5901 H   0  0  0  0  0  0  0  0  0  0  0  0
   21.0348   17.8833   22.5938 C   0  0  0  0  0  0  0  0  0  0  0  0
   20.0227   17.6495   22.2395 H   0  0  0  0  0  0  0  0  0  0  0  0
   21.2016   17.2658   23.4870 H   0  0  0  0  0  0  0  0  0  0  0  0
   21.1172   19.3841   22.9721 C   0  0  0  0  0  0  0  0  0  0  0  0
   20.9489   20.0014   22.0790 H   0  0  0  0  0  0  0  0  0  0  0  0
   22.1308   19.6175   23.3223 H   0  0  0  0  0  0  0  0  0  0  0  0
   20.1208   19.7957   24.0838 C   0  0  0  0  0  0  0  0  0  0  0  0
   20.3075   19.1842   24.9764 H   0  0  0  0  0  0  0  0  0  0  0  0
   20.3298   20.8358   24.3700 H   0  0  0  0  0  0  0  0  0  0  0  0
   18.6346   19.6808   23.6565 C   0  0  0  0  0  0  0  0  0  0  0  0
   18.3650   18.6279   23.5062 H   0  0  0  0  0  0  0  0  0  0  0  0
   18.5096   20.1787   22.6859 H   0  0  0  0  0  0  0  0  0  0  0  0
   17.6514   20.3182   24.6643 C   0  0  2  0  0  0  0  0  0  0  0  0
   17.9543   21.3568   24.8293 H   0  0  0  0  0  0  0  0  0  0  0  0
   17.6571   19.5878   26.0191 C   0  0  0  0  0  0  0  0  0  0  0  0
   17.4156   18.5245   25.8977 H   0  0  0  0  0  0  0  0  0  0  0  0
   18.6347   19.6646   26.5090 H   0  0  0  0  0  0  0  0  0  0  0  0
   16.9180   20.0291   26.6990 H   0  0  0  0  0  0  0  0  0  0  0  0
   16.2567   20.3670   24.1050 N   0  3  0  0  0  0  0  0  0  0  0  0
   16.2220   20.8866   23.2231 H   0  0  0  0  0  0  0  0  0  0  0  0
   15.6096   20.8246   24.7536 H   0  0  0  0  0  0  0  0  0  0  0  0
   15.8934   19.4275   23.9232 H   0  0  0  0  0  0  0  0  0  0  0  0
  1  2  1  0  0  0  0
  1  3  1  0  0  0  0
  1  4  1  0  0  0  0
  1  5  1  0  0  0  0
  5  6  1  0  0  0  0
  5  7  1  0  0  0  0
  5  8  1  0  0  0  0
  8  9  1  0  0  0  0
  8 10  1  0  0  0  0
  8 11  1  0  0  0  0
 11 12  1  0  0  0  0
 11 13  1  0  0  0  0
 11 14  1  0  0  0  0
 14 15  1  0  0  0  0
 14 16  1  0  0  0  0
 14 17  1  0  0  0  0
 17 18  1  0  0  0  0
 17 19  1  0  0  0  0
 17 20  1  0  0  0  0
 20 21  1  0  0  0  0
 20 22  1  0  0  0  0
 22 23  1  0  0  0  0
 22 24  1  0  0  0  0
 22 25  1  0  0  0  0
 20 26  1  0  0  0  0
 26 27  1  0  0  0  0
 26 28  1  0  0  0  0
 26 29  1  0  0  0  0
M  END
> <VConfSearch Rank>
386

> <Conf_Id>
73

> <Delta U+W>
1.580

> <U+W>
-26.246

> <U>
25.821

> <W>
-52.067

> <W(PB)>
-54.581

> <W(SA)>
2.514

> <Valence>
4.779

> <Coulomb>
19.614

> <VdW>
1.428

> <VdW6>
-9.390

> <VdW12>
10.818

> <Bond>
0.283

> <Angle>
1.640

> <Pdih>
2.856

> <Idih>
0.000

> <Tether>
0.000

$$$$
VeraChem MOL file


 29 28  0  0  0  0  0  0  0  0999 V2000     
   17.1325   16.2853   25.7109 C   0  0  0  0  0  0  0  0  0  0  0  0
   18.0706   16.0074   26.2088 H   0  0  0  0  0  0  0  0  0  0  0  0
   16.3112   16.1112   26.4181 H   0  0  0  0  0  0  0  0  0  0  0  0
   16.9878   15.6139   24.8544 H   0  0  0  0  0  0  0  0  0  0  0  0
   17.1597   17.7611   25.2601 C   0  0  0  0  0  0  0  0  0  0  0  0
   17.2724   18.4094   26.1404 H   0  0  0  0  0  0  0  0  0  0  0  0
   16.1964   18.0185   24.7979 H   0  0  0  0  0  0  0  0  0  0  0  0
   18.3071   18.0334   24.2623 C   0  0  0  0  0  0  0  0  0  0  0  0
   19.2609   17.7626   24.7332 H   0  0  0  0  0  0  0  0  0  0  0  0
   18.1885   17.3851   23.3832 H   0  0  0  0  0  0  0  0  0  0  0  0
   18.3378   19.5143   23.8136 C   0  0  0  0  0  0  0  0  0  0  0  0
   18.5157   20.1619   24.6832 H   0  0  0  0  0  0  0  0  0  0  0  0
   17.3480   19.7884   23.4230 H   0  0  0  0  0  0  0  0  0  0  0  0
   19.3935   19.8118   22.7203 C   0  0  0  0  0  0  0  0  0  0  0  0
   19.2129   19.1657   21.8500 H   0  0  0  0  0  0  0  0  0  0  0  0
   19.2431   20.8433   22.3760 H   0  0  0  0  0  0  0  0  0  0  0  0
   20.8552   19.6361   23.2069 C   0  0  0  0  0  0  0  0  0  0  0  0
   21.0093   18.5980   23.5258 H   0  0  0  0  0  0  0  0  0  0  0  0
   21.0317   20.2661   24.0888 H   0  0  0  0  0  0  0  0  0  0  0  0
   21.8966   19.9677   22.1158 C   0  0  2  0  0  0  0  0  0  0  0  0
   21.6782   19.3551   21.2357 H   0  0  0  0  0  0  0  0  0  0  0  0
   23.3119   19.6218   22.6055 C   0  0  0  0  0  0  0  0  0  0  0  0
   23.3850   18.5591   22.8682 H   0  0  0  0  0  0  0  0  0  0  0  0
   24.0536   19.8223   21.8224 H   0  0  0  0  0  0  0  0  0  0  0  0
   23.5811   20.2120   23.4905 H   0  0  0  0  0  0  0  0  0  0  0  0
   21.8309   21.4036   21.6719 N   0  3  0  0  0  0  0  0  0  0  0  0
   22.5164   21.5995   20.9367 H   0  0  0  0  0  0  0  0  0  0  0  0
   22.0223   22.0430   22.4479 H   0  0  0  0  0  0  0  0  0  0  0  0
   20.9070   21.6382   21.2992 H   0  0  0  0  0  0  0  0  0  0  0  0
  1  2  1  0  0  0  0
  1  3  1  0  0  0  0
  1  4  1  0  0  0  0
  1  5  1  0  0  0  0
  5  6  1  0  0  0  0
  5  7  1  0  0  0  0
  5  8  1  0  0  0  0
  8  9  1  0  0  0  0
  8 10  1  0  0  0  0
  8 11  1  0  0  0  0
 11 12  1  0  0  0  0
 11 13  1  0  0  0  0
 11 14  1  0  0  0  0
 14 15  1  0  0  0  0
 14 16  1  0  0  0  0
 14 17  1  0  0  0  0
 17 18  1  0  0  0  0
 17 19  1  0  0  0  0
 17 20  1  0  0  0  0
 20 21  1  0  0  0  0
 20 22  1  0  0  0  0
 22 23  1  0  0  0  0
 22 24  1  0  0  0  0
 22 25  1  0  0  0  0
 20 26  1  0  0  0  0
 26 27  1  0  0  0  0
 26 28  1  0  0  0  0
 26 29  1  0  0  0  0
M  END
> <VConfSearch Rank>
387

> <Conf_Id>
111

> <Delta U+W>
0.580

> <U+W>
-27.246

> <U>
24.710

> <W>
-51.957

> <W(PB)>
-54.511

> <W(SA)>
2.555

> <Valence>
3.735

> <Coulomb>
19.760

> <VdW>
1.216

> <VdW6>
-8.624

> <VdW12>
9.840

> <Bond>
0.236

> <Angle>
1.168

> <Pdih>
2.330

> <Idih>
0.000

> <Tether>
0.000

$$$$
VeraChem MOL file


 29 28  0  0  0  0  0  0  0  0999 V2000     
   16.8016   21.6615   25.5251 C   0  0  0  0  0  0  0  0  0  0  0  0
   17.2375   22.5725   25.0945 H   0  0  0  0  0  0  0  0  0  0  0  0
   16.1334   21.2154   24.7769 H   0  0  0  0  0  0  0  0  0  0  0  0
   16.1915   21.9556   26.3890 H   0  0  0  0  0  0  0  0  0  0  0  0
   17.9027   20.6667   25.9489 C   0  0  0  0  0  0  0  0  0  0  0  0
   17.4384   19.7814   26.4055 H   0  0  0  0  0  0  0  0  0  0  0  0
   18.5329   21.1286   26.7219 H   0  0  0  0  0  0  0  0  0  0  0  0
   18.7772   20.2368   24.7504 C   0  0  0  0  0  0  0  0  0  0  0  0
   18.1353   19.7856   23.9825 H   0  0  0  0  0  0  0  0  0  0  0  0
   19.2407   21.1247   24.2986 H   0  0  0  0  0  0  0  0  0  0  0  0
   19.8793   19.2361   25.1735 C   0  0  0  0  0  0  0  0  0  0  0  0
   19.4171   18.3251   25.5781 H   0  0  0  0  0  0  0  0  0  0  0  0
   20.4654   19.6744   25.9931 H   0  0  0  0  0  0  0  0  0  0  0  0
   20.8469   18.8614   24.0242 C   0  0  0  0  0  0  0  0  0  0  0  0
   21.3270   19.7746   23.6484 H   0  0  0  0  0  0  0  0  0  0  0  0
   21.6499   18.2339   24.4352 H   0  0  0  0  0  0  0  0  0  0  0  0
   20.1573   18.1016   22.8618 C   0  0  0  0  0  0  0  0  0  0  0  0
   19.4473   18.7622   22.3482 H   0  0  0  0  0  0  0  0  0  0  0  0
   19.5692   17.2758   23.2832 H   0  0  0  0  0  0  0  0  0  0  0  0
   21.1494   17.5196   21.8294 C   0  0  2  0  0  0  0  0  0  0  0  0
   21.8707   16.8924   22.3623 H   0  0  0  0  0  0  0  0  0  0  0  0
   21.9208   18.6225   21.0826 C   0  0  0  0  0  0  0  0  0  0  0  0
   21.2349   19.3149   20.5788 H   0  0  0  0  0  0  0  0  0  0  0  0
   22.5518   19.2009   21.7673 H   0  0  0  0  0  0  0  0  0  0  0  0
   22.5814   18.1856   20.3236 H   0  0  0  0  0  0  0  0  0  0  0  0
   20.4479   16.6204   20.8498 N   0  3  0  0  0  0  0  0  0  0  0  0
   19.9627   15.8527   21.3232 H   0  0  0  0  0  0  0  0  0  0  0  0
   21.1078   16.2013   20.1882 H   0  0  0  0  0  0  0  0  0  0  0  0
   19.7517   17.1339   20.3028 H   0  0  0  0  0  0  0  0  0  0  0  0
  1  2  1  0  0  0  0
  1  3  1  0  0  0  0
  1  4  1  0  0  0  0
  1  5  1  0  0  0  0
  5  6  1  0  0  0  0
  5  7  1  0  0  0  0
  5  8  1  0  0  0  0
  8  9  1  0  0  0  0
  8 10  1  0  0  0  0
  8 11  1  0  0  0  0
 11 12  1  0  0  0  0
 11 13  1  0  0  0  0
 11 14  1  0  0  0  0
 14 15  1  0  0  0  0
 14 16  1  0  0  0  0
 14 17  1  0  0  0  0
 17 18  1  0  0  0  0
 17 19  1  0  0  0  0
 17 20  1  0  0  0  0
 20 21  1  0  0  0  0
 20 22  1  0  0  0  0
 22 23  1  0  0  0  0
 22 24  1  0  0  0  0
 22 25  1  0  0  0  0
 20 26  1  0  0  0  0
 26 27  1  0  0  0  0
 26 28  1  0  0  0  0
 26 29  1  0  0  0  0
M  END
> <VConfSearch Rank>
388

> <Conf_Id>
39

> <Delta U+W>
0.965

> <U+W>
-26.861

> <U>
25.129

> <W>
-51.990

> <W(PB)>
-54.526

> <W(SA)>
2.536

> <Valence>
4.206

> <Coulomb>
19.678

> <VdW>
1.245

> <VdW6>
-8.834

> <VdW12>
10.079

> <Bond>
0.240

> <Angle>
1.353

> <Pdih>
2.613

> <Idih>
0.000

> <Tether>
0.000

$$$$
VeraChem MOL file


 29 28  0  0  0  0  0  0  0  0999 V2000     
   19.8472   23.3323   23.2376 C   0  0  0  0  0  0  0  0  0  0  0  0
   18.8934   23.3319   22.6941 H   0  0  0  0  0  0  0  0  0  0  0  0
   19.6375   23.1656   24.3013 H   0  0  0  0  0  0  0  0  0  0  0  0
   20.2875   24.3332   23.1420 H   0  0  0  0  0  0  0  0  0  0  0  0
   20.8093   22.2628   22.6725 C   0  0  0  0  0  0  0  0  0  0  0  0
   21.7415   22.2587   23.2545 H   0  0  0  0  0  0  0  0  0  0  0  0
   21.0881   22.5462   21.6479 H   0  0  0  0  0  0  0  0  0  0  0  0
   20.2031   20.8388   22.6444 C   0  0  0  0  0  0  0  0  0  0  0  0
   19.2723   20.8482   22.0608 H   0  0  0  0  0  0  0  0  0  0  0  0
   20.9006   20.1851   22.1054 H   0  0  0  0  0  0  0  0  0  0  0  0
   19.9310   20.2565   24.0548 C   0  0  0  0  0  0  0  0  0  0  0  0
   19.2398   20.9165   24.5943 H   0  0  0  0  0  0  0  0  0  0  0  0
   20.8628   20.2428   24.6367 H   0  0  0  0  0  0  0  0  0  0  0  0
   19.3131   18.8366   24.0299 C   0  0  0  0  0  0  0  0  0  0  0  0
   19.0306   18.5709   25.0569 H   0  0  0  0  0  0  0  0  0  0  0  0
   18.3820   18.8611   23.4485 H   0  0  0  0  0  0  0  0  0  0  0  0
   20.2716   17.7549   23.4608 C   0  0  0  0  0  0  0  0  0  0  0  0
   21.2382   17.8203   23.9772 H   0  0  0  0  0  0  0  0  0  0  0  0
   20.4773   17.9615   22.4033 H   0  0  0  0  0  0  0  0  0  0  0  0
   19.7520   16.3024   23.5762 C   0  0  2  0  0  0  0  0  0  0  0  0
   20.5188   15.6480   23.1501 H   0  0  0  0  0  0  0  0  0  0  0  0
   18.4572   16.0870   22.7735 C   0  0  0  0  0  0  0  0  0  0  0  0
   17.6166   16.6447   23.2034 H   0  0  0  0  0  0  0  0  0  0  0  0
   18.5862   16.4074   21.7323 H   0  0  0  0  0  0  0  0  0  0  0  0
   18.1844   15.0246   22.7633 H   0  0  0  0  0  0  0  0  0  0  0  0
   19.5794   15.8649   25.0047 N   0  3  0  0  0  0  0  0  0  0  0  0
   20.4494   15.9649   25.5356 H   0  0  0  0  0  0  0  0  0  0  0  0
   19.2961   14.8826   25.0634 H   0  0  0  0  0  0  0  0  0  0  0  0
   18.8630   16.4199   25.4792 H   0  0  0  0  0  0  0  0  0  0  0  0
  1  2  1  0  0  0  0
  1  3  1  0  0  0  0
  1  4  1  0  0  0  0
  1  5  1  0  0  0  0
  5  6  1  0  0  0  0
  5  7  1  0  0  0  0
  5  8  1  0  0  0  0
  8  9  1  0  0  0  0
  8 10  1  0  0  0  0
  8 11  1  0  0  0  0
 11 12  1  0  0  0  0
 11 13  1  0  0  0  0
 11 14  1  0  0  0  0
 14 15  1  0  0  0  0
 14 16  1  0  0  0  0
 14 17  1  0  0  0  0
 17 18  1  0  0  0  0
 17 19  1  0  0  0  0
 17 20  1  0  0  0  0
 20 21  1  0  0  0  0
 20 22  1  0  0  0  0
 22 23  1  0  0  0  0
 22 24  1  0  0  0  0
 22 25  1  0  0  0  0
 20 26  1  0  0  0  0
 26 27  1  0  0  0  0
 26 28  1  0  0  0  0
 26 29  1  0  0  0  0
M  END
> <VConfSearch Rank>
389

> <Conf_Id>
155

> <Delta U+W>
1.624

> <U+W>
-26.202

> <U>
25.894

> <W>
-52.096

> <W(PB)>
-54.602

> <W(SA)>
2.506

> <Valence>
4.779

> <Coulomb>
19.659

> <VdW>
1.456

> <VdW6>
-9.843

> <VdW12>
11.299

> <Bond>
0.315

> <Angle>
1.725

> <Pdih>
2.740

> <Idih>
0.000

> <Tether>
0.000

$$$$
VeraChem MOL file


 29 28  0  0  0  0  0  0  0  0999 V2000     
   18.1410   15.6345   24.9528 C   0  0  0  0  0  0  0  0  0  0  0  0
   19.1305   15.6849   25.4239 H   0  0  0  0  0  0  0  0  0  0  0  0
   17.4905   16.3736   25.4383 H   0  0  0  0  0  0  0  0  0  0  0  0
   17.7283   14.6381   25.1571 H   0  0  0  0  0  0  0  0  0  0  0  0
   18.2248   15.8836   23.4299 C   0  0  0  0  0  0  0  0  0  0  0  0
   17.2344   15.7089   22.9868 H   0  0  0  0  0  0  0  0  0  0  0  0
   18.9006   15.1480   22.9718 H   0  0  0  0  0  0  0  0  0  0  0  0
   18.6862   17.3157   23.0676 C   0  0  0  0  0  0  0  0  0  0  0  0
   18.6219   17.4380   21.9777 H   0  0  0  0  0  0  0  0  0  0  0  0
   17.9844   18.0380   23.5045 H   0  0  0  0  0  0  0  0  0  0  0  0
   20.1322   17.6285   23.5291 C   0  0  0  0  0  0  0  0  0  0  0  0
   20.7955   16.8191   23.1942 H   0  0  0  0  0  0  0  0  0  0  0  0
   20.1843   17.6376   24.6259 H   0  0  0  0  0  0  0  0  0  0  0  0
   20.6820   18.9690   22.9820 C   0  0  0  0  0  0  0  0  0  0  0  0
   21.7449   19.0294   23.2483 H   0  0  0  0  0  0  0  0  0  0  0  0
   20.6373   18.9644   21.8842 H   0  0  0  0  0  0  0  0  0  0  0  0
   19.9361   20.2130   23.5312 C   0  0  0  0  0  0  0  0  0  0  0  0
   19.9910   20.2240   24.6278 H   0  0  0  0  0  0  0  0  0  0  0  0
   18.8732   20.1348   23.2729 H   0  0  0  0  0  0  0  0  0  0  0  0
   20.4647   21.5536   22.9708 C   0  0  2  0  0  0  0  0  0  0  0  0
   20.4572   21.4958   21.8780 H   0  0  0  0  0  0  0  0  0  0  0  0
   21.9018   21.8534   23.4341 C   0  0  0  0  0  0  0  0  0  0  0  0
   21.9739   21.8537   24.5289 H   0  0  0  0  0  0  0  0  0  0  0  0
   22.6107   21.1151   23.0427 H   0  0  0  0  0  0  0  0  0  0  0  0
   22.2268   22.8366   23.0720 H   0  0  0  0  0  0  0  0  0  0  0  0
   19.5540   22.6913   23.3409 N   0  3  0  0  0  0  0  0  0  0  0  0
   18.5997   22.5360   23.0033 H   0  0  0  0  0  0  0  0  0  0  0  0
   19.8787   23.5757   22.9394 H   0  0  0  0  0  0  0  0  0  0  0  0
   19.5052   22.8163   24.3556 H   0  0  0  0  0  0  0  0  0  0  0  0
  1  2  1  0  0  0  0
  1  3  1  0  0  0  0
  1  4  1  0  0  0  0
  1  5  1  0  0  0  0
  5  6  1  0  0  0  0
  5  7  1  0  0  0  0
  5  8  1  0  0  0  0
  8  9  1  0  0  0  0
  8 10  1  0  0  0  0
  8 11  1  0  0  0  0
 11 12  1  0  0  0  0
 11 13  1  0  0  0  0
 11 14  1  0  0  0  0
 14 15  1  0  0  0  0
 14 16  1  0  0  0  0
 14 17  1  0  0  0  0
 17 18  1  0  0  0  0
 17 19  1  0  0  0  0
 17 20  1  0  0  0  0
 20 21  1  0  0  0  0
 20 22  1  0  0  0  0
 22 23  1  0  0  0  0
 22 24  1  0  0  0  0
 22 25  1  0  0  0  0
 20 26  1  0  0  0  0
 26 27  1  0  0  0  0
 26 28  1  0  0  0  0
 26 29  1  0  0  0  0
M  END
> <VConfSearch Rank>
390

> <Conf_Id>
135

> <Delta U+W>
1.581

> <U+W>
-26.245

> <U>
25.974

> <W>
-52.219

> <W(PB)>
-54.709

> <W(SA)>
2.490

> <Valence>
4.811

> <Coulomb>
19.700

> <VdW>
1.463

> <VdW6>
-9.391

> <VdW12>
10.854

> <Bond>
0.285

> <Angle>
1.671

> <Pdih>
2.855

> <Idih>
0.000

> <Tether>
0.000

$$$$
VeraChem MOL file


 29 28  0  0  0  0  0  0  0  0999 V2000     
   19.1084   15.5616   21.6827 C   0  0  0  0  0  0  0  0  0  0  0  0
   19.5202   16.1538   20.8552 H   0  0  0  0  0  0  0  0  0  0  0  0
   19.9289   15.3057   22.3644 H   0  0  0  0  0  0  0  0  0  0  0  0
   18.7218   14.6232   21.2644 H   0  0  0  0  0  0  0  0  0  0  0  0
   17.9847   16.3322   22.4120 C   0  0  0  0  0  0  0  0  0  0  0  0
   17.6079   15.7302   23.2506 H   0  0  0  0  0  0  0  0  0  0  0  0
   17.1388   16.4626   21.7225 H   0  0  0  0  0  0  0  0  0  0  0  0
   18.4280   17.7238   22.9238 C   0  0  0  0  0  0  0  0  0  0  0  0
   18.7743   18.3253   22.0730 H   0  0  0  0  0  0  0  0  0  0  0  0
   17.5499   18.2411   23.3342 H   0  0  0  0  0  0  0  0  0  0  0  0
   19.5299   17.6550   24.0111 C   0  0  0  0  0  0  0  0  0  0  0  0
   20.4558   17.2481   23.5837 H   0  0  0  0  0  0  0  0  0  0  0  0
   19.2160   16.9532   24.7959 H   0  0  0  0  0  0  0  0  0  0  0  0
   19.8308   19.0247   24.6673 C   0  0  0  0  0  0  0  0  0  0  0  0
   18.9123   19.4102   25.1291 H   0  0  0  0  0  0  0  0  0  0  0  0
   20.5490   18.8702   25.4844 H   0  0  0  0  0  0  0  0  0  0  0  0
   20.4097   20.0664   23.6755 C   0  0  0  0  0  0  0  0  0  0  0  0
   19.6535   20.3344   22.9266 H   0  0  0  0  0  0  0  0  0  0  0  0
   21.2423   19.6043   23.1289 H   0  0  0  0  0  0  0  0  0  0  0  0
   20.9266   21.3518   24.3606 C   0  0  2  0  0  0  0  0  0  0  0  0
   21.6519   21.0638   25.1278 H   0  0  0  0  0  0  0  0  0  0  0  0
   19.7925   22.1442   25.0351 C   0  0  0  0  0  0  0  0  0  0  0  0
   19.0078   22.4056   24.3142 H   0  0  0  0  0  0  0  0  0  0  0  0
   19.3344   21.5701   25.8488 H   0  0  0  0  0  0  0  0  0  0  0  0
   20.1774   23.0743   25.4711 H   0  0  0  0  0  0  0  0  0  0  0  0
   21.6649   22.2268   23.3861 N   0  3  0  0  0  0  0  0  0  0  0  0
   22.0432   23.0606   23.8448 H   0  0  0  0  0  0  0  0  0  0  0  0
   21.0521   22.5453   22.6307 H   0  0  0  0  0  0  0  0  0  0  0  0
   22.4520   21.7321   22.9565 H   0  0  0  0  0  0  0  0  0  0  0  0
  1  2  1  0  0  0  0
  1  3  1  0  0  0  0
  1  4  1  0  0  0  0
  1  5  1  0  0  0  0
  5  6  1  0  0  0  0
  5  7  1  0  0  0  0
  5  8  1  0  0  0  0
  8  9  1  0  0  0  0
  8 10  1  0  0  0  0
  8 11  1  0  0  0  0
 11 12  1  0  0  0  0
 11 13  1  0  0  0  0
 11 14  1  0  0  0  0
 14 15  1  0  0  0  0
 14 16  1  0  0  0  0
 14 17  1  0  0  0  0
 17 18  1  0  0  0  0
 17 19  1  0  0  0  0
 17 20  1  0  0  0  0
 20 21  1  0  0  0  0
 20 22  1  0  0  0  0
 22 23  1  0  0  0  0
 22 24  1  0  0  0  0
 22 25  1  0  0  0  0
 20 26  1  0  0  0  0
 26 27  1  0  0  0  0
 26 28  1  0  0  0  0
 26 29  1  0  0  0  0
M  END
> <VConfSearch Rank>
391

> <Conf_Id>
130

> <Delta U+W>
1.359

> <U+W>
-26.467

> <U>
25.687

> <W>
-52.154

> <W(PB)>
-54.643

> <W(SA)>
2.489

> <Valence>
4.682

> <Coulomb>
19.653

> <VdW>
1.352

> <VdW6>
-9.477

> <VdW12>
10.829

> <Bond>
0.274

> <Angle>
1.550

> <Pdih>
2.858

> <Idih>
0.000

> <Tether>
0.000

$$$$
VeraChem MOL file


 29 28  0  0  0  0  0  0  0  0999 V2000     
   23.0876   16.7916   22.7302 C   0  0  0  0  0  0  0  0  0  0  0  0
   24.0699   16.4801   23.1083 H   0  0  0  0  0  0  0  0  0  0  0  0
   22.7513   16.0370   22.0074 H   0  0  0  0  0  0  0  0  0  0  0  0
   23.2257   17.7409   22.1980 H   0  0  0  0  0  0  0  0  0  0  0  0
   22.0808   16.9339   23.8941 C   0  0  0  0  0  0  0  0  0  0  0  0
   22.4227   17.7172   24.5850 H   0  0  0  0  0  0  0  0  0  0  0  0
   22.0726   15.9982   24.4704 H   0  0  0  0  0  0  0  0  0  0  0  0
   20.6374   17.2414   23.4276 C   0  0  0  0  0  0  0  0  0  0  0  0
   20.2947   16.4458   22.7520 H   0  0  0  0  0  0  0  0  0  0  0  0
   19.9794   17.2026   24.3048 H   0  0  0  0  0  0  0  0  0  0  0  0
   20.4971   18.6167   22.7259 C   0  0  0  0  0  0  0  0  0  0  0  0
   21.1079   18.6169   21.8138 H   0  0  0  0  0  0  0  0  0  0  0  0
   20.9068   19.4033   23.3709 H   0  0  0  0  0  0  0  0  0  0  0  0
   19.0365   18.9490   22.3242 C   0  0  0  0  0  0  0  0  0  0  0  0
   19.0343   19.7640   21.5873 H   0  0  0  0  0  0  0  0  0  0  0  0
   18.6161   18.0800   21.7993 H   0  0  0  0  0  0  0  0  0  0  0  0
   18.1041   19.3231   23.5098 C   0  0  0  0  0  0  0  0  0  0  0  0
   18.4422   18.8506   24.4396 H   0  0  0  0  0  0  0  0  0  0  0  0
   17.1133   18.8980   23.3021 H   0  0  0  0  0  0  0  0  0  0  0  0
   17.9217   20.8437   23.7313 C   0  0  2  0  0  0  0  0  0  0  0  0
   17.5459   21.2810   22.8012 H   0  0  0  0  0  0  0  0  0  0  0  0
   19.2362   21.5525   24.0989 C   0  0  0  0  0  0  0  0  0  0  0  0
   19.9487   21.5162   23.2667 H   0  0  0  0  0  0  0  0  0  0  0  0
   19.0557   22.6110   24.3231 H   0  0  0  0  0  0  0  0  0  0  0  0
   19.7034   21.0925   24.9785 H   0  0  0  0  0  0  0  0  0  0  0  0
   16.8760   21.1146   24.7772 N   0  3  0  0  0  0  0  0  0  0  0  0
   15.9769   20.6912   24.5302 H   0  0  0  0  0  0  0  0  0  0  0  0
   16.7172   22.1193   24.8955 H   0  0  0  0  0  0  0  0  0  0  0  0
   17.1530   20.7397   25.6885 H   0  0  0  0  0  0  0  0  0  0  0  0
  1  2  1  0  0  0  0
  1  3  1  0  0  0  0
  1  4  1  0  0  0  0
  1  5  1  0  0  0  0
  5  6  1  0  0  0  0
  5  7  1  0  0  0  0
  5  8  1  0  0  0  0
  8  9  1  0  0  0  0
  8 10  1  0  0  0  0
  8 11  1  0  0  0  0
 11 12  1  0  0  0  0
 11 13  1  0  0  0  0
 11 14  1  0  0  0  0
 14 15  1  0  0  0  0
 14 16  1  0  0  0  0
 14 17  1  0  0  0  0
 17 18  1  0  0  0  0
 17 19  1  0  0  0  0
 17 20  1  0  0  0  0
 20 21  1  0  0  0  0
 20 22  1  0  0  0  0
 22 23  1  0  0  0  0
 22 24  1  0  0  0  0
 22 25  1  0  0  0  0
 20 26  1  0  0  0  0
 26 27  1  0  0  0  0
 26 28  1  0  0  0  0
 26 29  1  0  0  0  0
M  END
> <VConfSearch Rank>
392

> <Conf_Id>
157

> <Delta U+W>
4.354

> <U+W>
-23.472

> <U>
28.780

> <W>
-52.252

> <W(PB)>
-54.715

> <W(SA)>
2.462

> <Valence>
7.566

> <Coulomb>
19.822

> <VdW>
1.392

> <VdW6>
-10.248

> <VdW12>
11.641

> <Bond>
0.340

> <Angle>
2.096

> <Pdih>
5.129

> <Idih>
0.000

> <Tether>
0.000

$$$$
VeraChem MOL file


 29 28  0  0  0  0  0  0  0  0999 V2000     
   18.6070   19.0798   27.0659 C   0  0  0  0  0  0  0  0  0  0  0  0
   18.9222   18.8182   28.0843 H   0  0  0  0  0  0  0  0  0  0  0  0
   19.3740   19.7351   26.6387 H   0  0  0  0  0  0  0  0  0  0  0  0
   17.6759   19.6561   27.1434 H   0  0  0  0  0  0  0  0  0  0  0  0
   18.3955   17.8024   26.2202 C   0  0  0  0  0  0  0  0  0  0  0  0
   17.6300   17.1903   26.7175 H   0  0  0  0  0  0  0  0  0  0  0  0
   19.3102   17.1935   26.2118 H   0  0  0  0  0  0  0  0  0  0  0  0
   17.9292   18.0956   24.7710 C   0  0  0  0  0  0  0  0  0  0  0  0
   17.2175   17.3120   24.4763 H   0  0  0  0  0  0  0  0  0  0  0  0
   17.3628   19.0364   24.7370 H   0  0  0  0  0  0  0  0  0  0  0  0
   19.0622   18.1171   23.7126 C   0  0  0  0  0  0  0  0  0  0  0  0
   18.5974   18.2581   22.7284 H   0  0  0  0  0  0  0  0  0  0  0  0
   19.5503   17.1332   23.6822 H   0  0  0  0  0  0  0  0  0  0  0  0
   20.1310   19.2130   23.9464 C   0  0  0  0  0  0  0  0  0  0  0  0
   19.6450   20.1906   24.0632 H   0  0  0  0  0  0  0  0  0  0  0  0
   20.6517   19.0112   24.8911 H   0  0  0  0  0  0  0  0  0  0  0  0
   21.1979   19.2786   22.8231 C   0  0  0  0  0  0  0  0  0  0  0  0
   21.7259   18.3166   22.7809 H   0  0  0  0  0  0  0  0  0  0  0  0
   21.9520   20.0301   23.0921 H   0  0  0  0  0  0  0  0  0  0  0  0
   20.6327   19.6047   21.4223 C   0  0  2  0  0  0  0  0  0  0  0  0
   19.9070   18.8317   21.1535 H   0  0  0  0  0  0  0  0  0  0  0  0
   21.7574   19.5884   20.3752 C   0  0  0  0  0  0  0  0  0  0  0  0
   22.5138   20.3529   20.5926 H   0  0  0  0  0  0  0  0  0  0  0  0
   22.2556   18.6111   20.3540 H   0  0  0  0  0  0  0  0  0  0  0  0
   21.3567   19.7796   19.3721 H   0  0  0  0  0  0  0  0  0  0  0  0
   19.8987   20.9170   21.3911 N   0  3  0  0  0  0  0  0  0  0  0  0
   19.1227   20.9233   22.0587 H   0  0  0  0  0  0  0  0  0  0  0  0
   19.5090   21.1066   20.4633 H   0  0  0  0  0  0  0  0  0  0  0  0
   20.5182   21.6960   21.6294 H   0  0  0  0  0  0  0  0  0  0  0  0
  1  2  1  0  0  0  0
  1  3  1  0  0  0  0
  1  4  1  0  0  0  0
  1  5  1  0  0  0  0
  5  6  1  0  0  0  0
  5  7  1  0  0  0  0
  5  8  1  0  0  0  0
  8  9  1  0  0  0  0
  8 10  1  0  0  0  0
  8 11  1  0  0  0  0
 11 12  1  0  0  0  0
 11 13  1  0  0  0  0
 11 14  1  0  0  0  0
 14 15  1  0  0  0  0
 14 16  1  0  0  0  0
 14 17  1  0  0  0  0
 17 18  1  0  0  0  0
 17 19  1  0  0  0  0
 17 20  1  0  0  0  0
 20 21  1  0  0  0  0
 20 22  1  0  0  0  0
 22 23  1  0  0  0  0
 22 24  1  0  0  0  0
 22 25  1  0  0  0  0
 20 26  1  0  0  0  0
 26 27  1  0  0  0  0
 26 28  1  0  0  0  0
 26 29  1  0  0  0  0
M  END
> <VConfSearch Rank>
393

> <Conf_Id>
158

> <Delta U+W>
3.648

> <U+W>
-24.178

> <U>
28.057

> <W>
-52.235

> <W(PB)>
-54.696

> <W(SA)>
2.460

> <Valence>
6.543

> <Coulomb>
20.387

> <VdW>
1.127

> <VdW6>
-10.342

> <VdW12>
11.469

> <Bond>
0.308

> <Angle>
1.938

> <Pdih>
4.297

> <Idih>
0.000

> <Tether>
0.000

$$$$
VeraChem MOL file


 29 28  0  0  0  0  0  0  0  0999 V2000     
   19.6397   17.7991   27.0066 C   0  0  0  0  0  0  0  0  0  0  0  0
   20.7277   17.9291   27.0715 H   0  0  0  0  0  0  0  0  0  0  0  0
   19.1962   18.7549   26.7012 H   0  0  0  0  0  0  0  0  0  0  0  0
   19.2682   17.5704   28.0138 H   0  0  0  0  0  0  0  0  0  0  0  0
   19.2734   16.6632   26.0246 C   0  0  0  0  0  0  0  0  0  0  0  0
   18.1804   16.5748   25.9525 H   0  0  0  0  0  0  0  0  0  0  0  0
   19.6325   15.7098   26.4368 H   0  0  0  0  0  0  0  0  0  0  0  0
   19.8777   16.8520   24.6123 C   0  0  0  0  0  0  0  0  0  0  0  0
   20.9716   16.9218   24.6882 H   0  0  0  0  0  0  0  0  0  0  0  0
   19.6658   15.9518   24.0189 H   0  0  0  0  0  0  0  0  0  0  0  0
   19.3264   18.0905   23.8663 C   0  0  0  0  0  0  0  0  0  0  0  0
   19.5797   18.9992   24.4231 H   0  0  0  0  0  0  0  0  0  0  0  0
   18.2295   18.0376   23.8339 H   0  0  0  0  0  0  0  0  0  0  0  0
   19.8780   18.1804   22.4222 C   0  0  0  0  0  0  0  0  0  0  0  0
   20.9766   18.1579   22.4280 H   0  0  0  0  0  0  0  0  0  0  0  0
   19.5598   17.2804   21.8780 H   0  0  0  0  0  0  0  0  0  0  0  0
   19.3749   19.4271   21.6471 C   0  0  0  0  0  0  0  0  0  0  0  0
   18.3970   19.7460   22.0315 H   0  0  0  0  0  0  0  0  0  0  0  0
   19.2024   19.1262   20.6052 H   0  0  0  0  0  0  0  0  0  0  0  0
   20.3580   20.6224   21.6290 C   0  0  2  0  0  0  0  0  0  0  0  0
   21.3022   20.2795   21.1949 H   0  0  0  0  0  0  0  0  0  0  0  0
   20.6502   21.1783   23.0329 C   0  0  0  0  0  0  0  0  0  0  0  0
   19.7239   21.4514   23.5534 H   0  0  0  0  0  0  0  0  0  0  0  0
   21.1901   20.4441   23.6419 H   0  0  0  0  0  0  0  0  0  0  0  0
   21.2826   22.0725   22.9711 H   0  0  0  0  0  0  0  0  0  0  0  0
   19.8553   21.7187   20.7313 N   0  3  0  0  0  0  0  0  0  0  0  0
   19.6994   21.3828   19.7765 H   0  0  0  0  0  0  0  0  0  0  0  0
   20.5233   22.4929   20.6765 H   0  0  0  0  0  0  0  0  0  0  0  0
   18.9695   22.1031   21.0709 H   0  0  0  0  0  0  0  0  0  0  0  0
  1  2  1  0  0  0  0
  1  3  1  0  0  0  0
  1  4  1  0  0  0  0
  1  5  1  0  0  0  0
  5  6  1  0  0  0  0
  5  7  1  0  0  0  0
  5  8  1  0  0  0  0
  8  9  1  0  0  0  0
  8 10  1  0  0  0  0
  8 11  1  0  0  0  0
 11 12  1  0  0  0  0
 11 13  1  0  0  0  0
 11 14  1  0  0  0  0
 14 15  1  0  0  0  0
 14 16  1  0  0  0  0
 14 17  1  0  0  0  0
 17 18  1  0  0  0  0
 17 19  1  0  0  0  0
 17 20  1  0  0  0  0
 20 21  1  0  0  0  0
 20 22  1  0  0  0  0
 22 23  1  0  0  0  0
 22 24  1  0  0  0  0
 22 25  1  0  0  0  0
 20 26  1  0  0  0  0
 26 27  1  0  0  0  0
 26 28  1  0  0  0  0
 26 29  1  0  0  0  0
M  END
> <VConfSearch Rank>
394

> <Conf_Id>
156

> <Delta U+W>
3.393

> <U+W>
-24.433

> <U>
27.713

> <W>
-52.146

> <W(PB)>
-54.603

> <W(SA)>
2.458

> <Valence>
6.758

> <Coulomb>
19.720

> <VdW>
1.235

> <VdW6>
-9.782

> <VdW12>
11.017

> <Bond>
0.287

> <Angle>
1.880

> <Pdih>
4.591

> <Idih>
0.000

> <Tether>
0.000

$$$$
VeraChem MOL file


 29 28  0  0  0  0  0  0  0  0999 V2000     
   18.4319   22.2293   25.5396 C   0  0  0  0  0  0  0  0  0  0  0  0
   18.6127   21.6198   26.4346 H   0  0  0  0  0  0  0  0  0  0  0  0
   18.9557   23.1858   25.6654 H   0  0  0  0  0  0  0  0  0  0  0  0
   17.3558   22.4390   25.4861 H   0  0  0  0  0  0  0  0  0  0  0  0
   18.9085   21.4988   24.2664 C   0  0  0  0  0  0  0  0  0  0  0  0
   18.6882   22.1184   23.3860 H   0  0  0  0  0  0  0  0  0  0  0  0
   18.3352   20.5691   24.1540 H   0  0  0  0  0  0  0  0  0  0  0  0
   20.4227   21.1880   24.3204 C   0  0  0  0  0  0  0  0  0  0  0  0
   20.9712   22.1209   24.5103 H   0  0  0  0  0  0  0  0  0  0  0  0
   20.6377   20.5349   25.1763 H   0  0  0  0  0  0  0  0  0  0  0  0
   20.9752   20.5562   23.0164 C   0  0  0  0  0  0  0  0  0  0  0  0
   22.0552   20.3925   23.1342 H   0  0  0  0  0  0  0  0  0  0  0  0
   20.8699   21.2827   22.1989 H   0  0  0  0  0  0  0  0  0  0  0  0
   20.3090   19.2239   22.5848 C   0  0  0  0  0  0  0  0  0  0  0  0
   19.2529   19.4006   22.3458 H   0  0  0  0  0  0  0  0  0  0  0  0
   20.7819   18.9026   21.6479 H   0  0  0  0  0  0  0  0  0  0  0  0
   20.4389   18.0972   23.6459 C   0  0  0  0  0  0  0  0  0  0  0  0
   19.9410   18.4070   24.5728 H   0  0  0  0  0  0  0  0  0  0  0  0
   21.4977   17.9589   23.9013 H   0  0  0  0  0  0  0  0  0  0  0  0
   19.8457   16.7327   23.2223 C   0  0  2  0  0  0  0  0  0  0  0  0
   19.9554   16.0534   24.0733 H   0  0  0  0  0  0  0  0  0  0  0  0
   20.6028   16.1128   22.0348 C   0  0  0  0  0  0  0  0  0  0  0  0
   20.2544   15.0891   21.8511 H   0  0  0  0  0  0  0  0  0  0  0  0
   20.4534   16.6867   21.1127 H   0  0  0  0  0  0  0  0  0  0  0  0
   21.6794   16.0655   22.2404 H   0  0  0  0  0  0  0  0  0  0  0  0
   18.3708   16.8114   22.9393 N   0  3  0  0  0  0  0  0  0  0  0  0
   17.8535   17.1784   23.7431 H   0  0  0  0  0  0  0  0  0  0  0  0
   17.9828   15.8894   22.7200 H   0  0  0  0  0  0  0  0  0  0  0  0
   18.1788   17.4231   22.1421 H   0  0  0  0  0  0  0  0  0  0  0  0
  1  2  1  0  0  0  0
  1  3  1  0  0  0  0
  1  4  1  0  0  0  0
  1  5  1  0  0  0  0
  5  6  1  0  0  0  0
  5  7  1  0  0  0  0
  5  8  1  0  0  0  0
  8  9  1  0  0  0  0
  8 10  1  0  0  0  0
  8 11  1  0  0  0  0
 11 12  1  0  0  0  0
 11 13  1  0  0  0  0
 11 14  1  0  0  0  0
 14 15  1  0  0  0  0
 14 16  1  0  0  0  0
 14 17  1  0  0  0  0
 17 18  1  0  0  0  0
 17 19  1  0  0  0  0
 17 20  1  0  0  0  0
 20 21  1  0  0  0  0
 20 22  1  0  0  0  0
 22 23  1  0  0  0  0
 22 24  1  0  0  0  0
 22 25  1  0  0  0  0
 20 26  1  0  0  0  0
 26 27  1  0  0  0  0
 26 28  1  0  0  0  0
 26 29  1  0  0  0  0
M  END
> <VConfSearch Rank>
395

> <Conf_Id>
78

> <Delta U+W>
1.477

> <U+W>
-26.349

> <U>
26.385

> <W>
-52.734

> <W(PB)>
-55.179

> <W(SA)>
2.445

> <Valence>
4.726

> <Coulomb>
20.482

> <VdW>
1.177

> <VdW6>
-10.349

> <VdW12>
11.526

> <Bond>
0.319

> <Angle>
1.933

> <Pdih>
2.474

> <Idih>
0.000

> <Tether>
0.000

$$$$
VeraChem MOL file


 29 28  0  0  0  0  0  0  0  0999 V2000     
   22.5893   16.7218   22.7605 C   0  0  0  0  0  0  0  0  0  0  0  0
   22.1687   15.7620   22.4334 H   0  0  0  0  0  0  0  0  0  0  0  0
   22.1984   17.5033   22.0997 H   0  0  0  0  0  0  0  0  0  0  0  0
   23.6763   16.6756   22.6151 H   0  0  0  0  0  0  0  0  0  0  0  0
   22.2533   16.9931   24.2455 C   0  0  0  0  0  0  0  0  0  0  0  0
   22.7429   17.9161   24.5860 H   0  0  0  0  0  0  0  0  0  0  0  0
   22.6890   16.1814   24.8449 H   0  0  0  0  0  0  0  0  0  0  0  0
   20.7303   17.0542   24.5289 C   0  0  0  0  0  0  0  0  0  0  0  0
   20.1842   16.4295   23.8087 H   0  0  0  0  0  0  0  0  0  0  0  0
   20.5474   16.5994   25.5123 H   0  0  0  0  0  0  0  0  0  0  0  0
   20.1286   18.4829   24.5575 C   0  0  0  0  0  0  0  0  0  0  0  0
   20.6095   19.0648   25.3558 H   0  0  0  0  0  0  0  0  0  0  0  0
   19.0710   18.3941   24.8374 H   0  0  0  0  0  0  0  0  0  0  0  0
   20.2483   19.2510   23.2182 C   0  0  0  0  0  0  0  0  0  0  0  0
   21.3095   19.4084   22.9875 H   0  0  0  0  0  0  0  0  0  0  0  0
   19.8422   18.6422   22.3998 H   0  0  0  0  0  0  0  0  0  0  0  0
   19.5598   20.6405   23.2440 C   0  0  0  0  0  0  0  0  0  0  0  0
   19.7234   21.1355   22.2776 H   0  0  0  0  0  0  0  0  0  0  0  0
   20.0646   21.2635   23.9940 H   0  0  0  0  0  0  0  0  0  0  0  0
   18.0441   20.6222   23.5540 C   0  0  2  0  0  0  0  0  0  0  0  0
   17.8950   20.1441   24.5264 H   0  0  0  0  0  0  0  0  0  0  0  0
   17.2460   19.8372   22.4980 C   0  0  0  0  0  0  0  0  0  0  0  0
   16.1712   19.8835   22.7124 H   0  0  0  0  0  0  0  0  0  0  0  0
   17.4107   20.2442   21.4926 H   0  0  0  0  0  0  0  0  0  0  0  0
   17.5300   18.7784   22.4915 H   0  0  0  0  0  0  0  0  0  0  0  0
   17.5021   22.0183   23.6851 N   0  3  0  0  0  0  0  0  0  0  0  0
   17.5979   22.5403   22.8099 H   0  0  0  0  0  0  0  0  0  0  0  0
   17.9919   22.5461   24.4134 H   0  0  0  0  0  0  0  0  0  0  0  0
   16.5078   22.0122   23.9299 H   0  0  0  0  0  0  0  0  0  0  0  0
  1  2  1  0  0  0  0
  1  3  1  0  0  0  0
  1  4  1  0  0  0  0
  1  5  1  0  0  0  0
  5  6  1  0  0  0  0
  5  7  1  0  0  0  0
  5  8  1  0  0  0  0
  8  9  1  0  0  0  0
  8 10  1  0  0  0  0
  8 11  1  0  0  0  0
 11 12  1  0  0  0  0
 11 13  1  0  0  0  0
 11 14  1  0  0  0  0
 14 15  1  0  0  0  0
 14 16  1  0  0  0  0
 14 17  1  0  0  0  0
 17 18  1  0  0  0  0
 17 19  1  0  0  0  0
 17 20  1  0  0  0  0
 20 21  1  0  0  0  0
 20 22  1  0  0  0  0
 22 23  1  0  0  0  0
 22 24  1  0  0  0  0
 22 25  1  0  0  0  0
 20 26  1  0  0  0  0
 26 27  1  0  0  0  0
 26 28  1  0  0  0  0
 26 29  1  0  0  0  0
M  END
> <VConfSearch Rank>
396

> <Conf_Id>
145

> <Delta U+W>
3.784

> <U+W>
-24.042

> <U>
28.220

> <W>
-52.262

> <W(PB)>
-54.724

> <W(SA)>
2.462

> <Valence>
7.040

> <Coulomb>
19.984

> <VdW>
1.197

> <VdW6>
-10.566

> <VdW12>
11.763

> <Bond>
0.320

> <Angle>
2.280

> <Pdih>
4.439

> <Idih>
0.000

> <Tether>
0.000

$$$$
VeraChem MOL file


 29 28  0  0  0  0  0  0  0  0999 V2000     
   17.3307   19.0724   20.4442 C   0  0  0  0  0  0  0  0  0  0  0  0
   16.7464   18.1930   20.1433 H   0  0  0  0  0  0  0  0  0  0  0  0
   16.7251   19.6621   21.1447 H   0  0  0  0  0  0  0  0  0  0  0  0
   17.5031   19.6847   19.5495 H   0  0  0  0  0  0  0  0  0  0  0  0
   18.6709   18.6552   21.0856 C   0  0  0  0  0  0  0  0  0  0  0  0
   19.2463   19.5552   21.3335 H   0  0  0  0  0  0  0  0  0  0  0  0
   19.2664   18.0977   20.3491 H   0  0  0  0  0  0  0  0  0  0  0  0
   18.4529   17.7801   22.3434 C   0  0  0  0  0  0  0  0  0  0  0  0
   17.8016   18.2962   23.0621 H   0  0  0  0  0  0  0  0  0  0  0  0
   17.9094   16.8749   22.0389 H   0  0  0  0  0  0  0  0  0  0  0  0
   19.7745   17.3510   23.0325 C   0  0  0  0  0  0  0  0  0  0  0  0
   20.5900   17.3028   22.2978 H   0  0  0  0  0  0  0  0  0  0  0  0
   19.6492   16.3236   23.4016 H   0  0  0  0  0  0  0  0  0  0  0  0
   20.1943   18.2312   24.2380 C   0  0  0  0  0  0  0  0  0  0  0  0
   19.4130   18.1786   25.0078 H   0  0  0  0  0  0  0  0  0  0  0  0
   21.0931   17.7837   24.6807 H   0  0  0  0  0  0  0  0  0  0  0  0
   20.4742   19.7138   23.8741 C   0  0  0  0  0  0  0  0  0  0  0  0
   19.5476   20.1785   23.5161 H   0  0  0  0  0  0  0  0  0  0  0  0
   21.1852   19.7573   23.0387 H   0  0  0  0  0  0  0  0  0  0  0  0
   21.0163   20.5789   25.0364 C   0  0  2  0  0  0  0  0  0  0  0  0
   21.0956   21.6058   24.6663 H   0  0  0  0  0  0  0  0  0  0  0  0
   22.4219   20.1390   25.4824 C   0  0  0  0  0  0  0  0  0  0  0  0
   22.8362   20.8550   26.2028 H   0  0  0  0  0  0  0  0  0  0  0  0
   22.4074   19.1536   25.9624 H   0  0  0  0  0  0  0  0  0  0  0  0
   23.1068   20.0952   24.6266 H   0  0  0  0  0  0  0  0  0  0  0  0
   20.0708   20.6286   26.2048 N   0  3  0  0  0  0  0  0  0  0  0  0
   19.9479   19.7023   26.6213 H   0  0  0  0  0  0  0  0  0  0  0  0
   19.1457   20.9669   25.9249 H   0  0  0  0  0  0  0  0  0  0  0  0
   20.4162   21.2529   26.9393 H   0  0  0  0  0  0  0  0  0  0  0  0
  1  2  1  0  0  0  0
  1  3  1  0  0  0  0
  1  4  1  0  0  0  0
  1  5  1  0  0  0  0
  5  6  1  0  0  0  0
  5  7  1  0  0  0  0
  5  8  1  0  0  0  0
  8  9  1  0  0  0  0
  8 10  1  0  0  0  0
  8 11  1  0  0  0  0
 11 12  1  0  0  0  0
 11 13  1  0  0  0  0
 11 14  1  0  0  0  0
 14 15  1  0  0  0  0
 14 16  1  0  0  0  0
 14 17  1  0  0  0  0
 17 18  1  0  0  0  0
 17 19  1  0  0  0  0
 17 20  1  0  0  0  0
 20 21  1  0  0  0  0
 20 22  1  0  0  0  0
 22 23  1  0  0  0  0
 22 24  1  0  0  0  0
 22 25  1  0  0  0  0
 20 26  1  0  0  0  0
 26 27  1  0  0  0  0
 26 28  1  0  0  0  0
 26 29  1  0  0  0  0
M  END
> <VConfSearch Rank>
397

> <Conf_Id>
71

> <Delta U+W>
3.542

> <U+W>
-24.284

> <U>
28.217

> <W>
-52.501

> <W(PB)>
-54.947

> <W(SA)>
2.446

> <Valence>
6.821

> <Coulomb>
20.147

> <VdW>
1.249

> <VdW6>
-10.237

> <VdW12>
11.486

> <Bond>
0.317

> <Angle>
1.990

> <Pdih>
4.515

> <Idih>
0.000

> <Tether>
0.000

$$$$
VeraChem MOL file


 29 28  0  0  0  0  0  0  0  0999 V2000     
   19.7361   20.9524   27.0235 C   0  0  0  0  0  0  0  0  0  0  0  0
   20.3769   20.1032   27.2944 H   0  0  0  0  0  0  0  0  0  0  0  0
   20.2782   21.8781   27.2568 H   0  0  0  0  0  0  0  0  0  0  0  0
   18.8419   20.9162   27.6593 H   0  0  0  0  0  0  0  0  0  0  0  0
   19.3463   20.8986   25.5313 C   0  0  0  0  0  0  0  0  0  0  0  0
   18.6790   21.7408   25.3010 H   0  0  0  0  0  0  0  0  0  0  0  0
   18.7702   19.9847   25.3437 H   0  0  0  0  0  0  0  0  0  0  0  0
   20.5918   20.9595   24.6145 C   0  0  0  0  0  0  0  0  0  0  0  0
   21.1168   21.9037   24.8156 H   0  0  0  0  0  0  0  0  0  0  0  0
   21.2986   20.1593   24.8739 H   0  0  0  0  0  0  0  0  0  0  0  0
   20.2504   20.9010   23.1027 C   0  0  0  0  0  0  0  0  0  0  0  0
   20.9531   21.5556   22.5687 H   0  0  0  0  0  0  0  0  0  0  0  0
   19.2540   21.3259   22.9193 H   0  0  0  0  0  0  0  0  0  0  0  0
   20.3549   19.4901   22.4681 C   0  0  0  0  0  0  0  0  0  0  0  0
   20.1740   19.5901   21.3900 H   0  0  0  0  0  0  0  0  0  0  0  0
   21.3862   19.1282   22.5746 H   0  0  0  0  0  0  0  0  0  0  0  0
   19.3689   18.4512   23.0652 C   0  0  0  0  0  0  0  0  0  0  0  0
   18.3577   18.8781   23.0810 H   0  0  0  0  0  0  0  0  0  0  0  0
   19.6383   18.2531   24.1101 H   0  0  0  0  0  0  0  0  0  0  0  0
   19.3189   17.0984   22.3168 C   0  0  2  0  0  0  0  0  0  0  0  0
   18.5921   16.4661   22.8362 H   0  0  0  0  0  0  0  0  0  0  0  0
   20.6746   16.3714   22.3469 C   0  0  0  0  0  0  0  0  0  0  0  0
   21.0395   16.2698   23.3765 H   0  0  0  0  0  0  0  0  0  0  0  0
   20.5785   15.3627   21.9269 H   0  0  0  0  0  0  0  0  0  0  0  0
   21.4340   16.9063   21.7640 H   0  0  0  0  0  0  0  0  0  0  0  0
   18.8143   17.2393   20.9070 N   0  3  0  0  0  0  0  0  0  0  0  0
   17.8922   17.6839   20.8811 H   0  0  0  0  0  0  0  0  0  0  0  0
   18.7279   16.3280   20.4479 H   0  0  0  0  0  0  0  0  0  0  0  0
   19.4476   17.8093   20.3410 H   0  0  0  0  0  0  0  0  0  0  0  0
  1  2  1  0  0  0  0
  1  3  1  0  0  0  0
  1  4  1  0  0  0  0
  1  5  1  0  0  0  0
  5  6  1  0  0  0  0
  5  7  1  0  0  0  0
  5  8  1  0  0  0  0
  8  9  1  0  0  0  0
  8 10  1  0  0  0  0
  8 11  1  0  0  0  0
 11 12  1  0  0  0  0
 11 13  1  0  0  0  0
 11 14  1  0  0  0  0
 14 15  1  0  0  0  0
 14 16  1  0  0  0  0
 14 17  1  0  0  0  0
 17 18  1  0  0  0  0
 17 19  1  0  0  0  0
 17 20  1  0  0  0  0
 20 21  1  0  0  0  0
 20 22  1  0  0  0  0
 22 23  1  0  0  0  0
 22 24  1  0  0  0  0
 22 25  1  0  0  0  0
 20 26  1  0  0  0  0
 26 27  1  0  0  0  0
 26 28  1  0  0  0  0
 26 29  1  0  0  0  0
M  END
> <VConfSearch Rank>
398

> <Conf_Id>
163

> <Delta U+W>
3.309

> <U+W>
-24.517

> <U>
27.916

> <W>
-52.433

> <W(PB)>
-54.866

> <W(SA)>
2.433

> <Valence>
6.693

> <Coulomb>
20.015

> <VdW>
1.208

> <VdW6>
-10.294

> <VdW12>
11.503

> <Bond>
0.312

> <Angle>
1.939

> <Pdih>
4.441

> <Idih>
0.000

> <Tether>
0.000

$$$$
VeraChem MOL file


 29 28  0  0  0  0  0  0  0  0999 V2000     
   21.2494   22.8742   23.4965 C   0  0  0  0  0  0  0  0  0  0  0  0
   21.9951   22.8543   22.6911 H   0  0  0  0  0  0  0  0  0  0  0  0
   20.2600   23.0213   23.0463 H   0  0  0  0  0  0  0  0  0  0  0  0
   21.4582   23.7494   24.1254 H   0  0  0  0  0  0  0  0  0  0  0  0
   21.3053   21.5789   24.3377 C   0  0  0  0  0  0  0  0  0  0  0  0
   20.5276   21.6075   25.1136 H   0  0  0  0  0  0  0  0  0  0  0  0
   22.2672   21.5446   24.8681 H   0  0  0  0  0  0  0  0  0  0  0  0
   21.1582   20.2884   23.4958 C   0  0  0  0  0  0  0  0  0  0  0  0
   21.9400   20.2622   22.7244 H   0  0  0  0  0  0  0  0  0  0  0  0
   21.3443   19.4314   24.1558 H   0  0  0  0  0  0  0  0  0  0  0  0
   19.7648   20.1398   22.8339 C   0  0  0  0  0  0  0  0  0  0  0  0
   19.5806   20.9983   22.1754 H   0  0  0  0  0  0  0  0  0  0  0  0
   18.9840   20.1762   23.6049 H   0  0  0  0  0  0  0  0  0  0  0  0
   19.6171   18.8502   21.9850 C   0  0  0  0  0  0  0  0  0  0  0  0
   18.6280   18.8522   21.5076 H   0  0  0  0  0  0  0  0  0  0  0  0
   20.3428   18.8801   21.1606 H   0  0  0  0  0  0  0  0  0  0  0  0
   19.8060   17.5227   22.7671 C   0  0  0  0  0  0  0  0  0  0  0  0
   20.8557   17.4306   23.0736 H   0  0  0  0  0  0  0  0  0  0  0  0
   19.6181   16.6801   22.0885 H   0  0  0  0  0  0  0  0  0  0  0  0
   18.9001   17.3884   24.0109 C   0  0  2  0  0  0  0  0  0  0  0  0
   19.1026   18.2329   24.6765 H   0  0  0  0  0  0  0  0  0  0  0  0
   19.2208   16.0915   24.7702 C   0  0  0  0  0  0  0  0  0  0  0  0
   18.6062   16.0094   25.6751 H   0  0  0  0  0  0  0  0  0  0  0  0
   19.0310   15.2089   24.1466 H   0  0  0  0  0  0  0  0  0  0  0  0
   20.2733   16.0715   25.0796 H   0  0  0  0  0  0  0  0  0  0  0  0
   17.4386   17.4515   23.6618 N   0  3  0  0  0  0  0  0  0  0  0  0
   17.2097   18.3262   23.1820 H   0  0  0  0  0  0  0  0  0  0  0  0
   16.8503   17.3945   24.4980 H   0  0  0  0  0  0  0  0  0  0  0  0
   17.1699   16.6811   23.0440 H   0  0  0  0  0  0  0  0  0  0  0  0
  1  2  1  0  0  0  0
  1  3  1  0  0  0  0
  1  4  1  0  0  0  0
  1  5  1  0  0  0  0
  5  6  1  0  0  0  0
  5  7  1  0  0  0  0
  5  8  1  0  0  0  0
  8  9  1  0  0  0  0
  8 10  1  0  0  0  0
  8 11  1  0  0  0  0
 11 12  1  0  0  0  0
 11 13  1  0  0  0  0
 11 14  1  0  0  0  0
 14 15  1  0  0  0  0
 14 16  1  0  0  0  0
 14 17  1  0  0  0  0
 17 18  1  0  0  0  0
 17 19  1  0  0  0  0
 17 20  1  0  0  0  0
 20 21  1  0  0  0  0
 20 22  1  0  0  0  0
 22 23  1  0  0  0  0
 22 24  1  0  0  0  0
 22 25  1  0  0  0  0
 20 26  1  0  0  0  0
 26 27  1  0  0  0  0
 26 28  1  0  0  0  0
 26 29  1  0  0  0  0
M  END
> <VConfSearch Rank>
399

> <Conf_Id>
173

> <Delta U+W>
1.363

> <U+W>
-26.462

> <U>
25.816

> <W>
-52.279

> <W(PB)>
-54.727

> <W(SA)>
2.449

> <Valence>
4.504

> <Coulomb>
20.342

> <VdW>
0.971

> <VdW6>
-10.532

> <VdW12>
11.503

> <Bond>
0.307

> <Angle>
1.715

> <Pdih>
2.481

> <Idih>
0.000

> <Tether>
0.000

$$$$
VeraChem MOL file


 29 28  0  0  0  0  0  0  0  0999 V2000     
   19.5879   15.5054   25.0442 C   0  0  0  0  0  0  0  0  0  0  0  0
   18.9434   15.7376   25.9021 H   0  0  0  0  0  0  0  0  0  0  0  0
   19.1682   14.6325   24.5274 H   0  0  0  0  0  0  0  0  0  0  0  0
   20.5761   15.2245   25.4311 H   0  0  0  0  0  0  0  0  0  0  0  0
   19.6994   16.7144   24.0915 C   0  0  0  0  0  0  0  0  0  0  0  0
   20.3703   16.4614   23.2588 H   0  0  0  0  0  0  0  0  0  0  0  0
   20.1568   17.5516   24.6350 H   0  0  0  0  0  0  0  0  0  0  0  0
   18.3178   17.1359   23.5413 C   0  0  0  0  0  0  0  0  0  0  0  0
   17.8234   16.2563   23.1064 H   0  0  0  0  0  0  0  0  0  0  0  0
   17.6795   17.4644   24.3731 H   0  0  0  0  0  0  0  0  0  0  0  0
   18.3692   18.2480   22.4619 C   0  0  0  0  0  0  0  0  0  0  0  0
   17.3390   18.4291   22.1253 H   0  0  0  0  0  0  0  0  0  0  0  0
   18.9105   17.8892   21.5757 H   0  0  0  0  0  0  0  0  0  0  0  0
   18.9630   19.5956   22.9488 C   0  0  0  0  0  0  0  0  0  0  0  0
   18.4041   20.4090   22.4674 H   0  0  0  0  0  0  0  0  0  0  0  0
   18.7906   19.7038   24.0273 H   0  0  0  0  0  0  0  0  0  0  0  0
   20.4694   19.7587   22.6038 C   0  0  0  0  0  0  0  0  0  0  0  0
   20.5930   19.6981   21.5146 H   0  0  0  0  0  0  0  0  0  0  0  0
   21.0464   18.9222   23.0135 H   0  0  0  0  0  0  0  0  0  0  0  0
   21.1087   21.0799   23.0921 C   0  0  2  0  0  0  0  0  0  0  0  0
   22.1419   21.0933   22.7314 H   0  0  0  0  0  0  0  0  0  0  0  0
   21.1527   21.1664   24.6277 C   0  0  0  0  0  0  0  0  0  0  0  0
   21.6328   20.2773   25.0550 H   0  0  0  0  0  0  0  0  0  0  0  0
   21.7320   22.0419   24.9455 H   0  0  0  0  0  0  0  0  0  0  0  0
   20.1487   21.2557   25.0591 H   0  0  0  0  0  0  0  0  0  0  0  0
   20.4456   22.2937   22.5019 N   0  3  0  0  0  0  0  0  0  0  0  0
   20.4525   22.2648   21.4783 H   0  0  0  0  0  0  0  0  0  0  0  0
   20.9199   23.1552   22.7874 H   0  0  0  0  0  0  0  0  0  0  0  0
   19.4702   22.3660   22.8021 H   0  0  0  0  0  0  0  0  0  0  0  0
  1  2  1  0  0  0  0
  1  3  1  0  0  0  0
  1  4  1  0  0  0  0
  1  5  1  0  0  0  0
  5  6  1  0  0  0  0
  5  7  1  0  0  0  0
  5  8  1  0  0  0  0
  8  9  1  0  0  0  0
  8 10  1  0  0  0  0
  8 11  1  0  0  0  0
 11 12  1  0  0  0  0
 11 13  1  0  0  0  0
 11 14  1  0  0  0  0
 14 15  1  0  0  0  0
 14 16  1  0  0  0  0
 14 17  1  0  0  0  0
 17 18  1  0  0  0  0
 17 19  1  0  0  0  0
 17 20  1  0  0  0  0
 20 21  1  0  0  0  0
 20 22  1  0  0  0  0
 22 23  1  0  0  0  0
 22 24  1  0  0  0  0
 22 25  1  0  0  0  0
 20 26  1  0  0  0  0
 26 27  1  0  0  0  0
 26 28  1  0  0  0  0
 26 29  1  0  0  0  0
M  END
> <VConfSearch Rank>
400

> <Conf_Id>
117

> <Delta U+W>
3.377

> <U+W>
-24.449

> <U>
27.947

> <W>
-52.396

> <W(PB)>
-54.842

> <W(SA)>
2.447

> <Valence>
6.731

> <Coulomb>
20.067

> <VdW>
1.149

> <VdW6>
-10.427

> <VdW12>
11.575

> <Bond>
0.324

> <Angle>
1.943

> <Pdih>
4.465

> <Idih>
0.000

> <Tether>
0.000

$$$$
VeraChem MOL file


 29 28  0  0  0  0  0  0  0  0999 V2000     
   21.7788   21.6095   27.1486 C   0  0  0  0  0  0  0  0  0  0  0  0
   21.0464   22.4242   27.0760 H   0  0  0  0  0  0  0  0  0  0  0  0
   21.4448   20.9183   27.9334 H   0  0  0  0  0  0  0  0  0  0  0  0
   22.7355   22.0437   27.4667 H   0  0  0  0  0  0  0  0  0  0  0  0
   21.9336   20.8809   25.7969 C   0  0  0  0  0  0  0  0  0  0  0  0
   22.6959   20.0949   25.8917 H   0  0  0  0  0  0  0  0  0  0  0  0
   22.3006   21.5892   25.0409 H   0  0  0  0  0  0  0  0  0  0  0  0
   20.6000   20.2600   25.3259 C   0  0  0  0  0  0  0  0  0  0  0  0
   20.2360   19.5546   26.0857 H   0  0  0  0  0  0  0  0  0  0  0  0
   19.8407   21.0490   25.2350 H   0  0  0  0  0  0  0  0  0  0  0  0
   20.7511   19.5294   23.9726 C   0  0  0  0  0  0  0  0  0  0  0  0
   21.5117   18.7416   24.0647 H   0  0  0  0  0  0  0  0  0  0  0  0
   21.1149   20.2355   23.2133 H   0  0  0  0  0  0  0  0  0  0  0  0
   19.4169   18.9076   23.5021 C   0  0  0  0  0  0  0  0  0  0  0  0
   19.0556   18.1990   24.2604 H   0  0  0  0  0  0  0  0  0  0  0  0
   18.6608   19.6997   23.4188 H   0  0  0  0  0  0  0  0  0  0  0  0
   19.5708   18.1775   22.1458 C   0  0  0  0  0  0  0  0  0  0  0  0
   20.3682   17.4277   22.2350 H   0  0  0  0  0  0  0  0  0  0  0  0
   19.8950   18.8897   21.3752 H   0  0  0  0  0  0  0  0  0  0  0  0
   18.2745   17.4734   21.6900 C   0  0  2  0  0  0  0  0  0  0  0  0
   17.9593   16.7883   22.4831 H   0  0  0  0  0  0  0  0  0  0  0  0
   18.5319   16.6520   20.4167 C   0  0  0  0  0  0  0  0  0  0  0  0
   17.6238   16.1197   20.1078 H   0  0  0  0  0  0  0  0  0  0  0  0
   18.8501   17.2954   19.5868 H   0  0  0  0  0  0  0  0  0  0  0  0
   19.3148   15.9026   20.5877 H   0  0  0  0  0  0  0  0  0  0  0  0
   17.1405   18.4380   21.4747 N   0  3  0  0  0  0  0  0  0  0  0  0
   16.9280   18.9615   22.3282 H   0  0  0  0  0  0  0  0  0  0  0  0
   16.2846   17.9520   21.1922 H   0  0  0  0  0  0  0  0  0  0  0  0
   17.3631   19.1178   20.7427 H   0  0  0  0  0  0  0  0  0  0  0  0
  1  2  1  0  0  0  0
  1  3  1  0  0  0  0
  1  4  1  0  0  0  0
  1  5  1  0  0  0  0
  5  6  1  0  0  0  0
  5  7  1  0  0  0  0
  5  8  1  0  0  0  0
  8  9  1  0  0  0  0
  8 10  1  0  0  0  0
  8 11  1  0  0  0  0
 11 12  1  0  0  0  0
 11 13  1  0  0  0  0
 11 14  1  0  0  0  0
 14 15  1  0  0  0  0
 14 16  1  0  0  0  0
 14 17  1  0  0  0  0
 17 18  1  0  0  0  0
 17 19  1  0  0  0  0
 17 20  1  0  0  0  0
 20 21  1  0  0  0  0
 20 22  1  0  0  0  0
 22 23  1  0  0  0  0
 22 24  1  0  0  0  0
 22 25  1  0  0  0  0
 20 26  1  0  0  0  0
 26 27  1  0  0  0  0
 26 28  1  0  0  0  0
 26 29  1  0  0  0  0
M  END
> <VConfSearch Rank>
401

> <Conf_Id>
164

> <Delta U+W>
0.000

> <U+W>
-27.826

> <U>
23.963

> <W>
-51.789

> <W(PB)>
-54.342

> <W(SA)>
2.554

> <Valence>
3.166

> <Coulomb>
19.734

> <VdW>
1.062

> <VdW6>
-7.938

> <VdW12>
9.001

> <Bond>
0.188

> <Angle>
0.880

> <Pdih>
2.098

> <Idih>
0.000

> <Tether>
0.000

$$$$
VeraChem MOL file


 29 28  0  0  0  0  0  0  0  0999 V2000     
   24.2737   17.5498   24.6179 C   0  0  0  0  0  0  0  0  0  0  0  0
   24.0224   17.2699   25.6493 H   0  0  0  0  0  0  0  0  0  0  0  0
   24.1852   16.6541   23.9892 H   0  0  0  0  0  0  0  0  0  0  0  0
   25.3234   17.8705   24.6019 H   0  0  0  0  0  0  0  0  0  0  0  0
   23.3514   18.6778   24.1091 C   0  0  0  0  0  0  0  0  0  0  0  0
   23.6483   18.9592   23.0890 H   0  0  0  0  0  0  0  0  0  0  0  0
   23.4868   19.5702   24.7362 H   0  0  0  0  0  0  0  0  0  0  0  0
   21.8667   18.2519   24.1215 C   0  0  0  0  0  0  0  0  0  0  0  0
   21.7369   17.3584   23.4953 H   0  0  0  0  0  0  0  0  0  0  0  0
   21.5753   17.9696   25.1426 H   0  0  0  0  0  0  0  0  0  0  0  0
   20.9400   19.3790   23.6125 C   0  0  0  0  0  0  0  0  0  0  0  0
   21.2319   19.6606   22.5912 H   0  0  0  0  0  0  0  0  0  0  0  0
   21.0720   20.2722   24.2388 H   0  0  0  0  0  0  0  0  0  0  0  0
   19.4546   18.9526   23.6256 C   0  0  0  0  0  0  0  0  0  0  0  0
   19.3354   18.0553   23.0044 H   0  0  0  0  0  0  0  0  0  0  0  0
   19.1616   18.6760   24.6479 H   0  0  0  0  0  0  0  0  0  0  0  0
   18.5287   20.0821   23.1107 C   0  0  0  0  0  0  0  0  0  0  0  0
   18.7756   20.3164   22.0667 H   0  0  0  0  0  0  0  0  0  0  0  0
   18.7324   20.9922   23.6904 H   0  0  0  0  0  0  0  0  0  0  0  0
   17.0225   19.7550   23.2282 C   0  0  2  0  0  0  0  0  0  0  0  0
   16.8099   19.4846   24.2671 H   0  0  0  0  0  0  0  0  0  0  0  0
   16.6115   18.5788   22.3244 C   0  0  0  0  0  0  0  0  0  0  0  0
   16.8642   18.7771   21.2754 H   0  0  0  0  0  0  0  0  0  0  0  0
   17.1076   17.6498   22.6282 H   0  0  0  0  0  0  0  0  0  0  0  0
   15.5304   18.4036   22.3864 H   0  0  0  0  0  0  0  0  0  0  0  0
   16.1806   20.9629   22.9237 N   0  3  0  0  0  0  0  0  0  0  0  0
   15.1831   20.7620   23.0387 H   0  0  0  0  0  0  0  0  0  0  0  0
   16.3190   21.2823   21.9611 H   0  0  0  0  0  0  0  0  0  0  0  0
   16.4068   21.7462   23.5435 H   0  0  0  0  0  0  0  0  0  0  0  0
  1  2  1  0  0  0  0
  1  3  1  0  0  0  0
  1  4  1  0  0  0  0
  1  5  1  0  0  0  0
  5  6  1  0  0  0  0
  5  7  1  0  0  0  0
  5  8  1  0  0  0  0
  8  9  1  0  0  0  0
  8 10  1  0  0  0  0
  8 11  1  0  0  0  0
 11 12  1  0  0  0  0
 11 13  1  0  0  0  0
 11 14  1  0  0  0  0
 14 15  1  0  0  0  0
 14 16  1  0  0  0  0
 14 17  1  0  0  0  0
 17 18  1  0  0  0  0
 17 19  1  0  0  0  0
 17 20  1  0  0  0  0
 20 21  1  0  0  0  0
 20 22  1  0  0  0  0
 22 23  1  0  0  0  0
 22 24  1  0  0  0  0
 22 25  1  0  0  0  0
 20 26  1  0  0  0  0
 26 27  1  0  0  0  0
 26 28  1  0  0  0  0
 26 29  1  0  0  0  0
M  END
> <VConfSearch Rank>
402

> <Conf_Id>
58

> <Delta U+W>
0.412

> <U+W>
-27.414

> <U>
24.279

> <W>
-51.694

> <W(PB)>
-54.271

> <W(SA)>
2.577

> <Valence>
3.709

> <Coulomb>
19.380

> <VdW>
1.191

> <VdW6>
-8.093

> <VdW12>
9.284

> <Bond>
0.200

> <Angle>
1.161

> <Pdih>
2.348

> <Idih>
0.000

> <Tether>
0.000

$$$$
VeraChem MOL file


 29 28  0  0  0  0  0  0  0  0999 V2000     
   19.6821   15.0543   25.8556 C   0  0  0  0  0  0  0  0  0  0  0  0
   18.7331   14.7399   25.4020 H   0  0  0  0  0  0  0  0  0  0  0  0
   20.5022   14.6400   25.2548 H   0  0  0  0  0  0  0  0  0  0  0  0
   19.7404   14.6098   26.8576 H   0  0  0  0  0  0  0  0  0  0  0  0
   19.7757   16.5927   25.9357 C   0  0  0  0  0  0  0  0  0  0  0  0
   20.7188   16.8758   26.4237 H   0  0  0  0  0  0  0  0  0  0  0  0
   18.9633   16.9749   26.5697 H   0  0  0  0  0  0  0  0  0  0  0  0
   19.6961   17.2440   24.5373 C   0  0  0  0  0  0  0  0  0  0  0  0
   20.5086   16.8575   23.9066 H   0  0  0  0  0  0  0  0  0  0  0  0
   18.7529   16.9563   24.0525 H   0  0  0  0  0  0  0  0  0  0  0  0
   19.7891   18.7847   24.6135 C   0  0  0  0  0  0  0  0  0  0  0  0
   20.7323   19.0711   25.0990 H   0  0  0  0  0  0  0  0  0  0  0  0
   18.9765   19.1701   25.2448 H   0  0  0  0  0  0  0  0  0  0  0  0
   19.7094   19.4361   23.2144 C   0  0  0  0  0  0  0  0  0  0  0  0
   20.5227   19.0458   22.5885 H   0  0  0  0  0  0  0  0  0  0  0  0
   18.7665   19.1402   22.7359 H   0  0  0  0  0  0  0  0  0  0  0  0
   19.7998   20.9821   23.2979 C   0  0  0  0  0  0  0  0  0  0  0  0
   20.7230   21.2614   23.8224 H   0  0  0  0  0  0  0  0  0  0  0  0
   18.9751   21.3610   23.9160 H   0  0  0  0  0  0  0  0  0  0  0  0
   19.7737   21.7111   21.9337 C   0  0  2  0  0  0  0  0  0  0  0  0
   19.8747   22.7821   22.1354 H   0  0  0  0  0  0  0  0  0  0  0  0
   18.4428   21.5015   21.1906 C   0  0  0  0  0  0  0  0  0  0  0  0
   18.3988   22.1360   20.2969 H   0  0  0  0  0  0  0  0  0  0  0  0
   18.3173   20.4609   20.8687 H   0  0  0  0  0  0  0  0  0  0  0  0
   17.5927   21.7690   21.8305 H   0  0  0  0  0  0  0  0  0  0  0  0
   20.9414   21.3395   21.0619 N   0  3  0  0  0  0  0  0  0  0  0  0
   21.8331   21.5179   21.5328 H   0  0  0  0  0  0  0  0  0  0  0  0
   20.9429   21.8761   20.1898 H   0  0  0  0  0  0  0  0  0  0  0  0
   20.9173   20.3477   20.8123 H   0  0  0  0  0  0  0  0  0  0  0  0
  1  2  1  0  0  0  0
  1  3  1  0  0  0  0
  1  4  1  0  0  0  0
  1  5  1  0  0  0  0
  5  6  1  0  0  0  0
  5  7  1  0  0  0  0
  5  8  1  0  0  0  0
  8  9  1  0  0  0  0
  8 10  1  0  0  0  0
  8 11  1  0  0  0  0
 11 12  1  0  0  0  0
 11 13  1  0  0  0  0
 11 14  1  0  0  0  0
 14 15  1  0  0  0  0
 14 16  1  0  0  0  0
 14 17  1  0  0  0  0
 17 18  1  0  0  0  0
 17 19  1  0  0  0  0
 17 20  1  0  0  0  0
 20 21  1  0  0  0  0
 20 22  1  0  0  0  0
 22 23  1  0  0  0  0
 22 24  1  0  0  0  0
 22 25  1  0  0  0  0
 20 26  1  0  0  0  0
 26 27  1  0  0  0  0
 26 28  1  0  0  0  0
 26 29  1  0  0  0  0
M  END
> <VConfSearch Rank>
403

> <Conf_Id>
137

> <Delta U+W>
0.280

> <U+W>
-27.546

> <U>
24.513

> <W>
-52.059

> <W(PB)>
-54.556

> <W(SA)>
2.497

> <Valence>
3.677

> <Coulomb>
19.662

> <VdW>
1.174

> <VdW6>
-8.569

> <VdW12>
9.743

> <Bond>
0.224

> <Angle>
1.211

> <Pdih>
2.243

> <Idih>
0.000

> <Tether>
0.000

$$$$
VeraChem MOL file


 29 28  0  0  0  0  0  0  0  0999 V2000     
   16.0694   17.8550   21.3547 C   0  0  0  0  0  0  0  0  0  0  0  0
   16.7904   17.6655   20.5488 H   0  0  0  0  0  0  0  0  0  0  0  0
   15.9518   16.9293   21.9331 H   0  0  0  0  0  0  0  0  0  0  0  0
   15.1014   18.0891   20.8928 H   0  0  0  0  0  0  0  0  0  0  0  0
   16.5379   19.0166   22.2565 C   0  0  0  0  0  0  0  0  0  0  0  0
   15.7807   19.2048   23.0305 H   0  0  0  0  0  0  0  0  0  0  0  0
   16.6146   19.9351   21.6578 H   0  0  0  0  0  0  0  0  0  0  0  0
   17.8990   18.7122   22.9204 C   0  0  0  0  0  0  0  0  0  0  0  0
   17.8164   17.7948   23.5195 H   0  0  0  0  0  0  0  0  0  0  0  0
   18.6419   18.5164   22.1365 H   0  0  0  0  0  0  0  0  0  0  0  0
   18.3713   19.8787   23.8215 C   0  0  0  0  0  0  0  0  0  0  0  0
   17.5766   20.1140   24.5430 H   0  0  0  0  0  0  0  0  0  0  0  0
   18.5132   20.7833   23.2142 H   0  0  0  0  0  0  0  0  0  0  0  0
   19.6694   19.5727   24.6089 C   0  0  0  0  0  0  0  0  0  0  0  0
   19.8306   20.3925   25.3206 H   0  0  0  0  0  0  0  0  0  0  0  0
   19.5293   18.6637   25.2099 H   0  0  0  0  0  0  0  0  0  0  0  0
   20.9202   19.4156   23.7053 C   0  0  0  0  0  0  0  0  0  0  0  0
   21.0664   20.3282   23.1124 H   0  0  0  0  0  0  0  0  0  0  0  0
   20.7445   18.6035   22.9896 H   0  0  0  0  0  0  0  0  0  0  0  0
   22.2147   19.0897   24.4854 C   0  0  2  0  0  0  0  0  0  0  0  0
   22.0256   18.2143   25.1142 H   0  0  0  0  0  0  0  0  0  0  0  0
   22.6597   20.2535   25.3896 C   0  0  0  0  0  0  0  0  0  0  0  0
   22.7962   21.1757   24.8111 H   0  0  0  0  0  0  0  0  0  0  0  0
   21.9269   20.4486   26.1807 H   0  0  0  0  0  0  0  0  0  0  0  0
   23.6111   20.0176   25.8820 H   0  0  0  0  0  0  0  0  0  0  0  0
   23.3281   18.7067   23.5502 N   0  3  0  0  0  0  0  0  0  0  0  0
   23.0725   17.9039   22.9680 H   0  0  0  0  0  0  0  0  0  0  0  0
   24.1768   18.4523   24.0638 H   0  0  0  0  0  0  0  0  0  0  0  0
   23.5708   19.4778   22.9222 H   0  0  0  0  0  0  0  0  0  0  0  0
  1  2  1  0  0  0  0
  1  3  1  0  0  0  0
  1  4  1  0  0  0  0
  1  5  1  0  0  0  0
  5  6  1  0  0  0  0
  5  7  1  0  0  0  0
  5  8  1  0  0  0  0
  8  9  1  0  0  0  0
  8 10  1  0  0  0  0
  8 11  1  0  0  0  0
 11 12  1  0  0  0  0
 11 13  1  0  0  0  0
 11 14  1  0  0  0  0
 14 15  1  0  0  0  0
 14 16  1  0  0  0  0
 14 17  1  0  0  0  0
 17 18  1  0  0  0  0
 17 19  1  0  0  0  0
 17 20  1  0  0  0  0
 20 21  1  0  0  0  0
 20 22  1  0  0  0  0
 22 23  1  0  0  0  0
 22 24  1  0  0  0  0
 22 25  1  0  0  0  0
 20 26  1  0  0  0  0
 26 27  1  0  0  0  0
 26 28  1  0  0  0  0
 26 29  1  0  0  0  0
M  END
> <VConfSearch Rank>
404

> <Conf_Id>
40

> <Delta U+W>
1.128

> <U+W>
-26.698

> <U>
25.442

> <W>
-52.140

> <W(PB)>
-54.658

> <W(SA)>
2.519

> <Valence>
4.343

> <Coulomb>
19.740

> <VdW>
1.360

> <VdW6>
-8.739

> <VdW12>
10.099

> <Bond>
0.251

> <Angle>
1.483

> <Pdih>
2.608

> <Idih>
0.000

> <Tether>
0.000

$$$$
VeraChem MOL file


 29 28  0  0  0  0  0  0  0  0999 V2000     
   15.6489   18.2597   22.4340 C   0  0  0  0  0  0  0  0  0  0  0  0
   15.6271   18.1175   23.5215 H   0  0  0  0  0  0  0  0  0  0  0  0
   15.4190   19.3113   22.2192 H   0  0  0  0  0  0  0  0  0  0  0  0
   14.8453   17.6464   22.0060 H   0  0  0  0  0  0  0  0  0  0  0  0
   17.0147   17.8554   21.8340 C   0  0  0  0  0  0  0  0  0  0  0  0
   16.9423   17.8920   20.7380 H   0  0  0  0  0  0  0  0  0  0  0  0
   17.2381   16.8109   22.0923 H   0  0  0  0  0  0  0  0  0  0  0  0
   18.1820   18.7674   22.2833 C   0  0  0  0  0  0  0  0  0  0  0  0
   19.0700   18.4897   21.7017 H   0  0  0  0  0  0  0  0  0  0  0  0
   17.9535   19.8099   22.0227 H   0  0  0  0  0  0  0  0  0  0  0  0
   18.4980   18.6632   23.7973 C   0  0  0  0  0  0  0  0  0  0  0  0
   18.7322   17.6218   24.0573 H   0  0  0  0  0  0  0  0  0  0  0  0
   17.6037   18.9316   24.3742 H   0  0  0  0  0  0  0  0  0  0  0  0
   19.6545   19.5857   24.2561 C   0  0  0  0  0  0  0  0  0  0  0  0
   19.4282   20.6245   23.9782 H   0  0  0  0  0  0  0  0  0  0  0  0
   19.6912   19.5607   25.3531 H   0  0  0  0  0  0  0  0  0  0  0  0
   21.0378   19.1801   23.6845 C   0  0  0  0  0  0  0  0  0  0  0  0
   21.0086   19.2325   22.5895 H   0  0  0  0  0  0  0  0  0  0  0  0
   21.2555   18.1356   23.9442 H   0  0  0  0  0  0  0  0  0  0  0  0
   22.1839   20.0877   24.1822 C   0  0  2  0  0  0  0  0  0  0  0  0
   21.9275   21.1249   23.9456 H   0  0  0  0  0  0  0  0  0  0  0  0
   23.4946   19.7378   23.4594 C   0  0  0  0  0  0  0  0  0  0  0  0
   24.3056   20.4020   23.7828 H   0  0  0  0  0  0  0  0  0  0  0  0
   23.7973   18.7033   23.6649 H   0  0  0  0  0  0  0  0  0  0  0  0
   23.3841   19.8523   22.3739 H   0  0  0  0  0  0  0  0  0  0  0  0
   22.3715   20.0165   25.6731 N   0  3  0  0  0  0  0  0  0  0  0  0
   22.6119   19.0682   25.9739 H   0  0  0  0  0  0  0  0  0  0  0  0
   21.5207   20.2920   26.1708 H   0  0  0  0  0  0  0  0  0  0  0  0
   23.1236   20.6375   25.9855 H   0  0  0  0  0  0  0  0  0  0  0  0
  1  2  1  0  0  0  0
  1  3  1  0  0  0  0
  1  4  1  0  0  0  0
  1  5  1  0  0  0  0
  5  6  1  0  0  0  0
  5  7  1  0  0  0  0
  5  8  1  0  0  0  0
  8  9  1  0  0  0  0
  8 10  1  0  0  0  0
  8 11  1  0  0  0  0
 11 12  1  0  0  0  0
 11 13  1  0  0  0  0
 11 14  1  0  0  0  0
 14 15  1  0  0  0  0
 14 16  1  0  0  0  0
 14 17  1  0  0  0  0
 17 18  1  0  0  0  0
 17 19  1  0  0  0  0
 17 20  1  0  0  0  0
 20 21  1  0  0  0  0
 20 22  1  0  0  0  0
 22 23  1  0  0  0  0
 22 24  1  0  0  0  0
 22 25  1  0  0  0  0
 20 26  1  0  0  0  0
 26 27  1  0  0  0  0
 26 28  1  0  0  0  0
 26 29  1  0  0  0  0
M  END
> <VConfSearch Rank>
405

> <Conf_Id>
134

> <Delta U+W>
1.228

> <U+W>
-26.598

> <U>
25.451

> <W>
-52.048

> <W(PB)>
-54.539

> <W(SA)>
2.490

> <Valence>
4.319

> <Coulomb>
19.732

> <VdW>
1.400

> <VdW6>
-9.173

> <VdW12>
10.573

> <Bond>
0.281

> <Angle>
1.459

> <Pdih>
2.580

> <Idih>
0.000

> <Tether>
0.000

$$$$
VeraChem MOL file


 29 28  0  0  0  0  0  0  0  0999 V2000     
   18.7404   22.9350   21.8492 C   0  0  0  0  0  0  0  0  0  0  0  0
   18.2738   23.0376   22.8366 H   0  0  0  0  0  0  0  0  0  0  0  0
   19.7816   23.2749   21.9229 H   0  0  0  0  0  0  0  0  0  0  0  0
   18.2140   23.6125   21.1645 H   0  0  0  0  0  0  0  0  0  0  0  0
   18.6660   21.4801   21.3327 C   0  0  0  0  0  0  0  0  0  0  0  0
   19.0270   21.4559   20.2950 H   0  0  0  0  0  0  0  0  0  0  0  0
   17.6177   21.1516   21.3010 H   0  0  0  0  0  0  0  0  0  0  0  0
   19.5022   20.4831   22.1711 C   0  0  0  0  0  0  0  0  0  0  0  0
   19.4963   19.5161   21.6521 H   0  0  0  0  0  0  0  0  0  0  0  0
   20.5493   20.8148   22.1979 H   0  0  0  0  0  0  0  0  0  0  0  0
   18.9744   20.2985   23.6166 C   0  0  0  0  0  0  0  0  0  0  0  0
   17.9278   19.9654   23.5895 H   0  0  0  0  0  0  0  0  0  0  0  0
   18.9770   21.2669   24.1331 H   0  0  0  0  0  0  0  0  0  0  0  0
   19.8141   19.3059   24.4579 C   0  0  0  0  0  0  0  0  0  0  0  0
   20.8543   19.6559   24.4917 H   0  0  0  0  0  0  0  0  0  0  0  0
   19.4446   19.3281   25.4925 H   0  0  0  0  0  0  0  0  0  0  0  0
   19.7560   17.8474   23.9345 C   0  0  0  0  0  0  0  0  0  0  0  0
   20.2534   17.7759   22.9591 H   0  0  0  0  0  0  0  0  0  0  0  0
   18.7049   17.5752   23.7717 H   0  0  0  0  0  0  0  0  0  0  0  0
   20.3842   16.8187   24.9019 C   0  0  2  0  0  0  0  0  0  0  0  0
   19.9016   16.9265   25.8782 H   0  0  0  0  0  0  0  0  0  0  0  0
   21.8970   17.0401   25.0792 C   0  0  0  0  0  0  0  0  0  0  0  0
   22.4196   16.9997   24.1153 H   0  0  0  0  0  0  0  0  0  0  0  0
   22.1060   18.0110   25.5432 H   0  0  0  0  0  0  0  0  0  0  0  0
   22.3264   16.2697   25.7315 H   0  0  0  0  0  0  0  0  0  0  0  0
   20.1136   15.4112   24.4481 N   0  3  0  0  0  0  0  0  0  0  0  0
   19.1093   15.2284   24.3648 H   0  0  0  0  0  0  0  0  0  0  0  0
   20.4940   14.7262   25.1075 H   0  0  0  0  0  0  0  0  0  0  0  0
   20.5372   15.2245   23.5352 H   0  0  0  0  0  0  0  0  0  0  0  0
  1  2  1  0  0  0  0
  1  3  1  0  0  0  0
  1  4  1  0  0  0  0
  1  5  1  0  0  0  0
  5  6  1  0  0  0  0
  5  7  1  0  0  0  0
  5  8  1  0  0  0  0
  8  9  1  0  0  0  0
  8 10  1  0  0  0  0
  8 11  1  0  0  0  0
 11 12  1  0  0  0  0
 11 13  1  0  0  0  0
 11 14  1  0  0  0  0
 14 15  1  0  0  0  0
 14 16  1  0  0  0  0
 14 17  1  0  0  0  0
 17 18  1  0  0  0  0
 17 19  1  0  0  0  0
 17 20  1  0  0  0  0
 20 21  1  0  0  0  0
 20 22  1  0  0  0  0
 22 23  1  0  0  0  0
 22 24  1  0  0  0  0
 22 25  1  0  0  0  0
 20 26  1  0  0  0  0
 26 27  1  0  0  0  0
 26 28  1  0  0  0  0
 26 29  1  0  0  0  0
M  END
> <VConfSearch Rank>
406

> <Conf_Id>
73

> <Delta U+W>
1.580

> <U+W>
-26.246

> <U>
25.821

> <W>
-52.067

> <W(PB)>
-54.581

> <W(SA)>
2.514

> <Valence>
4.779

> <Coulomb>
19.614

> <VdW>
1.428

> <VdW6>
-9.390

> <VdW12>
10.818

> <Bond>
0.283

> <Angle>
1.640

> <Pdih>
2.856

> <Idih>
0.000

> <Tether>
0.000

$$$$
VeraChem MOL file


 29 28  0  0  0  0  0  0  0  0999 V2000     
   18.5654   19.0960   27.7953 C   0  0  0  0  0  0  0  0  0  0  0  0
   18.0307   18.1882   27.4865 H   0  0  0  0  0  0  0  0  0  0  0  0
   18.8086   18.9977   28.8612 H   0  0  0  0  0  0  0  0  0  0  0  0
   17.8841   19.9494   27.6822 H   0  0  0  0  0  0  0  0  0  0  0  0
   19.8477   19.2958   26.9601 C   0  0  0  0  0  0  0  0  0  0  0  0
   20.5230   18.4433   27.1189 H   0  0  0  0  0  0  0  0  0  0  0  0
   20.3778   20.1907   27.3152 H   0  0  0  0  0  0  0  0  0  0  0  0
   19.5333   19.4380   25.4544 C   0  0  0  0  0  0  0  0  0  0  0  0
   18.9957   18.5427   25.1163 H   0  0  0  0  0  0  0  0  0  0  0  0
   18.8604   20.2928   25.3006 H   0  0  0  0  0  0  0  0  0  0  0  0
   20.8194   19.6335   24.6157 C   0  0  0  0  0  0  0  0  0  0  0  0
   21.4683   18.7531   24.7207 H   0  0  0  0  0  0  0  0  0  0  0  0
   21.3845   20.4829   25.0237 H   0  0  0  0  0  0  0  0  0  0  0  0
   20.5489   19.9030   23.1149 C   0  0  0  0  0  0  0  0  0  0  0  0
   19.9023   20.7854   23.0110 H   0  0  0  0  0  0  0  0  0  0  0  0
   21.5041   20.1622   22.6399 H   0  0  0  0  0  0  0  0  0  0  0  0
   19.9121   18.6986   22.3745 C   0  0  0  0  0  0  0  0  0  0  0  0
   18.9460   18.4590   22.8353 H   0  0  0  0  0  0  0  0  0  0  0  0
   20.5471   17.8108   22.4940 H   0  0  0  0  0  0  0  0  0  0  0  0
   19.6787   18.9708   20.8724 C   0  0  2  0  0  0  0  0  0  0  0  0
   19.0754   19.8790   20.7781 H   0  0  0  0  0  0  0  0  0  0  0  0
   18.9032   17.8079   20.2330 C   0  0  0  0  0  0  0  0  0  0  0  0
   17.9368   17.6624   20.7317 H   0  0  0  0  0  0  0  0  0  0  0  0
   18.7033   18.0104   19.1736 H   0  0  0  0  0  0  0  0  0  0  0  0
   19.4676   16.8694   20.3012 H   0  0  0  0  0  0  0  0  0  0  0  0
   20.9598   19.2215   20.1248 N   0  3  0  0  0  0  0  0  0  0  0  0
   20.7833   19.4170   19.1352 H   0  0  0  0  0  0  0  0  0  0  0  0
   21.5832   18.4111   20.1709 H   0  0  0  0  0  0  0  0  0  0  0  0
   21.4667   20.0232   20.5094 H   0  0  0  0  0  0  0  0  0  0  0  0
  1  2  1  0  0  0  0
  1  3  1  0  0  0  0
  1  4  1  0  0  0  0
  1  5  1  0  0  0  0
  5  6  1  0  0  0  0
  5  7  1  0  0  0  0
  5  8  1  0  0  0  0
  8  9  1  0  0  0  0
  8 10  1  0  0  0  0
  8 11  1  0  0  0  0
 11 12  1  0  0  0  0
 11 13  1  0  0  0  0
 11 14  1  0  0  0  0
 14 15  1  0  0  0  0
 14 16  1  0  0  0  0
 14 17  1  0  0  0  0
 17 18  1  0  0  0  0
 17 19  1  0  0  0  0
 17 20  1  0  0  0  0
 20 21  1  0  0  0  0
 20 22  1  0  0  0  0
 22 23  1  0  0  0  0
 22 24  1  0  0  0  0
 22 25  1  0  0  0  0
 20 26  1  0  0  0  0
 26 27  1  0  0  0  0
 26 28  1  0  0  0  0
 26 29  1  0  0  0  0
M  END
> <VConfSearch Rank>
407

> <Conf_Id>
111

> <Delta U+W>
0.580

> <U+W>
-27.246

> <U>
24.710

> <W>
-51.957

> <W(PB)>
-54.511

> <W(SA)>
2.555

> <Valence>
3.735

> <Coulomb>
19.760

> <VdW>
1.216

> <VdW6>
-8.624

> <VdW12>
9.840

> <Bond>
0.236

> <Angle>
1.168

> <Pdih>
2.330

> <Idih>
0.000

> <Tether>
0.000

$$$$
VeraChem MOL file


 29 28  0  0  0  0  0  0  0  0999 V2000     
   20.2193   14.8142   22.8263 C   0  0  0  0  0  0  0  0  0  0  0  0
   19.4130   14.5615   23.5272 H   0  0  0  0  0  0  0  0  0  0  0  0
   19.7645   15.0787   21.8627 H   0  0  0  0  0  0  0  0  0  0  0  0
   20.8292   13.9141   22.6754 H   0  0  0  0  0  0  0  0  0  0  0  0
   21.0827   15.9728   23.3688 C   0  0  0  0  0  0  0  0  0  0  0  0
   21.8991   16.1807   22.6631 H   0  0  0  0  0  0  0  0  0  0  0  0
   21.5512   15.6660   24.3145 H   0  0  0  0  0  0  0  0  0  0  0  0
   20.2474   17.2530   23.5911 C   0  0  0  0  0  0  0  0  0  0  0  0
   19.7781   17.5434   22.6421 H   0  0  0  0  0  0  0  0  0  0  0  0
   19.4339   17.0408   24.2985 H   0  0  0  0  0  0  0  0  0  0  0  0
   21.1129   18.4166   24.1313 C   0  0  0  0  0  0  0  0  0  0  0  0
   21.8960   18.6656   23.4019 H   0  0  0  0  0  0  0  0  0  0  0  0
   21.6330   18.0840   25.0402 H   0  0  0  0  0  0  0  0  0  0  0  0
   20.2961   19.6874   24.4706 C   0  0  0  0  0  0  0  0  0  0  0  0
   19.5375   19.4350   25.2233 H   0  0  0  0  0  0  0  0  0  0  0  0
   20.9684   20.4192   24.9395 H   0  0  0  0  0  0  0  0  0  0  0  0
   19.6264   20.3378   23.2327 C   0  0  0  0  0  0  0  0  0  0  0  0
   18.8494   19.6744   22.8321 H   0  0  0  0  0  0  0  0  0  0  0  0
   20.3818   20.4487   22.4437 H   0  0  0  0  0  0  0  0  0  0  0  0
   19.0115   21.7263   23.5207 C   0  0  2  0  0  0  0  0  0  0  0  0
   19.7897   22.3636   23.9518 H   0  0  0  0  0  0  0  0  0  0  0  0
   17.8408   21.6453   24.5167 C   0  0  0  0  0  0  0  0  0  0  0  0
   17.0575   20.9678   24.1543 H   0  0  0  0  0  0  0  0  0  0  0  0
   18.1761   21.2895   25.4978 H   0  0  0  0  0  0  0  0  0  0  0  0
   17.3919   22.6349   24.6666 H   0  0  0  0  0  0  0  0  0  0  0  0
   18.5688   22.3979   22.2506 N   0  3  0  0  0  0  0  0  0  0  0  0
   19.3437   22.5014   21.5889 H   0  0  0  0  0  0  0  0  0  0  0  0
   18.1971   23.3345   22.4329 H   0  0  0  0  0  0  0  0  0  0  0  0
   17.8328   21.8631   21.7815 H   0  0  0  0  0  0  0  0  0  0  0  0
  1  2  1  0  0  0  0
  1  3  1  0  0  0  0
  1  4  1  0  0  0  0
  1  5  1  0  0  0  0
  5  6  1  0  0  0  0
  5  7  1  0  0  0  0
  5  8  1  0  0  0  0
  8  9  1  0  0  0  0
  8 10  1  0  0  0  0
  8 11  1  0  0  0  0
 11 12  1  0  0  0  0
 11 13  1  0  0  0  0
 11 14  1  0  0  0  0
 14 15  1  0  0  0  0
 14 16  1  0  0  0  0
 14 17  1  0  0  0  0
 17 18  1  0  0  0  0
 17 19  1  0  0  0  0
 17 20  1  0  0  0  0
 20 21  1  0  0  0  0
 20 22  1  0  0  0  0
 22 23  1  0  0  0  0
 22 24  1  0  0  0  0
 22 25  1  0  0  0  0
 20 26  1  0  0  0  0
 26 27  1  0  0  0  0
 26 28  1  0  0  0  0
 26 29  1  0  0  0  0
M  END
> <VConfSearch Rank>
408

> <Conf_Id>
39

> <Delta U+W>
0.965

> <U+W>
-26.861

> <U>
25.129

> <W>
-51.990

> <W(PB)>
-54.526

> <W(SA)>
2.536

> <Valence>
4.206

> <Coulomb>
19.678

> <VdW>
1.245

> <VdW6>
-8.834

> <VdW12>
10.079

> <Bond>
0.240

> <Angle>
1.353

> <Pdih>
2.613

> <Idih>
0.000

> <Tether>
0.000

$$$$
VeraChem MOL file


 29 28  0  0  0  0  0  0  0  0999 V2000     
   23.6965   17.5043   23.5336 C   0  0  0  0  0  0  0  0  0  0  0  0
   23.8651   17.8748   22.5142 H   0  0  0  0  0  0  0  0  0  0  0  0
   23.7750   18.3519   24.2255 H   0  0  0  0  0  0  0  0  0  0  0  0
   24.5081   16.8060   23.7754 H   0  0  0  0  0  0  0  0  0  0  0  0
   22.3256   16.7999   23.6493 C   0  0  0  0  0  0  0  0  0  0  0  0
   22.1650   16.4698   24.6851 H   0  0  0  0  0  0  0  0  0  0  0  0
   22.3453   15.8883   23.0359 H   0  0  0  0  0  0  0  0  0  0  0  0
   21.1377   17.6798   23.1899 C   0  0  0  0  0  0  0  0  0  0  0  0
   21.3026   18.0063   22.1539 H   0  0  0  0  0  0  0  0  0  0  0  0
   20.2374   17.0525   23.1779 H   0  0  0  0  0  0  0  0  0  0  0  0
   20.8980   18.9141   24.0961 C   0  0  0  0  0  0  0  0  0  0  0  0
   21.8028   19.5352   24.1127 H   0  0  0  0  0  0  0  0  0  0  0  0
   20.7286   18.5873   25.1312 H   0  0  0  0  0  0  0  0  0  0  0  0
   19.7178   19.8031   23.6322 C   0  0  0  0  0  0  0  0  0  0  0  0
   19.7162   20.7134   24.2458 H   0  0  0  0  0  0  0  0  0  0  0  0
   19.8974   20.1264   22.5982 H   0  0  0  0  0  0  0  0  0  0  0  0
   18.3357   19.1029   23.7419 C   0  0  0  0  0  0  0  0  0  0  0  0
   18.2205   18.6859   24.7509 H   0  0  0  0  0  0  0  0  0  0  0  0
   18.2971   18.2493   23.0540 H   0  0  0  0  0  0  0  0  0  0  0  0
   17.1213   20.0149   23.4473 C   0  0  2  0  0  0  0  0  0  0  0  0
   16.2203   19.4052   23.5666 H   0  0  0  0  0  0  0  0  0  0  0  0
   17.1358   20.5473   22.0039 C   0  0  0  0  0  0  0  0  0  0  0  0
   17.9660   21.2440   21.8374 H   0  0  0  0  0  0  0  0  0  0  0  0
   17.2287   19.7233   21.2855 H   0  0  0  0  0  0  0  0  0  0  0  0
   16.2024   21.0788   21.7816 H   0  0  0  0  0  0  0  0  0  0  0  0
   16.9946   21.1413   24.4358 N   0  3  0  0  0  0  0  0  0  0  0  0
   16.9411   20.7928   25.3972 H   0  0  0  0  0  0  0  0  0  0  0  0
   16.1515   21.6966   24.2640 H   0  0  0  0  0  0  0  0  0  0  0  0
   17.7958   21.7750   24.3815 H   0  0  0  0  0  0  0  0  0  0  0  0
  1  2  1  0  0  0  0
  1  3  1  0  0  0  0
  1  4  1  0  0  0  0
  1  5  1  0  0  0  0
  5  6  1  0  0  0  0
  5  7  1  0  0  0  0
  5  8  1  0  0  0  0
  8  9  1  0  0  0  0
  8 10  1  0  0  0  0
  8 11  1  0  0  0  0
 11 12  1  0  0  0  0
 11 13  1  0  0  0  0
 11 14  1  0  0  0  0
 14 15  1  0  0  0  0
 14 16  1  0  0  0  0
 14 17  1  0  0  0  0
 17 18  1  0  0  0  0
 17 19  1  0  0  0  0
 17 20  1  0  0  0  0
 20 21  1  0  0  0  0
 20 22  1  0  0  0  0
 22 23  1  0  0  0  0
 22 24  1  0  0  0  0
 22 25  1  0  0  0  0
 20 26  1  0  0  0  0
 26 27  1  0  0  0  0
 26 28  1  0  0  0  0
 26 29  1  0  0  0  0
M  END
> <VConfSearch Rank>
409

> <Conf_Id>
155

> <Delta U+W>
1.624

> <U+W>
-26.202

> <U>
25.894

> <W>
-52.096

> <W(PB)>
-54.602

> <W(SA)>
2.506

> <Valence>
4.779

> <Coulomb>
19.659

> <VdW>
1.456

> <VdW6>
-9.843

> <VdW12>
11.299

> <Bond>
0.315

> <Angle>
1.725

> <Pdih>
2.740

> <Idih>
0.000

> <Tether>
0.000

$$$$
VeraChem MOL file


 29 28  0  0  0  0  0  0  0  0999 V2000     
   21.3482   22.7660   22.8347 C   0  0  0  0  0  0  0  0  0  0  0  0
   20.4644   22.9767   23.4496 H   0  0  0  0  0  0  0  0  0  0  0  0
   22.1184   22.3227   23.4792 H   0  0  0  0  0  0  0  0  0  0  0  0
   21.7308   23.7266   22.4660 H   0  0  0  0  0  0  0  0  0  0  0  0
   21.0067   21.8303   21.6531 C   0  0  0  0  0  0  0  0  0  0  0  0
   21.8889   21.7422   21.0038 H   0  0  0  0  0  0  0  0  0  0  0  0
   20.2168   22.2844   21.0385 H   0  0  0  0  0  0  0  0  0  0  0  0
   20.5738   20.4130   22.0990 C   0  0  0  0  0  0  0  0  0  0  0  0
   20.4480   19.7885   21.2039 H   0  0  0  0  0  0  0  0  0  0  0  0
   21.3845   19.9598   22.6840 H   0  0  0  0  0  0  0  0  0  0  0  0
   19.2557   20.4032   22.9141 C   0  0  0  0  0  0  0  0  0  0  0  0
   18.4960   20.9800   22.3689 H   0  0  0  0  0  0  0  0  0  0  0  0
   19.4025   20.9147   23.8745 H   0  0  0  0  0  0  0  0  0  0  0  0
   18.6973   18.9822   23.1740 C   0  0  0  0  0  0  0  0  0  0  0  0
   17.7052   19.0899   23.6306 H   0  0  0  0  0  0  0  0  0  0  0  0
   18.5433   18.4664   22.2161 H   0  0  0  0  0  0  0  0  0  0  0  0
   19.6027   18.1209   24.0928 C   0  0  0  0  0  0  0  0  0  0  0  0
   19.7468   18.6308   25.0545 H   0  0  0  0  0  0  0  0  0  0  0  0
   20.5952   18.0327   23.6347 H   0  0  0  0  0  0  0  0  0  0  0  0
   19.0627   16.6930   24.3373 C   0  0  2  0  0  0  0  0  0  0  0  0
   18.8699   16.2277   23.3657 H   0  0  0  0  0  0  0  0  0  0  0  0
   17.7530   16.6951   25.1462 C   0  0  0  0  0  0  0  0  0  0  0  0
   17.8792   17.2141   26.1046 H   0  0  0  0  0  0  0  0  0  0  0  0
   16.9424   17.1842   24.5941 H   0  0  0  0  0  0  0  0  0  0  0  0
   17.4273   15.6688   25.3560 H   0  0  0  0  0  0  0  0  0  0  0  0
   20.0913   15.8353   25.0209 N   0  3  0  0  0  0  0  0  0  0  0  0
   20.9582   15.7812   24.4784 H   0  0  0  0  0  0  0  0  0  0  0  0
   19.7529   14.8774   25.1503 H   0  0  0  0  0  0  0  0  0  0  0  0
   20.3293   16.2027   25.9461 H   0  0  0  0  0  0  0  0  0  0  0  0
  1  2  1  0  0  0  0
  1  3  1  0  0  0  0
  1  4  1  0  0  0  0
  1  5  1  0  0  0  0
  5  6  1  0  0  0  0
  5  7  1  0  0  0  0
  5  8  1  0  0  0  0
  8  9  1  0  0  0  0
  8 10  1  0  0  0  0
  8 11  1  0  0  0  0
 11 12  1  0  0  0  0
 11 13  1  0  0  0  0
 11 14  1  0  0  0  0
 14 15  1  0  0  0  0
 14 16  1  0  0  0  0
 14 17  1  0  0  0  0
 17 18  1  0  0  0  0
 17 19  1  0  0  0  0
 17 20  1  0  0  0  0
 20 21  1  0  0  0  0
 20 22  1  0  0  0  0
 22 23  1  0  0  0  0
 22 24  1  0  0  0  0
 22 25  1  0  0  0  0
 20 26  1  0  0  0  0
 26 27  1  0  0  0  0
 26 28  1  0  0  0  0
 26 29  1  0  0  0  0
M  END
> <VConfSearch Rank>
410

> <Conf_Id>
135

> <Delta U+W>
1.581

> <U+W>
-26.245

> <U>
25.974

> <W>
-52.219

> <W(PB)>
-54.709

> <W(SA)>
2.490

> <Valence>
4.811

> <Coulomb>
19.700

> <VdW>
1.463

> <VdW6>
-9.391

> <VdW12>
10.854

> <Bond>
0.285

> <Angle>
1.671

> <Pdih>
2.855

> <Idih>
0.000

> <Tether>
0.000

$$$$
VeraChem MOL file


 29 28  0  0  0  0  0  0  0  0999 V2000     
   17.8875   16.5762   26.0880 C   0  0  0  0  0  0  0  0  0  0  0  0
   17.0694   16.8094   25.3942 H   0  0  0  0  0  0  0  0  0  0  0  0
   18.5861   15.8990   25.5811 H   0  0  0  0  0  0  0  0  0  0  0  0
   17.4604   16.0324   26.9405 H   0  0  0  0  0  0  0  0  0  0  0  0
   18.5937   17.8646   26.5672 C   0  0  0  0  0  0  0  0  0  0  0  0
   19.4238   17.6033   27.2383 H   0  0  0  0  0  0  0  0  0  0  0  0
   17.8868   18.4543   27.1674 H   0  0  0  0  0  0  0  0  0  0  0  0
   19.1159   18.7454   25.4067 C   0  0  0  0  0  0  0  0  0  0  0  0
   18.2731   19.0238   24.7605 H   0  0  0  0  0  0  0  0  0  0  0  0
   19.5082   19.6813   25.8277 H   0  0  0  0  0  0  0  0  0  0  0  0
   20.2260   18.0617   24.5693 C   0  0  0  0  0  0  0  0  0  0  0  0
   19.8178   17.1876   24.0449 H   0  0  0  0  0  0  0  0  0  0  0  0
   21.0035   17.6819   25.2463 H   0  0  0  0  0  0  0  0  0  0  0  0
   20.8895   19.0090   23.5399 C   0  0  0  0  0  0  0  0  0  0  0  0
   21.3323   19.8617   24.0713 H   0  0  0  0  0  0  0  0  0  0  0  0
   21.7214   18.4753   23.0598 H   0  0  0  0  0  0  0  0  0  0  0  0
   19.9110   19.5090   22.4462 C   0  0  0  0  0  0  0  0  0  0  0  0
   19.1466   20.1577   22.8925 H   0  0  0  0  0  0  0  0  0  0  0  0
   19.3816   18.6428   22.0277 H   0  0  0  0  0  0  0  0  0  0  0  0
   20.6079   20.2625   21.2906 C   0  0  2  0  0  0  0  0  0  0  0  0
   21.3898   19.6155   20.8813 H   0  0  0  0  0  0  0  0  0  0  0  0
   21.2591   21.5741   21.7646 C   0  0  0  0  0  0  0  0  0  0  0  0
   20.5221   22.2344   22.2384 H   0  0  0  0  0  0  0  0  0  0  0  0
   22.0625   21.3824   22.4852 H   0  0  0  0  0  0  0  0  0  0  0  0
   21.7038   22.1123   20.9186 H   0  0  0  0  0  0  0  0  0  0  0  0
   19.6498   20.5344   20.1643 N   0  3  0  0  0  0  0  0  0  0  0  0
   20.1170   20.9983   19.3799 H   0  0  0  0  0  0  0  0  0  0  0  0
   18.8820   21.1410   20.4645 H   0  0  0  0  0  0  0  0  0  0  0  0
   19.2363   19.6695   19.8039 H   0  0  0  0  0  0  0  0  0  0  0  0
  1  2  1  0  0  0  0
  1  3  1  0  0  0  0
  1  4  1  0  0  0  0
  1  5  1  0  0  0  0
  5  6  1  0  0  0  0
  5  7  1  0  0  0  0
  5  8  1  0  0  0  0
  8  9  1  0  0  0  0
  8 10  1  0  0  0  0
  8 11  1  0  0  0  0
 11 12  1  0  0  0  0
 11 13  1  0  0  0  0
 11 14  1  0  0  0  0
 14 15  1  0  0  0  0
 14 16  1  0  0  0  0
 14 17  1  0  0  0  0
 17 18  1  0  0  0  0
 17 19  1  0  0  0  0
 17 20  1  0  0  0  0
 20 21  1  0  0  0  0
 20 22  1  0  0  0  0
 22 23  1  0  0  0  0
 22 24  1  0  0  0  0
 22 25  1  0  0  0  0
 20 26  1  0  0  0  0
 26 27  1  0  0  0  0
 26 28  1  0  0  0  0
 26 29  1  0  0  0  0
M  END
> <VConfSearch Rank>
411

> <Conf_Id>
130

> <Delta U+W>
1.359

> <U+W>
-26.467

> <U>
25.687

> <W>
-52.154

> <W(PB)>
-54.643

> <W(SA)>
2.489

> <Valence>
4.682

> <Coulomb>
19.653

> <VdW>
1.352

> <VdW6>
-9.477

> <VdW12>
10.829

> <Bond>
0.274

> <Angle>
1.550

> <Pdih>
2.858

> <Idih>
0.000

> <Tether>
0.000

$$$$
VeraChem MOL file


 29 28  0  0  0  0  0  0  0  0999 V2000     
   23.1112   18.1688   21.3127 C   0  0  0  0  0  0  0  0  0  0  0  0
   23.5720   17.4386   20.6349 H   0  0  0  0  0  0  0  0  0  0  0  0
   23.6132   19.1329   21.1590 H   0  0  0  0  0  0  0  0  0  0  0  0
   23.3101   17.8366   22.3390 H   0  0  0  0  0  0  0  0  0  0  0  0
   21.5949   18.2815   21.0357 C   0  0  0  0  0  0  0  0  0  0  0  0
   21.1110   17.3138   21.2285 H   0  0  0  0  0  0  0  0  0  0  0  0
   21.4457   18.4922   19.9675 H   0  0  0  0  0  0  0  0  0  0  0  0
   20.8972   19.3891   21.8616 C   0  0  0  0  0  0  0  0  0  0  0  0
   21.3733   20.3565   21.6508 H   0  0  0  0  0  0  0  0  0  0  0  0
   19.8610   19.4750   21.5111 H   0  0  0  0  0  0  0  0  0  0  0  0
   20.9149   19.1217   23.3885 C   0  0  0  0  0  0  0  0  0  0  0  0
   21.9557   19.1059   23.7370 H   0  0  0  0  0  0  0  0  0  0  0  0
   20.5065   18.1247   23.5932 H   0  0  0  0  0  0  0  0  0  0  0  0
   20.1533   20.1989   24.2040 C   0  0  0  0  0  0  0  0  0  0  0  0
   20.4428   20.1320   25.2618 H   0  0  0  0  0  0  0  0  0  0  0  0
   20.4931   21.1893   23.8707 H   0  0  0  0  0  0  0  0  0  0  0  0
   18.6052   20.1300   24.0877 C   0  0  0  0  0  0  0  0  0  0  0  0
   18.3025   19.6899   23.1302 H   0  0  0  0  0  0  0  0  0  0  0  0
   18.2253   21.1601   24.0760 H   0  0  0  0  0  0  0  0  0  0  0  0
   17.9038   19.3878   25.2503 C   0  0  2  0  0  0  0  0  0  0  0  0
   18.1920   19.8733   26.1878 H   0  0  0  0  0  0  0  0  0  0  0  0
   18.3023   17.9048   25.3348 C   0  0  0  0  0  0  0  0  0  0  0  0
   19.3633   17.7964   25.5878 H   0  0  0  0  0  0  0  0  0  0  0  0
   17.7299   17.3941   26.1189 H   0  0  0  0  0  0  0  0  0  0  0  0
   18.1156   17.3882   24.3850 H   0  0  0  0  0  0  0  0  0  0  0  0
   16.4093   19.5186   25.1499 N   0  3  0  0  0  0  0  0  0  0  0  0
   16.1164   20.4999   25.1399 H   0  0  0  0  0  0  0  0  0  0  0  0
   15.9408   19.0691   25.9418 H   0  0  0  0  0  0  0  0  0  0  0  0
   16.0525   19.0819   24.2958 H   0  0  0  0  0  0  0  0  0  0  0  0
  1  2  1  0  0  0  0
  1  3  1  0  0  0  0
  1  4  1  0  0  0  0
  1  5  1  0  0  0  0
  5  6  1  0  0  0  0
  5  7  1  0  0  0  0
  5  8  1  0  0  0  0
  8  9  1  0  0  0  0
  8 10  1  0  0  0  0
  8 11  1  0  0  0  0
 11 12  1  0  0  0  0
 11 13  1  0  0  0  0
 11 14  1  0  0  0  0
 14 15  1  0  0  0  0
 14 16  1  0  0  0  0
 14 17  1  0  0  0  0
 17 18  1  0  0  0  0
 17 19  1  0  0  0  0
 17 20  1  0  0  0  0
 20 21  1  0  0  0  0
 20 22  1  0  0  0  0
 22 23  1  0  0  0  0
 22 24  1  0  0  0  0
 22 25  1  0  0  0  0
 20 26  1  0  0  0  0
 26 27  1  0  0  0  0
 26 28  1  0  0  0  0
 26 29  1  0  0  0  0
M  END
> <VConfSearch Rank>
412

> <Conf_Id>
157

> <Delta U+W>
4.354

> <U+W>
-23.472

> <U>
28.780

> <W>
-52.252

> <W(PB)>
-54.715

> <W(SA)>
2.462

> <Valence>
7.566

> <Coulomb>
19.822

> <VdW>
1.392

> <VdW6>
-10.248

> <VdW12>
11.641

> <Bond>
0.340

> <Angle>
2.096

> <Pdih>
5.129

> <Idih>
0.000

> <Tether>
0.000

$$$$
VeraChem MOL file


 29 28  0  0  0  0  0  0  0  0999 V2000     
   16.7271   20.4498   25.2497 C   0  0  0  0  0  0  0  0  0  0  0  0
   15.6568   20.6505   25.1116 H   0  0  0  0  0  0  0  0  0  0  0  0
   16.9096   19.4082   24.9635 H   0  0  0  0  0  0  0  0  0  0  0  0
   16.9489   20.5493   26.3202 H   0  0  0  0  0  0  0  0  0  0  0  0
   17.5748   21.4397   24.4170 C   0  0  0  0  0  0  0  0  0  0  0  0
   17.3259   22.4583   24.7462 H   0  0  0  0  0  0  0  0  0  0  0  0
   17.2917   21.3875   23.3565 H   0  0  0  0  0  0  0  0  0  0  0  0
   19.1020   21.2272   24.5788 C   0  0  0  0  0  0  0  0  0  0  0  0
   19.5873   22.2129   24.5625 H   0  0  0  0  0  0  0  0  0  0  0  0
   19.3242   20.8054   25.5687 H   0  0  0  0  0  0  0  0  0  0  0  0
   19.7619   20.3652   23.4718 C   0  0  0  0  0  0  0  0  0  0  0  0
   20.8436   20.3535   23.6577 H   0  0  0  0  0  0  0  0  0  0  0  0
   19.6242   20.8556   22.4983 H   0  0  0  0  0  0  0  0  0  0  0  0
   19.2304   18.9127   23.3943 C   0  0  0  0  0  0  0  0  0  0  0  0
   19.2851   18.4410   24.3843 H   0  0  0  0  0  0  0  0  0  0  0  0
   18.1681   18.9332   23.1194 H   0  0  0  0  0  0  0  0  0  0  0  0
   19.9731   18.0430   22.3473 C   0  0  0  0  0  0  0  0  0  0  0  0
   19.8347   18.4907   21.3542 H   0  0  0  0  0  0  0  0  0  0  0  0
   19.4986   17.0535   22.3058 H   0  0  0  0  0  0  0  0  0  0  0  0
   21.4851   17.8706   22.6158 C   0  0  2  0  0  0  0  0  0  0  0  0
   21.9503   18.8605   22.6230 H   0  0  0  0  0  0  0  0  0  0  0  0
   22.1363   17.0453   21.4948 C   0  0  0  0  0  0  0  0  0  0  0  0
   21.7104   16.0352   21.4464 H   0  0  0  0  0  0  0  0  0  0  0  0
   21.9868   17.5263   20.5201 H   0  0  0  0  0  0  0  0  0  0  0  0
   23.2171   16.9531   21.6583 H   0  0  0  0  0  0  0  0  0  0  0  0
   21.7625   17.2524   23.9584 N   0  3  0  0  0  0  0  0  0  0  0  0
   21.3654   17.8162   24.7150 H   0  0  0  0  0  0  0  0  0  0  0  0
   22.7682   17.1681   24.1317 H   0  0  0  0  0  0  0  0  0  0  0  0
   21.3591   16.3143   24.0271 H   0  0  0  0  0  0  0  0  0  0  0  0
  1  2  1  0  0  0  0
  1  3  1  0  0  0  0
  1  4  1  0  0  0  0
  1  5  1  0  0  0  0
  5  6  1  0  0  0  0
  5  7  1  0  0  0  0
  5  8  1  0  0  0  0
  8  9  1  0  0  0  0
  8 10  1  0  0  0  0
  8 11  1  0  0  0  0
 11 12  1  0  0  0  0
 11 13  1  0  0  0  0
 11 14  1  0  0  0  0
 14 15  1  0  0  0  0
 14 16  1  0  0  0  0
 14 17  1  0  0  0  0
 17 18  1  0  0  0  0
 17 19  1  0  0  0  0
 17 20  1  0  0  0  0
 20 21  1  0  0  0  0
 20 22  1  0  0  0  0
 22 23  1  0  0  0  0
 22 24  1  0  0  0  0
 22 25  1  0  0  0  0
 20 26  1  0  0  0  0
 26 27  1  0  0  0  0
 26 28  1  0  0  0  0
 26 29  1  0  0  0  0
M  END
> <VConfSearch Rank>
413

> <Conf_Id>
158

> <Delta U+W>
3.648

> <U+W>
-24.178

> <U>
28.057

> <W>
-52.235

> <W(PB)>
-54.696

> <W(SA)>
2.460

> <Valence>
6.543

> <Coulomb>
20.387

> <VdW>
1.127

> <VdW6>
-10.342

> <VdW12>
11.469

> <Bond>
0.308

> <Angle>
1.938

> <Pdih>
4.297

> <Idih>
0.000

> <Tether>
0.000

$$$$
VeraChem MOL file


 29 28  0  0  0  0  0  0  0  0999 V2000     
   21.0157   19.5627   20.0575 C   0  0  0  0  0  0  0  0  0  0  0  0
   21.4565   20.5099   20.3944 H   0  0  0  0  0  0  0  0  0  0  0  0
   21.4070   18.7564   20.6901 H   0  0  0  0  0  0  0  0  0  0  0  0
   21.3635   19.3762   19.0332 H   0  0  0  0  0  0  0  0  0  0  0  0
   19.4719   19.6214   20.1018 C   0  0  0  0  0  0  0  0  0  0  0  0
   19.0559   18.6526   19.7917 H   0  0  0  0  0  0  0  0  0  0  0  0
   19.1245   20.3561   19.3620 H   0  0  0  0  0  0  0  0  0  0  0  0
   18.9105   20.0120   21.4902 C   0  0  0  0  0  0  0  0  0  0  0  0
   19.3154   20.9892   21.7874 H   0  0  0  0  0  0  0  0  0  0  0  0
   17.8229   20.1415   21.4030 H   0  0  0  0  0  0  0  0  0  0  0  0
   19.2084   18.9671   22.5919 C   0  0  0  0  0  0  0  0  0  0  0  0
   20.2914   18.8697   22.7246 H   0  0  0  0  0  0  0  0  0  0  0  0
   18.8420   17.9830   22.2689 H   0  0  0  0  0  0  0  0  0  0  0  0
   18.5399   19.3469   23.9360 C   0  0  0  0  0  0  0  0  0  0  0  0
   18.8350   20.3611   24.2392 H   0  0  0  0  0  0  0  0  0  0  0  0
   17.4528   19.3823   23.7792 H   0  0  0  0  0  0  0  0  0  0  0  0
   18.8394   18.3410   25.0790 C   0  0  0  0  0  0  0  0  0  0  0  0
   19.0367   17.3427   24.6663 H   0  0  0  0  0  0  0  0  0  0  0  0
   17.9279   18.2396   25.6828 H   0  0  0  0  0  0  0  0  0  0  0  0
   19.9839   18.7614   26.0323 C   0  0  2  0  0  0  0  0  0  0  0  0
   19.7289   19.7354   26.4611 H   0  0  0  0  0  0  0  0  0  0  0  0
   21.3398   18.8926   25.3183 C   0  0  0  0  0  0  0  0  0  0  0  0
   21.6017   17.9682   24.7887 H   0  0  0  0  0  0  0  0  0  0  0  0
   21.3256   19.7173   24.5963 H   0  0  0  0  0  0  0  0  0  0  0  0
   22.1374   19.1099   26.0393 H   0  0  0  0  0  0  0  0  0  0  0  0
   20.0973   17.8083   27.1896 N   0  3  0  0  0  0  0  0  0  0  0  0
   19.2183   17.7414   27.7108 H   0  0  0  0  0  0  0  0  0  0  0  0
   20.8209   18.1066   27.8500 H   0  0  0  0  0  0  0  0  0  0  0  0
   20.3411   16.8654   26.8747 H   0  0  0  0  0  0  0  0  0  0  0  0
  1  2  1  0  0  0  0
  1  3  1  0  0  0  0
  1  4  1  0  0  0  0
  1  5  1  0  0  0  0
  5  6  1  0  0  0  0
  5  7  1  0  0  0  0
  5  8  1  0  0  0  0
  8  9  1  0  0  0  0
  8 10  1  0  0  0  0
  8 11  1  0  0  0  0
 11 12  1  0  0  0  0
 11 13  1  0  0  0  0
 11 14  1  0  0  0  0
 14 15  1  0  0  0  0
 14 16  1  0  0  0  0
 14 17  1  0  0  0  0
 17 18  1  0  0  0  0
 17 19  1  0  0  0  0
 17 20  1  0  0  0  0
 20 21  1  0  0  0  0
 20 22  1  0  0  0  0
 22 23  1  0  0  0  0
 22 24  1  0  0  0  0
 22 25  1  0  0  0  0
 20 26  1  0  0  0  0
 26 27  1  0  0  0  0
 26 28  1  0  0  0  0
 26 29  1  0  0  0  0
M  END
> <VConfSearch Rank>
414

> <Conf_Id>
156

> <Delta U+W>
3.393

> <U+W>
-24.433

> <U>
27.713

> <W>
-52.146

> <W(PB)>
-54.603

> <W(SA)>
2.458

> <Valence>
6.758

> <Coulomb>
19.720

> <VdW>
1.235

> <VdW6>
-9.782

> <VdW12>
11.017

> <Bond>
0.287

> <Angle>
1.880

> <Pdih>
4.591

> <Idih>
0.000

> <Tether>
0.000

$$$$
VeraChem MOL file


 29 28  0  0  0  0  0  0  0  0999 V2000     
   21.1386   15.5769   24.1424 C   0  0  0  0  0  0  0  0  0  0  0  0
   22.1166   16.0605   24.2635 H   0  0  0  0  0  0  0  0  0  0  0  0
   20.9489   14.9613   25.0313 H   0  0  0  0  0  0  0  0  0  0  0  0
   21.1989   14.9066   23.2751 H   0  0  0  0  0  0  0  0  0  0  0  0
   20.0230   16.6247   23.9445 C   0  0  0  0  0  0  0  0  0  0  0  0
   19.0625   16.1118   23.7967 H   0  0  0  0  0  0  0  0  0  0  0  0
   20.2266   17.1921   23.0267 H   0  0  0  0  0  0  0  0  0  0  0  0
   19.9216   17.5846   25.1531 C   0  0  0  0  0  0  0  0  0  0  0  0
   19.7953   16.9916   26.0693 H   0  0  0  0  0  0  0  0  0  0  0  0
   20.8675   18.1282   25.2763 H   0  0  0  0  0  0  0  0  0  0  0  0
   18.7412   18.5856   25.0553 C   0  0  0  0  0  0  0  0  0  0  0  0
   18.7308   19.2077   25.9609 H   0  0  0  0  0  0  0  0  0  0  0  0
   17.7977   18.0226   25.0681 H   0  0  0  0  0  0  0  0  0  0  0  0
   18.7501   19.5102   23.8103 C   0  0  0  0  0  0  0  0  0  0  0  0
   18.6376   18.9057   22.9017 H   0  0  0  0  0  0  0  0  0  0  0  0
   17.8585   20.1481   23.8620 H   0  0  0  0  0  0  0  0  0  0  0  0
   20.0201   20.3988   23.7110 C   0  0  0  0  0  0  0  0  0  0  0  0
   20.9088   19.7609   23.6301 H   0  0  0  0  0  0  0  0  0  0  0  0
   20.1387   20.9685   24.6421 H   0  0  0  0  0  0  0  0  0  0  0  0
   20.0336   21.3840   22.5184 C   0  0  2  0  0  0  0  0  0  0  0  0
   20.9970   21.9027   22.5373 H   0  0  0  0  0  0  0  0  0  0  0  0
   18.9310   22.4512   22.6331 C   0  0  0  0  0  0  0  0  0  0  0  0
   19.0551   23.2148   21.8555 H   0  0  0  0  0  0  0  0  0  0  0  0
   17.9309   22.0170   22.5180 H   0  0  0  0  0  0  0  0  0  0  0  0
   18.9772   22.9567   23.6057 H   0  0  0  0  0  0  0  0  0  0  0  0
   19.9656   20.6794   21.1915 N   0  3  0  0  0  0  0  0  0  0  0  0
   20.7254   20.0008   21.0876 H   0  0  0  0  0  0  0  0  0  0  0  0
   20.0369   21.3409   20.4131 H   0  0  0  0  0  0  0  0  0  0  0  0
   19.0825   20.1740   21.0853 H   0  0  0  0  0  0  0  0  0  0  0  0
  1  2  1  0  0  0  0
  1  3  1  0  0  0  0
  1  4  1  0  0  0  0
  1  5  1  0  0  0  0
  5  6  1  0  0  0  0
  5  7  1  0  0  0  0
  5  8  1  0  0  0  0
  8  9  1  0  0  0  0
  8 10  1  0  0  0  0
  8 11  1  0  0  0  0
 11 12  1  0  0  0  0
 11 13  1  0  0  0  0
 11 14  1  0  0  0  0
 14 15  1  0  0  0  0
 14 16  1  0  0  0  0
 14 17  1  0  0  0  0
 17 18  1  0  0  0  0
 17 19  1  0  0  0  0
 17 20  1  0  0  0  0
 20 21  1  0  0  0  0
 20 22  1  0  0  0  0
 22 23  1  0  0  0  0
 22 24  1  0  0  0  0
 22 25  1  0  0  0  0
 20 26  1  0  0  0  0
 26 27  1  0  0  0  0
 26 28  1  0  0  0  0
 26 29  1  0  0  0  0
M  END
> <VConfSearch Rank>
415

> <Conf_Id>
78

> <Delta U+W>
1.477

> <U+W>
-26.349

> <U>
26.385

> <W>
-52.734

> <W(PB)>
-55.179

> <W(SA)>
2.445

> <Valence>
4.726

> <Coulomb>
20.482

> <VdW>
1.177

> <VdW6>
-10.349

> <VdW12>
11.526

> <Bond>
0.319

> <Angle>
1.933

> <Pdih>
2.474

> <Idih>
0.000

> <Tether>
0.000

$$$$
VeraChem MOL file


 29 28  0  0  0  0  0  0  0  0999 V2000     
   20.3356   21.6301   20.8960 C   0  0  0  0  0  0  0  0  0  0  0  0
   20.9203   22.4573   21.3190 H   0  0  0  0  0  0  0  0  0  0  0  0
   20.9128   20.7082   21.0278 H   0  0  0  0  0  0  0  0  0  0  0  0
   20.2366   21.8098   19.8177 H   0  0  0  0  0  0  0  0  0  0  0  0
   18.9418   21.5444   21.5604 C   0  0  0  0  0  0  0  0  0  0  0  0
   18.3355   20.7650   21.0782 H   0  0  0  0  0  0  0  0  0  0  0  0
   18.4188   22.4927   21.3734 H   0  0  0  0  0  0  0  0  0  0  0  0
   19.0051   21.3084   23.0915 C   0  0  0  0  0  0  0  0  0  0  0  0
   19.9327   21.7297   23.5030 H   0  0  0  0  0  0  0  0  0  0  0  0
   18.1896   21.8775   23.5587 H   0  0  0  0  0  0  0  0  0  0  0  0
   18.8518   19.8293   23.5306 C   0  0  0  0  0  0  0  0  0  0  0  0
   17.8723   19.4524   23.2057 H   0  0  0  0  0  0  0  0  0  0  0  0
   18.8404   19.8064   24.6280 H   0  0  0  0  0  0  0  0  0  0  0  0
   19.9645   18.8901   23.0035 C   0  0  0  0  0  0  0  0  0  0  0  0
   19.9154   18.8540   21.9079 H   0  0  0  0  0  0  0  0  0  0  0  0
   20.9512   19.3009   23.2542 H   0  0  0  0  0  0  0  0  0  0  0  0
   19.8408   17.4364   23.5297 C   0  0  0  0  0  0  0  0  0  0  0  0
   20.6370   16.8277   23.0810 H   0  0  0  0  0  0  0  0  0  0  0  0
   18.8944   17.0154   23.1654 H   0  0  0  0  0  0  0  0  0  0  0  0
   19.8916   17.2831   25.0685 C   0  0  2  0  0  0  0  0  0  0  0  0
   19.0832   17.8783   25.5029 H   0  0  0  0  0  0  0  0  0  0  0  0
   21.2269   17.7732   25.6559 C   0  0  0  0  0  0  0  0  0  0  0  0
   21.2573   17.6058   26.7396 H   0  0  0  0  0  0  0  0  0  0  0  0
   22.0763   17.2447   25.2056 H   0  0  0  0  0  0  0  0  0  0  0  0
   21.3632   18.8483   25.4900 H   0  0  0  0  0  0  0  0  0  0  0  0
   19.6327   15.8603   25.4790 N   0  3  0  0  0  0  0  0  0  0  0  0
   20.3522   15.2295   25.1155 H   0  0  0  0  0  0  0  0  0  0  0  0
   18.7280   15.5268   25.1336 H   0  0  0  0  0  0  0  0  0  0  0  0
   19.6254   15.7603   26.4981 H   0  0  0  0  0  0  0  0  0  0  0  0
  1  2  1  0  0  0  0
  1  3  1  0  0  0  0
  1  4  1  0  0  0  0
  1  5  1  0  0  0  0
  5  6  1  0  0  0  0
  5  7  1  0  0  0  0
  5  8  1  0  0  0  0
  8  9  1  0  0  0  0
  8 10  1  0  0  0  0
  8 11  1  0  0  0  0
 11 12  1  0  0  0  0
 11 13  1  0  0  0  0
 11 14  1  0  0  0  0
 14 15  1  0  0  0  0
 14 16  1  0  0  0  0
 14 17  1  0  0  0  0
 17 18  1  0  0  0  0
 17 19  1  0  0  0  0
 17 20  1  0  0  0  0
 20 21  1  0  0  0  0
 20 22  1  0  0  0  0
 22 23  1  0  0  0  0
 22 24  1  0  0  0  0
 22 25  1  0  0  0  0
 20 26  1  0  0  0  0
 26 27  1  0  0  0  0
 26 28  1  0  0  0  0
 26 29  1  0  0  0  0
M  END
> <VConfSearch Rank>
416

> <Conf_Id>
145

> <Delta U+W>
3.784

> <U+W>
-24.042

> <U>
28.220

> <W>
-52.262

> <W(PB)>
-54.724

> <W(SA)>
2.462

> <Valence>
7.040

> <Coulomb>
19.984

> <VdW>
1.197

> <VdW6>
-10.566

> <VdW12>
11.763

> <Bond>
0.320

> <Angle>
2.280

> <Pdih>
4.439

> <Idih>
0.000

> <Tether>
0.000

$$$$
VeraChem MOL file


 29 28  0  0  0  0  0  0  0  0999 V2000     
   16.7719   16.6239   23.4868 C   0  0  0  0  0  0  0  0  0  0  0  0
   15.9411   16.6390   24.2043 H   0  0  0  0  0  0  0  0  0  0  0  0
   16.4947   17.2508   22.6293 H   0  0  0  0  0  0  0  0  0  0  0  0
   16.8880   15.5932   23.1274 H   0  0  0  0  0  0  0  0  0  0  0  0
   18.0779   17.1239   24.1394 C   0  0  0  0  0  0  0  0  0  0  0  0
   18.8938   17.0546   23.4099 H   0  0  0  0  0  0  0  0  0  0  0  0
   18.3456   16.4565   24.9705 H   0  0  0  0  0  0  0  0  0  0  0  0
   17.9342   18.5725   24.6651 C   0  0  0  0  0  0  0  0  0  0  0  0
   17.5999   19.2416   23.8604 H   0  0  0  0  0  0  0  0  0  0  0  0
   17.1350   18.5838   25.4192 H   0  0  0  0  0  0  0  0  0  0  0  0
   19.2301   19.1239   25.3148 C   0  0  0  0  0  0  0  0  0  0  0  0
   19.8294   18.3015   25.7290 H   0  0  0  0  0  0  0  0  0  0  0  0
   18.9436   19.7428   26.1763 H   0  0  0  0  0  0  0  0  0  0  0  0
   20.1027   20.0014   24.3805 C   0  0  0  0  0  0  0  0  0  0  0  0
   19.5191   20.8761   24.0642 H   0  0  0  0  0  0  0  0  0  0  0  0
   20.9409   20.3887   24.9735 H   0  0  0  0  0  0  0  0  0  0  0  0
   20.6468   19.2541   23.1337 C   0  0  0  0  0  0  0  0  0  0  0  0
   19.8050   18.9481   22.5007 H   0  0  0  0  0  0  0  0  0  0  0  0
   21.1475   18.3299   23.4509 H   0  0  0  0  0  0  0  0  0  0  0  0
   21.6220   20.0742   22.2564 C   0  0  2  0  0  0  0  0  0  0  0  0
   21.8647   19.4618   21.3824 H   0  0  0  0  0  0  0  0  0  0  0  0
   22.9417   20.3820   22.9854 C   0  0  0  0  0  0  0  0  0  0  0  0
   23.6636   20.8349   22.2948 H   0  0  0  0  0  0  0  0  0  0  0  0
   22.7942   21.0794   23.8183 H   0  0  0  0  0  0  0  0  0  0  0  0
   23.3922   19.4633   23.3812 H   0  0  0  0  0  0  0  0  0  0  0  0
   20.9946   21.3325   21.7226 N   0  3  0  0  0  0  0  0  0  0  0  0
   20.7452   21.9722   22.4809 H   0  0  0  0  0  0  0  0  0  0  0  0
   20.1408   21.1313   21.1944 H   0  0  0  0  0  0  0  0  0  0  0  0
   21.6324   21.8318   21.0961 H   0  0  0  0  0  0  0  0  0  0  0  0
  1  2  1  0  0  0  0
  1  3  1  0  0  0  0
  1  4  1  0  0  0  0
  1  5  1  0  0  0  0
  5  6  1  0  0  0  0
  5  7  1  0  0  0  0
  5  8  1  0  0  0  0
  8  9  1  0  0  0  0
  8 10  1  0  0  0  0
  8 11  1  0  0  0  0
 11 12  1  0  0  0  0
 11 13  1  0  0  0  0
 11 14  1  0  0  0  0
 14 15  1  0  0  0  0
 14 16  1  0  0  0  0
 14 17  1  0  0  0  0
 17 18  1  0  0  0  0
 17 19  1  0  0  0  0
 17 20  1  0  0  0  0
 20 21  1  0  0  0  0
 20 22  1  0  0  0  0
 22 23  1  0  0  0  0
 22 24  1  0  0  0  0
 22 25  1  0  0  0  0
 20 26  1  0  0  0  0
 26 27  1  0  0  0  0
 26 28  1  0  0  0  0
 26 29  1  0  0  0  0
M  END
> <VConfSearch Rank>
417

> <Conf_Id>
71

> <Delta U+W>
3.542

> <U+W>
-24.284

> <U>
28.217

> <W>
-52.501

> <W(PB)>
-54.947

> <W(SA)>
2.446

> <Valence>
6.821

> <Coulomb>
20.147

> <VdW>
1.249

> <VdW6>
-10.237

> <VdW12>
11.486

> <Bond>
0.317

> <Angle>
1.990

> <Pdih>
4.515

> <Idih>
0.000

> <Tether>
0.000

$$$$
VeraChem MOL file


 29 28  0  0  0  0  0  0  0  0999 V2000     
   20.0403   15.1818   23.6913 C   0  0  0  0  0  0  0  0  0  0  0  0
   20.8387   15.4232   24.4052 H   0  0  0  0  0  0  0  0  0  0  0  0
   19.3070   14.5436   24.2014 H   0  0  0  0  0  0  0  0  0  0  0  0
   20.4839   14.5986   22.8740 H   0  0  0  0  0  0  0  0  0  0  0  0
   19.3766   16.4646   23.1477 C   0  0  0  0  0  0  0  0  0  0  0  0
   18.6074   16.1902   22.4124 H   0  0  0  0  0  0  0  0  0  0  0  0
   20.1263   17.0555   22.6081 H   0  0  0  0  0  0  0  0  0  0  0  0
   18.7339   17.2984   24.2823 C   0  0  0  0  0  0  0  0  0  0  0  0
   17.9704   16.6773   24.7708 H   0  0  0  0  0  0  0  0  0  0  0  0
   19.4776   17.5288   25.0575 H   0  0  0  0  0  0  0  0  0  0  0  0
   18.0594   18.6035   23.7849 C   0  0  0  0  0  0  0  0  0  0  0  0
   17.1561   18.7717   24.3876 H   0  0  0  0  0  0  0  0  0  0  0  0
   17.7060   18.4811   22.7517 H   0  0  0  0  0  0  0  0  0  0  0  0
   18.9401   19.8742   23.9015 C   0  0  0  0  0  0  0  0  0  0  0  0
   18.3309   20.7364   23.6007 H   0  0  0  0  0  0  0  0  0  0  0  0
   19.1971   20.0325   24.9573 H   0  0  0  0  0  0  0  0  0  0  0  0
   20.2342   19.8300   23.0464 C   0  0  0  0  0  0  0  0  0  0  0  0
   19.9810   19.5348   22.0199 H   0  0  0  0  0  0  0  0  0  0  0  0
   20.9017   19.0519   23.4370 H   0  0  0  0  0  0  0  0  0  0  0  0
   21.0240   21.1591   22.9942 C   0  0  2  0  0  0  0  0  0  0  0  0
   21.9032   20.9904   22.3647 H   0  0  0  0  0  0  0  0  0  0  0  0
   21.5221   21.5897   24.3847 C   0  0  0  0  0  0  0  0  0  0  0  0
   22.0892   20.7815   24.8631 H   0  0  0  0  0  0  0  0  0  0  0  0
   22.1865   22.4586   24.3023 H   0  0  0  0  0  0  0  0  0  0  0  0
   20.6912   21.8646   25.0454 H   0  0  0  0  0  0  0  0  0  0  0  0
   20.2466   22.2645   22.3342 N   0  3  0  0  0  0  0  0  0  0  0  0
   19.9477   22.0017   21.3906 H   0  0  0  0  0  0  0  0  0  0  0  0
   20.8066   23.1178   22.2516 H   0  0  0  0  0  0  0  0  0  0  0  0
   19.4070   22.4991   22.8695 H   0  0  0  0  0  0  0  0  0  0  0  0
  1  2  1  0  0  0  0
  1  3  1  0  0  0  0
  1  4  1  0  0  0  0
  1  5  1  0  0  0  0
  5  6  1  0  0  0  0
  5  7  1  0  0  0  0
  5  8  1  0  0  0  0
  8  9  1  0  0  0  0
  8 10  1  0  0  0  0
  8 11  1  0  0  0  0
 11 12  1  0  0  0  0
 11 13  1  0  0  0  0
 11 14  1  0  0  0  0
 14 15  1  0  0  0  0
 14 16  1  0  0  0  0
 14 17  1  0  0  0  0
 17 18  1  0  0  0  0
 17 19  1  0  0  0  0
 17 20  1  0  0  0  0
 20 21  1  0  0  0  0
 20 22  1  0  0  0  0
 22 23  1  0  0  0  0
 22 24  1  0  0  0  0
 22 25  1  0  0  0  0
 20 26  1  0  0  0  0
 26 27  1  0  0  0  0
 26 28  1  0  0  0  0
 26 29  1  0  0  0  0
M  END
> <VConfSearch Rank>
418

> <Conf_Id>
163

> <Delta U+W>
3.309

> <U+W>
-24.517

> <U>
27.916

> <W>
-52.433

> <W(PB)>
-54.866

> <W(SA)>
2.433

> <Valence>
6.693

> <Coulomb>
20.015

> <VdW>
1.208

> <VdW6>
-10.294

> <VdW12>
11.503

> <Bond>
0.312

> <Angle>
1.939

> <Pdih>
4.441

> <Idih>
0.000

> <Tether>
0.000

$$$$
VeraChem MOL file


 29 28  0  0  0  0  0  0  0  0999 V2000     
   17.5200   19.1001   20.2572 C   0  0  0  0  0  0  0  0  0  0  0  0
   17.8548   18.1994   19.7265 H   0  0  0  0  0  0  0  0  0  0  0  0
   16.8044   18.7977   21.0316 H   0  0  0  0  0  0  0  0  0  0  0  0
   16.9805   19.7314   19.5393 H   0  0  0  0  0  0  0  0  0  0  0  0
   18.7185   19.8688   20.8584 C   0  0  0  0  0  0  0  0  0  0  0  0
   18.3555   20.7452   21.4133 H   0  0  0  0  0  0  0  0  0  0  0  0
   19.3346   20.2593   20.0364 H   0  0  0  0  0  0  0  0  0  0  0  0
   19.6118   19.0003   21.7768 C   0  0  0  0  0  0  0  0  0  0  0  0
   19.9755   18.1279   21.2168 H   0  0  0  0  0  0  0  0  0  0  0  0
   20.4982   19.5906   22.0422 H   0  0  0  0  0  0  0  0  0  0  0  0
   18.8956   18.5313   23.0686 C   0  0  0  0  0  0  0  0  0  0  0  0
   18.0091   17.9423   22.8007 H   0  0  0  0  0  0  0  0  0  0  0  0
   18.5239   19.4035   23.6222 H   0  0  0  0  0  0  0  0  0  0  0  0
   19.7870   17.6560   23.9877 C   0  0  0  0  0  0  0  0  0  0  0  0
   19.1888   17.3202   24.8453 H   0  0  0  0  0  0  0  0  0  0  0  0
   20.0675   16.7413   23.4473 H   0  0  0  0  0  0  0  0  0  0  0  0
   21.0785   18.3463   24.5025 C   0  0  0  0  0  0  0  0  0  0  0  0
   21.7654   18.5007   23.6607 H   0  0  0  0  0  0  0  0  0  0  0  0
   21.5969   17.6644   25.1896 H   0  0  0  0  0  0  0  0  0  0  0  0
   20.8329   19.6963   25.2117 C   0  0  2  0  0  0  0  0  0  0  0  0
   20.3196   20.3635   24.5128 H   0  0  0  0  0  0  0  0  0  0  0  0
   22.1688   20.3472   25.6028 C   0  0  0  0  0  0  0  0  0  0  0  0
   22.0016   21.3239   26.0734 H   0  0  0  0  0  0  0  0  0  0  0  0
   22.7254   19.7182   26.3089 H   0  0  0  0  0  0  0  0  0  0  0  0
   22.7978   20.5072   24.7183 H   0  0  0  0  0  0  0  0  0  0  0  0
   19.9392   19.5554   26.4131 N   0  3  0  0  0  0  0  0  0  0  0  0
   19.0349   19.1500   26.1568 H   0  0  0  0  0  0  0  0  0  0  0  0
   19.7579   20.4615   26.8542 H   0  0  0  0  0  0  0  0  0  0  0  0
   20.3603   18.9478   27.1210 H   0  0  0  0  0  0  0  0  0  0  0  0
  1  2  1  0  0  0  0
  1  3  1  0  0  0  0
  1  4  1  0  0  0  0
  1  5  1  0  0  0  0
  5  6  1  0  0  0  0
  5  7  1  0  0  0  0
  5  8  1  0  0  0  0
  8  9  1  0  0  0  0
  8 10  1  0  0  0  0
  8 11  1  0  0  0  0
 11 12  1  0  0  0  0
 11 13  1  0  0  0  0
 11 14  1  0  0  0  0
 14 15  1  0  0  0  0
 14 16  1  0  0  0  0
 14 17  1  0  0  0  0
 17 18  1  0  0  0  0
 17 19  1  0  0  0  0
 17 20  1  0  0  0  0
 20 21  1  0  0  0  0
 20 22  1  0  0  0  0
 22 23  1  0  0  0  0
 22 24  1  0  0  0  0
 22 25  1  0  0  0  0
 20 26  1  0  0  0  0
 26 27  1  0  0  0  0
 26 28  1  0  0  0  0
 26 29  1  0  0  0  0
M  END
> <VConfSearch Rank>
419

> <Conf_Id>
173

> <Delta U+W>
1.363

> <U+W>
-26.462

> <U>
25.816

> <W>
-52.279

> <W(PB)>
-54.727

> <W(SA)>
2.449

> <Valence>
4.504

> <Coulomb>
20.342

> <VdW>
0.971

> <VdW6>
-10.532

> <VdW12>
11.503

> <Bond>
0.307

> <Angle>
1.715

> <Pdih>
2.481

> <Idih>
0.000

> <Tether>
0.000

$$$$
VeraChem MOL file


 29 28  0  0  0  0  0  0  0  0999 V2000     
   23.1721   17.4446   22.4790 C   0  0  0  0  0  0  0  0  0  0  0  0
   22.8697   17.0368   21.5057 H   0  0  0  0  0  0  0  0  0  0  0  0
   24.1060   18.0047   22.3400 H   0  0  0  0  0  0  0  0  0  0  0  0
   23.3824   16.6000   23.1479 H   0  0  0  0  0  0  0  0  0  0  0  0
   22.0670   18.3454   23.0699 C   0  0  0  0  0  0  0  0  0  0  0  0
   22.3865   18.7165   24.0536 H   0  0  0  0  0  0  0  0  0  0  0  0
   21.1646   17.7402   23.2280 H   0  0  0  0  0  0  0  0  0  0  0  0
   21.7452   19.5374   22.1400 C   0  0  0  0  0  0  0  0  0  0  0  0
   22.6793   20.0618   21.8959 H   0  0  0  0  0  0  0  0  0  0  0  0
   21.3496   19.1594   21.1871 H   0  0  0  0  0  0  0  0  0  0  0  0
   20.7514   20.5670   22.7373 C   0  0  0  0  0  0  0  0  0  0  0  0
   20.6363   21.3779   22.0047 H   0  0  0  0  0  0  0  0  0  0  0  0
   21.1856   21.0362   23.6309 H   0  0  0  0  0  0  0  0  0  0  0  0
   19.3438   19.9988   23.0552 C   0  0  0  0  0  0  0  0  0  0  0  0
   18.6017   20.7735   22.8213 H   0  0  0  0  0  0  0  0  0  0  0  0
   19.1280   19.1574   22.3844 H   0  0  0  0  0  0  0  0  0  0  0  0
   19.1746   19.5852   24.5437 C   0  0  0  0  0  0  0  0  0  0  0  0
   19.3457   20.4645   25.1783 H   0  0  0  0  0  0  0  0  0  0  0  0
   19.9467   18.8614   24.8276 H   0  0  0  0  0  0  0  0  0  0  0  0
   17.7918   18.9908   24.9001 C   0  0  2  0  0  0  0  0  0  0  0  0
   17.7867   18.8044   25.9785 H   0  0  0  0  0  0  0  0  0  0  0  0
   17.5435   17.6453   24.1960 C   0  0  0  0  0  0  0  0  0  0  0  0
   18.3687   16.9477   24.3854 H   0  0  0  0  0  0  0  0  0  0  0  0
   16.6232   17.1810   24.5711 H   0  0  0  0  0  0  0  0  0  0  0  0
   17.4382   17.7670   23.1115 H   0  0  0  0  0  0  0  0  0  0  0  0
   16.6661   19.9529   24.6381 N   0  3  0  0  0  0  0  0  0  0  0  0
   16.8020   20.8352   25.1399 H   0  0  0  0  0  0  0  0  0  0  0  0
   15.7662   19.5660   24.9367 H   0  0  0  0  0  0  0  0  0  0  0  0
   16.5907   20.1727   23.6419 H   0  0  0  0  0  0  0  0  0  0  0  0
  1  2  1  0  0  0  0
  1  3  1  0  0  0  0
  1  4  1  0  0  0  0
  1  5  1  0  0  0  0
  5  6  1  0  0  0  0
  5  7  1  0  0  0  0
  5  8  1  0  0  0  0
  8  9  1  0  0  0  0
  8 10  1  0  0  0  0
  8 11  1  0  0  0  0
 11 12  1  0  0  0  0
 11 13  1  0  0  0  0
 11 14  1  0  0  0  0
 14 15  1  0  0  0  0
 14 16  1  0  0  0  0
 14 17  1  0  0  0  0
 17 18  1  0  0  0  0
 17 19  1  0  0  0  0
 17 20  1  0  0  0  0
 20 21  1  0  0  0  0
 20 22  1  0  0  0  0
 22 23  1  0  0  0  0
 22 24  1  0  0  0  0
 22 25  1  0  0  0  0
 20 26  1  0  0  0  0
 26 27  1  0  0  0  0
 26 28  1  0  0  0  0
 26 29  1  0  0  0  0
M  END
> <VConfSearch Rank>
420

> <Conf_Id>
117

> <Delta U+W>
3.377

> <U+W>
-24.449

> <U>
27.947

> <W>
-52.396

> <W(PB)>
-54.842

> <W(SA)>
2.447

> <Valence>
6.731

> <Coulomb>
20.067

> <VdW>
1.149

> <VdW6>
-10.427

> <VdW12>
11.575

> <Bond>
0.324

> <Angle>
1.943

> <Pdih>
4.465

> <Idih>
0.000

> <Tether>
0.000

$$$$
VeraChem MOL file


 29 28  0  0  0  0  0  0  0  0999 V2000     
   22.7902   18.0056   19.9065 C   0  0  0  0  0  0  0  0  0  0  0  0
   22.8455   16.9510   20.2066 H   0  0  0  0  0  0  0  0  0  0  0  0
   22.0360   18.0965   19.1140 H   0  0  0  0  0  0  0  0  0  0  0  0
   23.7622   18.2863   19.4807 H   0  0  0  0  0  0  0  0  0  0  0  0
   22.4416   18.9070   21.1098 C   0  0  0  0  0  0  0  0  0  0  0  0
   22.4268   19.9573   20.7863 H   0  0  0  0  0  0  0  0  0  0  0  0
   23.2301   18.8206   21.8705 H   0  0  0  0  0  0  0  0  0  0  0  0
   21.0767   18.5325   21.7284 C   0  0  0  0  0  0  0  0  0  0  0  0
   20.2923   18.6182   20.9638 H   0  0  0  0  0  0  0  0  0  0  0  0
   21.0957   17.4814   22.0481 H   0  0  0  0  0  0  0  0  0  0  0  0
   20.7242   19.4332   22.9337 C   0  0  0  0  0  0  0  0  0  0  0  0
   20.7070   20.4841   22.6128 H   0  0  0  0  0  0  0  0  0  0  0  0
   21.5090   19.3468   23.6979 H   0  0  0  0  0  0  0  0  0  0  0  0
   19.3583   19.0588   23.5519 C   0  0  0  0  0  0  0  0  0  0  0  0
   18.5735   19.1489   22.7878 H   0  0  0  0  0  0  0  0  0  0  0  0
   19.3814   18.0061   23.8639 H   0  0  0  0  0  0  0  0  0  0  0  0
   19.0083   19.9616   24.7596 C   0  0  0  0  0  0  0  0  0  0  0  0
   19.0439   21.0116   24.4398 H   0  0  0  0  0  0  0  0  0  0  0  0
   19.7696   19.8464   25.5426 H   0  0  0  0  0  0  0  0  0  0  0  0
   17.6108   19.6677   25.3466 C   0  0  2  0  0  0  0  0  0  0  0  0
   16.8739   19.7653   24.5434 H   0  0  0  0  0  0  0  0  0  0  0  0
   17.2667   20.6875   26.4439 C   0  0  0  0  0  0  0  0  0  0  0  0
   16.2599   20.5067   26.8401 H   0  0  0  0  0  0  0  0  0  0  0  0
   17.9779   20.6289   27.2774 H   0  0  0  0  0  0  0  0  0  0  0  0
   17.2892   21.7100   26.0467 H   0  0  0  0  0  0  0  0  0  0  0  0
   17.4919   18.2644   25.8754 N   0  3  0  0  0  0  0  0  0  0  0  0
   17.6751   17.5726   25.1436 H   0  0  0  0  0  0  0  0  0  0  0  0
   16.5536   18.0812   26.2424 H   0  0  0  0  0  0  0  0  0  0  0  0
   18.1569   18.0944   26.6346 H   0  0  0  0  0  0  0  0  0  0  0  0
  1  2  1  0  0  0  0
  1  3  1  0  0  0  0
  1  4  1  0  0  0  0
  1  5  1  0  0  0  0
  5  6  1  0  0  0  0
  5  7  1  0  0  0  0
  5  8  1  0  0  0  0
  8  9  1  0  0  0  0
  8 10  1  0  0  0  0
  8 11  1  0  0  0  0
 11 12  1  0  0  0  0
 11 13  1  0  0  0  0
 11 14  1  0  0  0  0
 14 15  1  0  0  0  0
 14 16  1  0  0  0  0
 14 17  1  0  0  0  0
 17 18  1  0  0  0  0
 17 19  1  0  0  0  0
 17 20  1  0  0  0  0
 20 21  1  0  0  0  0
 20 22  1  0  0  0  0
 22 23  1  0  0  0  0
 22 24  1  0  0  0  0
 22 25  1  0  0  0  0
 20 26  1  0  0  0  0
 26 27  1  0  0  0  0
 26 28  1  0  0  0  0
 26 29  1  0  0  0  0
M  END
> <VConfSearch Rank>
421

> <Conf_Id>
164

> <Delta U+W>
0.000

> <U+W>
-27.826

> <U>
23.963

> <W>
-51.789

> <W(PB)>
-54.342

> <W(SA)>
2.554

> <Valence>
3.166

> <Coulomb>
19.734

> <VdW>
1.062

> <VdW6>
-7.938

> <VdW12>
9.001

> <Bond>
0.188

> <Angle>
0.880

> <Pdih>
2.098

> <Idih>
0.000

> <Tether>
0.000

$$$$
VeraChem MOL file


 29 28  0  0  0  0  0  0  0  0999 V2000     
   18.3787   14.8353   21.7132 C   0  0  0  0  0  0  0  0  0  0  0  0
   19.3208   14.3166   21.9340 H   0  0  0  0  0  0  0  0  0  0  0  0
   17.6841   14.6510   22.5431 H   0  0  0  0  0  0  0  0  0  0  0  0
   17.9500   14.3849   20.8085 H   0  0  0  0  0  0  0  0  0  0  0  0
   18.6125   16.3473   21.5109 C   0  0  0  0  0  0  0  0  0  0  0  0
   17.6594   16.8330   21.2586 H   0  0  0  0  0  0  0  0  0  0  0  0
   19.2834   16.5011   20.6541 H   0  0  0  0  0  0  0  0  0  0  0  0
   19.2161   17.0063   22.7708 C   0  0  0  0  0  0  0  0  0  0  0  0
   18.5432   16.8478   23.6249 H   0  0  0  0  0  0  0  0  0  0  0  0
   20.1674   16.5161   23.0203 H   0  0  0  0  0  0  0  0  0  0  0  0
   19.4515   18.5206   22.5721 C   0  0  0  0  0  0  0  0  0  0  0  0
   18.4998   19.0101   22.3229 H   0  0  0  0  0  0  0  0  0  0  0  0
   20.1235   18.6774   21.7169 H   0  0  0  0  0  0  0  0  0  0  0  0
   20.0560   19.1793   23.8327 C   0  0  0  0  0  0  0  0  0  0  0  0
   19.3816   19.0095   24.6823 H   0  0  0  0  0  0  0  0  0  0  0  0
   21.0102   18.6930   24.0788 H   0  0  0  0  0  0  0  0  0  0  0  0
   20.2865   20.6974   23.6326 C   0  0  0  0  0  0  0  0  0  0  0  0
   19.3256   21.1972   23.4511 H   0  0  0  0  0  0  0  0  0  0  0  0
   20.8888   20.8427   22.7260 H   0  0  0  0  0  0  0  0  0  0  0  0
   21.0119   21.3787   24.8154 C   0  0  2  0  0  0  0  0  0  0  0  0
   21.9446   20.8380   25.0034 H   0  0  0  0  0  0  0  0  0  0  0  0
   20.1687   21.3586   26.1030 C   0  0  0  0  0  0  0  0  0  0  0  0
   19.1930   21.8352   25.9459 H   0  0  0  0  0  0  0  0  0  0  0  0
   19.9987   20.3338   26.4527 H   0  0  0  0  0  0  0  0  0  0  0  0
   20.6831   21.8948   26.9099 H   0  0  0  0  0  0  0  0  0  0  0  0
   21.4016   22.7895   24.4717 N   0  3  0  0  0  0  0  0  0  0  0  0
   21.9174   23.2321   25.2377 H   0  0  0  0  0  0  0  0  0  0  0  0
   20.5794   23.3690   24.2821 H   0  0  0  0  0  0  0  0  0  0  0  0
   22.0005   22.8238   23.6416 H   0  0  0  0  0  0  0  0  0  0  0  0
  1  2  1  0  0  0  0
  1  3  1  0  0  0  0
  1  4  1  0  0  0  0
  1  5  1  0  0  0  0
  5  6  1  0  0  0  0
  5  7  1  0  0  0  0
  5  8  1  0  0  0  0
  8  9  1  0  0  0  0
  8 10  1  0  0  0  0
  8 11  1  0  0  0  0
 11 12  1  0  0  0  0
 11 13  1  0  0  0  0
 11 14  1  0  0  0  0
 14 15  1  0  0  0  0
 14 16  1  0  0  0  0
 14 17  1  0  0  0  0
 17 18  1  0  0  0  0
 17 19  1  0  0  0  0
 17 20  1  0  0  0  0
 20 21  1  0  0  0  0
 20 22  1  0  0  0  0
 22 23  1  0  0  0  0
 22 24  1  0  0  0  0
 22 25  1  0  0  0  0
 20 26  1  0  0  0  0
 26 27  1  0  0  0  0
 26 28  1  0  0  0  0
 26 29  1  0  0  0  0
M  END
> <VConfSearch Rank>
422

> <Conf_Id>
58

> <Delta U+W>
0.412

> <U+W>
-27.414

> <U>
24.279

> <W>
-51.694

> <W(PB)>
-54.271

> <W(SA)>
2.577

> <Valence>
3.709

> <Coulomb>
19.380

> <VdW>
1.191

> <VdW6>
-8.093

> <VdW12>
9.284

> <Bond>
0.200

> <Angle>
1.161

> <Pdih>
2.348

> <Idih>
0.000

> <Tether>
0.000

$$$$
VeraChem MOL file


 29 28  0  0  0  0  0  0  0  0999 V2000     
   18.4908   14.7218   22.3645 C   0  0  0  0  0  0  0  0  0  0  0  0
   19.4255   14.3017   22.7581 H   0  0  0  0  0  0  0  0  0  0  0  0
   17.7354   14.6804   23.1600 H   0  0  0  0  0  0  0  0  0  0  0  0
   18.1512   14.0775   21.5432 H   0  0  0  0  0  0  0  0  0  0  0  0
   18.6979   16.1695   21.8713 C   0  0  0  0  0  0  0  0  0  0  0  0
   17.7557   16.5505   21.4529 H   0  0  0  0  0  0  0  0  0  0  0  0
   19.4329   16.1747   21.0542 H   0  0  0  0  0  0  0  0  0  0  0  0
   19.1764   17.0983   23.0090 C   0  0  0  0  0  0  0  0  0  0  0  0
   18.4397   17.0882   23.8242 H   0  0  0  0  0  0  0  0  0  0  0  0
   20.1170   16.7121   23.4257 H   0  0  0  0  0  0  0  0  0  0  0  0
   19.3852   18.5489   22.5188 C   0  0  0  0  0  0  0  0  0  0  0  0
   18.4442   18.9336   22.1018 H   0  0  0  0  0  0  0  0  0  0  0  0
   20.1217   18.5577   21.7034 H   0  0  0  0  0  0  0  0  0  0  0  0
   19.8641   19.4778   23.6572 C   0  0  0  0  0  0  0  0  0  0  0  0
   19.1249   19.4633   24.4689 H   0  0  0  0  0  0  0  0  0  0  0  0
   20.8015   19.0826   24.0702 H   0  0  0  0  0  0  0  0  0  0  0  0
   20.0751   20.9311   23.1582 C   0  0  0  0  0  0  0  0  0  0  0  0
   19.1442   21.2947   22.7035 H   0  0  0  0  0  0  0  0  0  0  0  0
   20.8244   20.9340   22.3556 H   0  0  0  0  0  0  0  0  0  0  0  0
   20.5115   21.9377   24.2488 C   0  0  2  0  0  0  0  0  0  0  0  0
   20.5929   22.9192   23.7714 H   0  0  0  0  0  0  0  0  0  0  0  0
   21.8900   21.5914   24.8380 C   0  0  0  0  0  0  0  0  0  0  0  0
   22.2336   22.3915   25.5052 H   0  0  0  0  0  0  0  0  0  0  0  0
   21.8614   20.6614   25.4181 H   0  0  0  0  0  0  0  0  0  0  0  0
   22.6368   21.4782   24.0424 H   0  0  0  0  0  0  0  0  0  0  0  0
   19.4833   22.0874   25.3361 N   0  3  0  0  0  0  0  0  0  0  0  0
   18.5726   22.3616   24.9564 H   0  0  0  0  0  0  0  0  0  0  0  0
   19.7592   22.8018   26.0160 H   0  0  0  0  0  0  0  0  0  0  0  0
   19.3534   21.2108   25.8472 H   0  0  0  0  0  0  0  0  0  0  0  0
  1  2  1  0  0  0  0
  1  3  1  0  0  0  0
  1  4  1  0  0  0  0
  1  5  1  0  0  0  0
  5  6  1  0  0  0  0
  5  7  1  0  0  0  0
  5  8  1  0  0  0  0
  8  9  1  0  0  0  0
  8 10  1  0  0  0  0
  8 11  1  0  0  0  0
 11 12  1  0  0  0  0
 11 13  1  0  0  0  0
 11 14  1  0  0  0  0
 14 15  1  0  0  0  0
 14 16  1  0  0  0  0
 14 17  1  0  0  0  0
 17 18  1  0  0  0  0
 17 19  1  0  0  0  0
 17 20  1  0  0  0  0
 20 21  1  0  0  0  0
 20 22  1  0  0  0  0
 22 23  1  0  0  0  0
 22 24  1  0  0  0  0
 22 25  1  0  0  0  0
 20 26  1  0  0  0  0
 26 27  1  0  0  0  0
 26 28  1  0  0  0  0
 26 29  1  0  0  0  0
M  END
> <VConfSearch Rank>
423

> <Conf_Id>
137

> <Delta U+W>
0.280

> <U+W>
-27.546

> <U>
24.513

> <W>
-52.059

> <W(PB)>
-54.556

> <W(SA)>
2.497

> <Valence>
3.677

> <Coulomb>
19.662

> <VdW>
1.174

> <VdW6>
-8.569

> <VdW12>
9.743

> <Bond>
0.224

> <Angle>
1.211

> <Pdih>
2.243

> <Idih>
0.000

> <Tether>
0.000

$$$$
VeraChem MOL file


 29 28  0  0  0  0  0  0  0  0999 V2000     
   17.1180   20.2287   26.9591 C   0  0  0  0  0  0  0  0  0  0  0  0
   16.8219   19.1752   26.8711 H   0  0  0  0  0  0  0  0  0  0  0  0
   17.9433   20.2930   27.6801 H   0  0  0  0  0  0  0  0  0  0  0  0
   16.2661   20.7849   27.3714 H   0  0  0  0  0  0  0  0  0  0  0  0
   17.5327   20.8047   25.5886 C   0  0  0  0  0  0  0  0  0  0  0  0
   17.7893   21.8672   25.7028 H   0  0  0  0  0  0  0  0  0  0  0  0
   16.6781   20.7571   24.8992 H   0  0  0  0  0  0  0  0  0  0  0  0
   18.7317   20.0397   24.9858 C   0  0  0  0  0  0  0  0  0  0  0  0
   19.5838   20.0923   25.6773 H   0  0  0  0  0  0  0  0  0  0  0  0
   18.4647   18.9796   24.8872 H   0  0  0  0  0  0  0  0  0  0  0  0
   19.1452   20.6143   23.6093 C   0  0  0  0  0  0  0  0  0  0  0  0
   19.3242   21.6933   23.7144 H   0  0  0  0  0  0  0  0  0  0  0  0
   18.3148   20.5080   22.8977 H   0  0  0  0  0  0  0  0  0  0  0  0
   20.4211   19.9639   23.0195 C   0  0  0  0  0  0  0  0  0  0  0  0
   20.7095   20.5386   22.1302 H   0  0  0  0  0  0  0  0  0  0  0  0
   21.2490   20.0637   23.7350 H   0  0  0  0  0  0  0  0  0  0  0  0
   20.2364   18.4721   22.6369 C   0  0  0  0  0  0  0  0  0  0  0  0
   19.4160   18.3736   21.9138 H   0  0  0  0  0  0  0  0  0  0  0  0
   19.9358   17.9090   23.5285 H   0  0  0  0  0  0  0  0  0  0  0  0
   21.5136   17.8131   22.0667 C   0  0  2  0  0  0  0  0  0  0  0  0
   22.3307   17.9773   22.7760 H   0  0  0  0  0  0  0  0  0  0  0  0
   21.9202   18.4087   20.7067 C   0  0  0  0  0  0  0  0  0  0  0  0
   21.1036   18.3290   19.9784 H   0  0  0  0  0  0  0  0  0  0  0  0
   22.1972   19.4650   20.7991 H   0  0  0  0  0  0  0  0  0  0  0  0
   22.7914   17.8811   20.2993 H   0  0  0  0  0  0  0  0  0  0  0  0
   21.3475   16.3233   21.9497 N   0  3  0  0  0  0  0  0  0  0  0  0
   21.1207   15.8968   22.8528 H   0  0  0  0  0  0  0  0  0  0  0  0
   22.2041   15.8773   21.6091 H   0  0  0  0  0  0  0  0  0  0  0  0
   20.5968   16.0808   21.2974 H   0  0  0  0  0  0  0  0  0  0  0  0
  1  2  1  0  0  0  0
  1  3  1  0  0  0  0
  1  4  1  0  0  0  0
  1  5  1  0  0  0  0
  5  6  1  0  0  0  0
  5  7  1  0  0  0  0
  5  8  1  0  0  0  0
  8  9  1  0  0  0  0
  8 10  1  0  0  0  0
  8 11  1  0  0  0  0
 11 12  1  0  0  0  0
 11 13  1  0  0  0  0
 11 14  1  0  0  0  0
 14 15  1  0  0  0  0
 14 16  1  0  0  0  0
 14 17  1  0  0  0  0
 17 18  1  0  0  0  0
 17 19  1  0  0  0  0
 17 20  1  0  0  0  0
 20 21  1  0  0  0  0
 20 22  1  0  0  0  0
 22 23  1  0  0  0  0
 22 24  1  0  0  0  0
 22 25  1  0  0  0  0
 20 26  1  0  0  0  0
 26 27  1  0  0  0  0
 26 28  1  0  0  0  0
 26 29  1  0  0  0  0
M  END
> <VConfSearch Rank>
424

> <Conf_Id>
40

> <Delta U+W>
1.128

> <U+W>
-26.698

> <U>
25.442

> <W>
-52.140

> <W(PB)>
-54.658

> <W(SA)>
2.519

> <Valence>
4.343

> <Coulomb>
19.740

> <VdW>
1.360

> <VdW6>
-8.739

> <VdW12>
10.099

> <Bond>
0.251

> <Angle>
1.483

> <Pdih>
2.608

> <Idih>
0.000

> <Tether>
0.000

$$$$
VeraChem MOL file


 29 28  0  0  0  0  0  0  0  0999 V2000     
   22.7195   21.0096   20.9244 C   0  0  0  0  0  0  0  0  0  0  0  0
   22.3223   20.2211   20.2735 H   0  0  0  0  0  0  0  0  0  0  0  0
   22.1103   21.9120   20.7840 H   0  0  0  0  0  0  0  0  0  0  0  0
   23.7379   21.2360   20.5831 H   0  0  0  0  0  0  0  0  0  0  0  0
   22.7314   20.5723   22.4068 C   0  0  0  0  0  0  0  0  0  0  0  0
   23.2541   21.3389   22.9958 H   0  0  0  0  0  0  0  0  0  0  0  0
   23.3172   19.6488   22.5159 H   0  0  0  0  0  0  0  0  0  0  0  0
   21.3174   20.3691   23.0031 C   0  0  0  0  0  0  0  0  0  0  0  0
   21.4274   20.1999   24.0816 H   0  0  0  0  0  0  0  0  0  0  0  0
   20.7364   21.2948   22.8916 H   0  0  0  0  0  0  0  0  0  0  0  0
   20.5443   19.1857   22.3669 C   0  0  0  0  0  0  0  0  0  0  0  0
   21.1223   18.2587   22.4833 H   0  0  0  0  0  0  0  0  0  0  0  0
   20.4464   19.3547   21.2869 H   0  0  0  0  0  0  0  0  0  0  0  0
   19.1223   18.9876   22.9481 C   0  0  0  0  0  0  0  0  0  0  0  0
   18.5515   19.9213   22.8489 H   0  0  0  0  0  0  0  0  0  0  0  0
   18.6056   18.2426   22.3290 H   0  0  0  0  0  0  0  0  0  0  0  0
   19.1143   18.5235   24.4277 C   0  0  0  0  0  0  0  0  0  0  0  0
   19.6059   19.2814   25.0495 H   0  0  0  0  0  0  0  0  0  0  0  0
   19.7018   17.6016   24.5313 H   0  0  0  0  0  0  0  0  0  0  0  0
   17.6898   18.2950   24.9788 C   0  0  2  0  0  0  0  0  0  0  0  0
   17.1135   19.2135   24.8310 H   0  0  0  0  0  0  0  0  0  0  0  0
   17.7416   17.9950   26.4854 C   0  0  0  0  0  0  0  0  0  0  0  0
   16.7304   17.8659   26.8907 H   0  0  0  0  0  0  0  0  0  0  0  0
   18.3109   17.0792   26.6884 H   0  0  0  0  0  0  0  0  0  0  0  0
   18.2157   18.8201   27.0315 H   0  0  0  0  0  0  0  0  0  0  0  0
   16.9571   17.2013   24.2507 N   0  3  0  0  0  0  0  0  0  0  0  0
   17.4415   16.3041   24.3404 H   0  0  0  0  0  0  0  0  0  0  0  0
   16.8728   17.4081   23.2518 H   0  0  0  0  0  0  0  0  0  0  0  0
   16.0096   17.0766   24.6187 H   0  0  0  0  0  0  0  0  0  0  0  0
  1  2  1  0  0  0  0
  1  3  1  0  0  0  0
  1  4  1  0  0  0  0
  1  5  1  0  0  0  0
  5  6  1  0  0  0  0
  5  7  1  0  0  0  0
  5  8  1  0  0  0  0
  8  9  1  0  0  0  0
  8 10  1  0  0  0  0
  8 11  1  0  0  0  0
 11 12  1  0  0  0  0
 11 13  1  0  0  0  0
 11 14  1  0  0  0  0
 14 15  1  0  0  0  0
 14 16  1  0  0  0  0
 14 17  1  0  0  0  0
 17 18  1  0  0  0  0
 17 19  1  0  0  0  0
 17 20  1  0  0  0  0
 20 21  1  0  0  0  0
 20 22  1  0  0  0  0
 22 23  1  0  0  0  0
 22 24  1  0  0  0  0
 22 25  1  0  0  0  0
 20 26  1  0  0  0  0
 26 27  1  0  0  0  0
 26 28  1  0  0  0  0
 26 29  1  0  0  0  0
M  END
> <VConfSearch Rank>
425

> <Conf_Id>
134

> <Delta U+W>
1.228

> <U+W>
-26.598

> <U>
25.451

> <W>
-52.048

> <W(PB)>
-54.539

> <W(SA)>
2.490

> <Valence>
4.319

> <Coulomb>
19.732

> <VdW>
1.400

> <VdW6>
-9.173

> <VdW12>
10.573

> <Bond>
0.281

> <Angle>
1.459

> <Pdih>
2.580

> <Idih>
0.000

> <Tether>
0.000

$$$$
VeraChem MOL file


 29 28  0  0  0  0  0  0  0  0999 V2000     
   18.1703   15.1963   22.5314 C   0  0  0  0  0  0  0  0  0  0  0  0
   17.7137   15.7847   21.7262 H   0  0  0  0  0  0  0  0  0  0  0  0
   19.1538   14.8488   22.1894 H   0  0  0  0  0  0  0  0  0  0  0  0
   17.5392   14.3125   22.6916 H   0  0  0  0  0  0  0  0  0  0  0  0
   18.2932   16.0158   23.8361 C   0  0  0  0  0  0  0  0  0  0  0  0
   18.6331   15.3485   24.6405 H   0  0  0  0  0  0  0  0  0  0  0  0
   17.3019   16.3813   24.1386 H   0  0  0  0  0  0  0  0  0  0  0  0
   19.2793   17.2041   23.7290 C   0  0  0  0  0  0  0  0  0  0  0  0
   19.4005   17.6349   24.7311 H   0  0  0  0  0  0  0  0  0  0  0  0
   20.2689   16.8333   23.4286 H   0  0  0  0  0  0  0  0  0  0  0  0
   18.8122   18.3063   22.7445 C   0  0  0  0  0  0  0  0  0  0  0  0
   17.8233   18.6780   23.0461 H   0  0  0  0  0  0  0  0  0  0  0  0
   18.6874   17.8733   21.7437 H   0  0  0  0  0  0  0  0  0  0  0  0
   19.8013   19.4926   22.6322 C   0  0  0  0  0  0  0  0  0  0  0  0
   20.7816   19.1128   22.3154 H   0  0  0  0  0  0  0  0  0  0  0  0
   19.4531   20.1605   21.8321 H   0  0  0  0  0  0  0  0  0  0  0  0
   19.9406   20.3086   23.9433 C   0  0  0  0  0  0  0  0  0  0  0  0
   20.4236   19.6996   24.7179 H   0  0  0  0  0  0  0  0  0  0  0  0
   18.9358   20.5497   24.3144 H   0  0  0  0  0  0  0  0  0  0  0  0
   20.7280   21.6271   23.7693 C   0  0  2  0  0  0  0  0  0  0  0  0
   20.2546   22.2067   22.9708 H   0  0  0  0  0  0  0  0  0  0  0  0
   22.1972   21.3771   23.3846 C   0  0  0  0  0  0  0  0  0  0  0  0
   22.7008   20.7480   24.1291 H   0  0  0  0  0  0  0  0  0  0  0  0
   22.2753   20.8842   22.4086 H   0  0  0  0  0  0  0  0  0  0  0  0
   22.7447   22.3251   23.3140 H   0  0  0  0  0  0  0  0  0  0  0  0
   20.6512   22.4729   25.0098 N   0  3  0  0  0  0  0  0  0  0  0  0
   19.6817   22.6879   25.2602 H   0  0  0  0  0  0  0  0  0  0  0  0
   21.1384   23.3650   24.8848 H   0  0  0  0  0  0  0  0  0  0  0  0
   21.0788   22.0011   25.8113 H   0  0  0  0  0  0  0  0  0  0  0  0
  1  2  1  0  0  0  0
  1  3  1  0  0  0  0
  1  4  1  0  0  0  0
  1  5  1  0  0  0  0
  5  6  1  0  0  0  0
  5  7  1  0  0  0  0
  5  8  1  0  0  0  0
  8  9  1  0  0  0  0
  8 10  1  0  0  0  0
  8 11  1  0  0  0  0
 11 12  1  0  0  0  0
 11 13  1  0  0  0  0
 11 14  1  0  0  0  0
 14 15  1  0  0  0  0
 14 16  1  0  0  0  0
 14 17  1  0  0  0  0
 17 18  1  0  0  0  0
 17 19  1  0  0  0  0
 17 20  1  0  0  0  0
 20 21  1  0  0  0  0
 20 22  1  0  0  0  0
 22 23  1  0  0  0  0
 22 24  1  0  0  0  0
 22 25  1  0  0  0  0
 20 26  1  0  0  0  0
 26 27  1  0  0  0  0
 26 28  1  0  0  0  0
 26 29  1  0  0  0  0
M  END
> <VConfSearch Rank>
426

> <Conf_Id>
73

> <Delta U+W>
1.580

> <U+W>
-26.246

> <U>
25.821

> <W>
-52.067

> <W(PB)>
-54.581

> <W(SA)>
2.514

> <Valence>
4.779

> <Coulomb>
19.614

> <VdW>
1.428

> <VdW6>
-9.390

> <VdW12>
10.818

> <Bond>
0.283

> <Angle>
1.640

> <Pdih>
2.856

> <Idih>
0.000

> <Tether>
0.000

$$$$
VeraChem MOL file


 29 28  0  0  0  0  0  0  0  0999 V2000     
   19.4281   14.7622   22.4737 C   0  0  0  0  0  0  0  0  0  0  0  0
   20.5139   14.7752   22.6352 H   0  0  0  0  0  0  0  0  0  0  0  0
   19.0640   13.7542   22.7111 H   0  0  0  0  0  0  0  0  0  0  0  0
   19.2385   14.9469   21.4083 H   0  0  0  0  0  0  0  0  0  0  0  0
   18.7238   15.8169   23.3532 C   0  0  0  0  0  0  0  0  0  0  0  0
   18.9040   15.5874   24.4128 H   0  0  0  0  0  0  0  0  0  0  0  0
   17.6378   15.7559   23.1957 H   0  0  0  0  0  0  0  0  0  0  0  0
   19.2177   17.2463   23.0384 C   0  0  0  0  0  0  0  0  0  0  0  0
   20.3040   17.2896   23.1900 H   0  0  0  0  0  0  0  0  0  0  0  0
   19.0330   17.4718   21.9791 H   0  0  0  0  0  0  0  0  0  0  0  0
   18.5153   18.3040   23.9235 C   0  0  0  0  0  0  0  0  0  0  0  0
   18.7470   18.1159   24.9810 H   0  0  0  0  0  0  0  0  0  0  0  0
   17.4274   18.1878   23.8213 H   0  0  0  0  0  0  0  0  0  0  0  0
   18.8863   19.7635   23.5624 C   0  0  0  0  0  0  0  0  0  0  0  0
   18.6514   19.9514   22.5055 H   0  0  0  0  0  0  0  0  0  0  0  0
   18.2396   20.4316   24.1462 H   0  0  0  0  0  0  0  0  0  0  0  0
   20.3723   20.1107   23.8371 C   0  0  0  0  0  0  0  0  0  0  0  0
   21.0150   19.4588   23.2328 H   0  0  0  0  0  0  0  0  0  0  0  0
   20.6141   19.9048   24.8882 H   0  0  0  0  0  0  0  0  0  0  0  0
   20.7191   21.5780   23.5031 C   0  0  2  0  0  0  0  0  0  0  0  0
   20.4360   21.7693   22.4634 H   0  0  0  0  0  0  0  0  0  0  0  0
   22.2314   21.8146   23.6427 C   0  0  0  0  0  0  0  0  0  0  0  0
   22.7938   21.1468   22.9783 H   0  0  0  0  0  0  0  0  0  0  0  0
   22.4896   22.8462   23.3731 H   0  0  0  0  0  0  0  0  0  0  0  0
   22.5678   21.6357   24.6717 H   0  0  0  0  0  0  0  0  0  0  0  0
   19.9539   22.5593   24.3484 N   0  3  0  0  0  0  0  0  0  0  0  0
   20.1842   23.5259   24.1005 H   0  0  0  0  0  0  0  0  0  0  0  0
   20.1650   22.4391   25.3427 H   0  0  0  0  0  0  0  0  0  0  0  0
   18.9434   22.4458   24.2314 H   0  0  0  0  0  0  0  0  0  0  0  0
  1  2  1  0  0  0  0
  1  3  1  0  0  0  0
  1  4  1  0  0  0  0
  1  5  1  0  0  0  0
  5  6  1  0  0  0  0
  5  7  1  0  0  0  0
  5  8  1  0  0  0  0
  8  9  1  0  0  0  0
  8 10  1  0  0  0  0
  8 11  1  0  0  0  0
 11 12  1  0  0  0  0
 11 13  1  0  0  0  0
 11 14  1  0  0  0  0
 14 15  1  0  0  0  0
 14 16  1  0  0  0  0
 14 17  1  0  0  0  0
 17 18  1  0  0  0  0
 17 19  1  0  0  0  0
 17 20  1  0  0  0  0
 20 21  1  0  0  0  0
 20 22  1  0  0  0  0
 22 23  1  0  0  0  0
 22 24  1  0  0  0  0
 22 25  1  0  0  0  0
 20 26  1  0  0  0  0
 26 27  1  0  0  0  0
 26 28  1  0  0  0  0
 26 29  1  0  0  0  0
M  END
> <VConfSearch Rank>
427

> <Conf_Id>
111

> <Delta U+W>
0.580

> <U+W>
-27.246

> <U>
24.710

> <W>
-51.957

> <W(PB)>
-54.511

> <W(SA)>
2.555

> <Valence>
3.735

> <Coulomb>
19.760

> <VdW>
1.216

> <VdW6>
-8.624

> <VdW12>
9.840

> <Bond>
0.236

> <Angle>
1.168

> <Pdih>
2.330

> <Idih>
0.000

> <Tether>
0.000

$$$$
VeraChem MOL file


 29 28  0  0  0  0  0  0  0  0999 V2000     
   17.2135   16.1778   21.4387 C   0  0  0  0  0  0  0  0  0  0  0  0
   16.5853   16.9620   20.9966 H   0  0  0  0  0  0  0  0  0  0  0  0
   18.1187   16.0784   20.8255 H   0  0  0  0  0  0  0  0  0  0  0  0
   16.6614   15.2308   21.3806 H   0  0  0  0  0  0  0  0  0  0  0  0
   17.5693   16.5120   22.9028 C   0  0  0  0  0  0  0  0  0  0  0  0
   18.1694   15.6953   23.3279 H   0  0  0  0  0  0  0  0  0  0  0  0
   16.6469   16.5706   23.4975 H   0  0  0  0  0  0  0  0  0  0  0  0
   18.3470   17.8421   23.0130 C   0  0  0  0  0  0  0  0  0  0  0  0
   19.2606   17.7737   22.4081 H   0  0  0  0  0  0  0  0  0  0  0  0
   17.7425   18.6556   22.5886 H   0  0  0  0  0  0  0  0  0  0  0  0
   18.7078   18.1763   24.4803 C   0  0  0  0  0  0  0  0  0  0  0  0
   19.3556   17.3896   24.8911 H   0  0  0  0  0  0  0  0  0  0  0  0
   17.7907   18.1676   25.0855 H   0  0  0  0  0  0  0  0  0  0  0  0
   19.3936   19.5543   24.6487 C   0  0  0  0  0  0  0  0  0  0  0  0
   18.7252   20.3361   24.2645 H   0  0  0  0  0  0  0  0  0  0  0  0
   19.5195   19.7522   25.7222 H   0  0  0  0  0  0  0  0  0  0  0  0
   20.7767   19.6429   23.9535 C   0  0  0  0  0  0  0  0  0  0  0  0
   20.6555   19.5864   22.8643 H   0  0  0  0  0  0  0  0  0  0  0  0
   21.3735   18.7699   24.2486 H   0  0  0  0  0  0  0  0  0  0  0  0
   21.5679   20.9212   24.3121 C   0  0  2  0  0  0  0  0  0  0  0  0
   21.6489   20.9803   25.4019 H   0  0  0  0  0  0  0  0  0  0  0  0
   20.8689   22.1956   23.8057 C   0  0  0  0  0  0  0  0  0  0  0  0
   20.7110   22.1570   22.7206 H   0  0  0  0  0  0  0  0  0  0  0  0
   19.8956   22.3355   24.2900 H   0  0  0  0  0  0  0  0  0  0  0  0
   21.4735   23.0830   24.0301 H   0  0  0  0  0  0  0  0  0  0  0  0
   22.9744   20.8546   23.7854 N   0  3  0  0  0  0  0  0  0  0  0  0
   23.4733   20.0356   24.1448 H   0  0  0  0  0  0  0  0  0  0  0  0
   23.5141   21.6822   24.0548 H   0  0  0  0  0  0  0  0  0  0  0  0
   22.9890   20.7999   22.7634 H   0  0  0  0  0  0  0  0  0  0  0  0
  1  2  1  0  0  0  0
  1  3  1  0  0  0  0
  1  4  1  0  0  0  0
  1  5  1  0  0  0  0
  5  6  1  0  0  0  0
  5  7  1  0  0  0  0
  5  8  1  0  0  0  0
  8  9  1  0  0  0  0
  8 10  1  0  0  0  0
  8 11  1  0  0  0  0
 11 12  1  0  0  0  0
 11 13  1  0  0  0  0
 11 14  1  0  0  0  0
 14 15  1  0  0  0  0
 14 16  1  0  0  0  0
 14 17  1  0  0  0  0
 17 18  1  0  0  0  0
 17 19  1  0  0  0  0
 17 20  1  0  0  0  0
 20 21  1  0  0  0  0
 20 22  1  0  0  0  0
 22 23  1  0  0  0  0
 22 24  1  0  0  0  0
 22 25  1  0  0  0  0
 20 26  1  0  0  0  0
 26 27  1  0  0  0  0
 26 28  1  0  0  0  0
 26 29  1  0  0  0  0
M  END
> <VConfSearch Rank>
428

> <Conf_Id>
39

> <Delta U+W>
0.965

> <U+W>
-26.861

> <U>
25.129

> <W>
-51.990

> <W(PB)>
-54.526

> <W(SA)>
2.536

> <Valence>
4.206

> <Coulomb>
19.678

> <VdW>
1.245

> <VdW6>
-8.834

> <VdW12>
10.079

> <Bond>
0.240

> <Angle>
1.353

> <Pdih>
2.613

> <Idih>
0.000

> <Tether>
0.000

$$$$
VeraChem MOL file


 29 28  0  0  0  0  0  0  0  0999 V2000     
   17.2740   22.1544   25.1084 C   0  0  0  0  0  0  0  0  0  0  0  0
   18.0231   22.3729   25.8804 H   0  0  0  0  0  0  0  0  0  0  0  0
   17.6155   22.5932   24.1629 H   0  0  0  0  0  0  0  0  0  0  0  0
   16.3434   22.6638   25.3903 H   0  0  0  0  0  0  0  0  0  0  0  0
   17.0383   20.6325   24.9776 C   0  0  0  0  0  0  0  0  0  0  0  0
   16.3121   20.4377   24.1761 H   0  0  0  0  0  0  0  0  0  0  0  0
   16.5771   20.2666   25.9056 H   0  0  0  0  0  0  0  0  0  0  0  0
   18.3340   19.8263   24.7178 C   0  0  0  0  0  0  0  0  0  0  0  0
   19.0560   20.0239   25.5220 H   0  0  0  0  0  0  0  0  0  0  0  0
   18.0859   18.7591   24.7787 H   0  0  0  0  0  0  0  0  0  0  0  0
   18.9842   20.1303   23.3440 C   0  0  0  0  0  0  0  0  0  0  0  0
   19.2236   21.1996   23.2828 H   0  0  0  0  0  0  0  0  0  0  0  0
   18.2637   19.9284   22.5396 H   0  0  0  0  0  0  0  0  0  0  0  0
   20.2874   19.3343   23.0861 C   0  0  0  0  0  0  0  0  0  0  0  0
   20.7421   19.7165   22.1629 H   0  0  0  0  0  0  0  0  0  0  0  0
   21.0014   19.5443   23.8935 H   0  0  0  0  0  0  0  0  0  0  0  0
   20.0614   17.8031   22.9560 C   0  0  0  0  0  0  0  0  0  0  0  0
   19.2632   17.6160   22.2258 H   0  0  0  0  0  0  0  0  0  0  0  0
   19.7012   17.3993   23.9102 H   0  0  0  0  0  0  0  0  0  0  0  0
   21.3116   16.9966   22.5323 C   0  0  2  0  0  0  0  0  0  0  0  0
   21.0148   15.9450   22.4710 H   0  0  0  0  0  0  0  0  0  0  0  0
   22.4445   17.1013   23.5680 C   0  0  0  0  0  0  0  0  0  0  0  0
   22.8568   18.1163   23.6163 H   0  0  0  0  0  0  0  0  0  0  0  0
   22.0850   16.8280   24.5679 H   0  0  0  0  0  0  0  0  0  0  0  0
   23.2637   16.4187   23.3109 H   0  0  0  0  0  0  0  0  0  0  0  0
   21.8000   17.3710   21.1599 N   0  3  0  0  0  0  0  0  0  0  0  0
   21.0632   17.2629   20.4569 H   0  0  0  0  0  0  0  0  0  0  0  0
   22.5879   16.7845   20.8704 H   0  0  0  0  0  0  0  0  0  0  0  0
   22.1144   18.3440   21.1302 H   0  0  0  0  0  0  0  0  0  0  0  0
  1  2  1  0  0  0  0
  1  3  1  0  0  0  0
  1  4  1  0  0  0  0
  1  5  1  0  0  0  0
  5  6  1  0  0  0  0
  5  7  1  0  0  0  0
  5  8  1  0  0  0  0
  8  9  1  0  0  0  0
  8 10  1  0  0  0  0
  8 11  1  0  0  0  0
 11 12  1  0  0  0  0
 11 13  1  0  0  0  0
 11 14  1  0  0  0  0
 14 15  1  0  0  0  0
 14 16  1  0  0  0  0
 14 17  1  0  0  0  0
 17 18  1  0  0  0  0
 17 19  1  0  0  0  0
 17 20  1  0  0  0  0
 20 21  1  0  0  0  0
 20 22  1  0  0  0  0
 22 23  1  0  0  0  0
 22 24  1  0  0  0  0
 22 25  1  0  0  0  0
 20 26  1  0  0  0  0
 26 27  1  0  0  0  0
 26 28  1  0  0  0  0
 26 29  1  0  0  0  0
M  END
> <VConfSearch Rank>
429

> <Conf_Id>
155

> <Delta U+W>
1.624

> <U+W>
-26.202

> <U>
25.894

> <W>
-52.096

> <W(PB)>
-54.602

> <W(SA)>
2.506

> <Valence>
4.779

> <Coulomb>
19.659

> <VdW>
1.456

> <VdW6>
-9.843

> <VdW12>
11.299

> <Bond>
0.315

> <Angle>
1.725

> <Pdih>
2.740

> <Idih>
0.000

> <Tether>
0.000

$$$$
VeraChem MOL file


 29 28  0  0  0  0  0  0  0  0999 V2000     
   16.6605   17.0687   21.8010 C   0  0  0  0  0  0  0  0  0  0  0  0
   16.9685   17.7894   21.0333 H   0  0  0  0  0  0  0  0  0  0  0  0
   17.4209   16.2790   21.8566 H   0  0  0  0  0  0  0  0  0  0  0  0
   15.7223   16.6087   21.4647 H   0  0  0  0  0  0  0  0  0  0  0  0
   16.4668   17.7511   23.1740 C   0  0  0  0  0  0  0  0  0  0  0  0
   16.0489   17.0185   23.8785 H   0  0  0  0  0  0  0  0  0  0  0  0
   15.7207   18.5532   23.0860 H   0  0  0  0  0  0  0  0  0  0  0  0
   17.7789   18.3188   23.7667 C   0  0  0  0  0  0  0  0  0  0  0  0
   17.5716   18.6932   24.7786 H   0  0  0  0  0  0  0  0  0  0  0  0
   18.5028   17.5013   23.8789 H   0  0  0  0  0  0  0  0  0  0  0  0
   18.3902   19.4622   22.9178 C   0  0  0  0  0  0  0  0  0  0  0  0
   17.6081   20.2038   22.7040 H   0  0  0  0  0  0  0  0  0  0  0  0
   18.7226   19.0740   21.9460 H   0  0  0  0  0  0  0  0  0  0  0  0
   19.5729   20.1845   23.6093 C   0  0  0  0  0  0  0  0  0  0  0  0
   19.8403   21.0539   22.9954 H   0  0  0  0  0  0  0  0  0  0  0  0
   19.2453   20.5799   24.5807 H   0  0  0  0  0  0  0  0  0  0  0  0
   20.8190   19.2820   23.8047 C   0  0  0  0  0  0  0  0  0  0  0  0
   21.1536   18.8963   22.8325 H   0  0  0  0  0  0  0  0  0  0  0  0
   20.5370   18.4093   24.4060 H   0  0  0  0  0  0  0  0  0  0  0  0
   21.9952   19.9900   24.5157 C   0  0  2  0  0  0  0  0  0  0  0  0
   21.6233   20.4176   25.4519 H   0  0  0  0  0  0  0  0  0  0  0  0
   22.5937   21.1245   23.6645 C   0  0  0  0  0  0  0  0  0  0  0  0
   22.9198   20.7554   22.6841 H   0  0  0  0  0  0  0  0  0  0  0  0
   21.8685   21.9305   23.5051 H   0  0  0  0  0  0  0  0  0  0  0  0
   23.4626   21.5669   24.1671 H   0  0  0  0  0  0  0  0  0  0  0  0
   23.0681   19.0075   24.8958 N   0  3  0  0  0  0  0  0  0  0  0  0
   22.7035   18.2661   25.5009 H   0  0  0  0  0  0  0  0  0  0  0  0
   23.8319   19.4652   25.4016 H   0  0  0  0  0  0  0  0  0  0  0  0
   23.4741   18.5593   24.0700 H   0  0  0  0  0  0  0  0  0  0  0  0
  1  2  1  0  0  0  0
  1  3  1  0  0  0  0
  1  4  1  0  0  0  0
  1  5  1  0  0  0  0
  5  6  1  0  0  0  0
  5  7  1  0  0  0  0
  5  8  1  0  0  0  0
  8  9  1  0  0  0  0
  8 10  1  0  0  0  0
  8 11  1  0  0  0  0
 11 12  1  0  0  0  0
 11 13  1  0  0  0  0
 11 14  1  0  0  0  0
 14 15  1  0  0  0  0
 14 16  1  0  0  0  0
 14 17  1  0  0  0  0
 17 18  1  0  0  0  0
 17 19  1  0  0  0  0
 17 20  1  0  0  0  0
 20 21  1  0  0  0  0
 20 22  1  0  0  0  0
 22 23  1  0  0  0  0
 22 24  1  0  0  0  0
 22 25  1  0  0  0  0
 20 26  1  0  0  0  0
 26 27  1  0  0  0  0
 26 28  1  0  0  0  0
 26 29  1  0  0  0  0
M  END
> <VConfSearch Rank>
430

> <Conf_Id>
135

> <Delta U+W>
1.581

> <U+W>
-26.245

> <U>
25.974

> <W>
-52.219

> <W(PB)>
-54.709

> <W(SA)>
2.490

> <Valence>
4.811

> <Coulomb>
19.700

> <VdW>
1.463

> <VdW6>
-9.391

> <VdW12>
10.854

> <Bond>
0.285

> <Angle>
1.671

> <Pdih>
2.855

> <Idih>
0.000

> <Tether>
0.000

$$$$
VeraChem MOL file


 29 28  0  0  0  0  0  0  0  0999 V2000     
   22.8575   19.2357   20.9066 C   0  0  0  0  0  0  0  0  0  0  0  0
   22.0827   18.7584   20.2927 H   0  0  0  0  0  0  0  0  0  0  0  0
   22.6175   20.3025   20.9955 H   0  0  0  0  0  0  0  0  0  0  0  0
   23.8102   19.1553   20.3674 H   0  0  0  0  0  0  0  0  0  0  0  0
   22.9618   18.5606   22.2929 C   0  0  0  0  0  0  0  0  0  0  0  0
   23.7243   19.0723   22.8966 H   0  0  0  0  0  0  0  0  0  0  0  0
   23.3167   17.5291   22.1593 H   0  0  0  0  0  0  0  0  0  0  0  0
   21.6192   18.5289   23.0620 C   0  0  0  0  0  0  0  0  0  0  0  0
   20.8746   17.9898   22.4616 H   0  0  0  0  0  0  0  0  0  0  0  0
   21.7580   17.9461   23.9830 H   0  0  0  0  0  0  0  0  0  0  0  0
   21.0889   19.9379   23.4287 C   0  0  0  0  0  0  0  0  0  0  0  0
   20.8322   20.4928   22.5166 H   0  0  0  0  0  0  0  0  0  0  0  0
   21.8899   20.5054   23.9219 H   0  0  0  0  0  0  0  0  0  0  0  0
   19.8586   19.9051   24.3681 C   0  0  0  0  0  0  0  0  0  0  0  0
   20.1302   19.3851   25.2961 H   0  0  0  0  0  0  0  0  0  0  0  0
   19.6078   20.9368   24.6512 H   0  0  0  0  0  0  0  0  0  0  0  0
   18.6138   19.2401   23.7261 C   0  0  0  0  0  0  0  0  0  0  0  0
   18.8011   18.1717   23.5596 H   0  0  0  0  0  0  0  0  0  0  0  0
   18.4490   19.6875   22.7370 H   0  0  0  0  0  0  0  0  0  0  0  0
   17.3237   19.4076   24.5607 C   0  0  2  0  0  0  0  0  0  0  0  0
   17.1720   20.4751   24.7476 H   0  0  0  0  0  0  0  0  0  0  0  0
   17.4132   18.6835   25.9159 C   0  0  0  0  0  0  0  0  0  0  0  0
   17.6247   17.6153   25.7819 H   0  0  0  0  0  0  0  0  0  0  0  0
   18.2002   19.1134   26.5463 H   0  0  0  0  0  0  0  0  0  0  0  0
   16.4693   18.7768   26.4669 H   0  0  0  0  0  0  0  0  0  0  0  0
   16.1180   18.9352   23.7968 N   0  3  0  0  0  0  0  0  0  0  0  0
   15.2565   19.0811   24.3308 H   0  0  0  0  0  0  0  0  0  0  0  0
   16.1789   17.9363   23.5821 H   0  0  0  0  0  0  0  0  0  0  0  0
   16.0143   19.4353   22.9091 H   0  0  0  0  0  0  0  0  0  0  0  0
  1  2  1  0  0  0  0
  1  3  1  0  0  0  0
  1  4  1  0  0  0  0
  1  5  1  0  0  0  0
  5  6  1  0  0  0  0
  5  7  1  0  0  0  0
  5  8  1  0  0  0  0
  8  9  1  0  0  0  0
  8 10  1  0  0  0  0
  8 11  1  0  0  0  0
 11 12  1  0  0  0  0
 11 13  1  0  0  0  0
 11 14  1  0  0  0  0
 14 15  1  0  0  0  0
 14 16  1  0  0  0  0
 14 17  1  0  0  0  0
 17 18  1  0  0  0  0
 17 19  1  0  0  0  0
 17 20  1  0  0  0  0
 20 21  1  0  0  0  0
 20 22  1  0  0  0  0
 22 23  1  0  0  0  0
 22 24  1  0  0  0  0
 22 25  1  0  0  0  0
 20 26  1  0  0  0  0
 26 27  1  0  0  0  0
 26 28  1  0  0  0  0
 26 29  1  0  0  0  0
M  END
> <VConfSearch Rank>
431

> <Conf_Id>
130

> <Delta U+W>
1.359

> <U+W>
-26.467

> <U>
25.687

> <W>
-52.154

> <W(PB)>
-54.643

> <W(SA)>
2.489

> <Valence>
4.682

> <Coulomb>
19.653

> <VdW>
1.352

> <VdW6>
-9.477

> <VdW12>
10.829

> <Bond>
0.274

> <Angle>
1.550

> <Pdih>
2.858

> <Idih>
0.000

> <Tether>
0.000

$$$$
VeraChem MOL file


 29 28  0  0  0  0  0  0  0  0999 V2000     
   17.4068   22.1922   24.5942 C   0  0  0  0  0  0  0  0  0  0  0  0
   16.4564   22.7079   24.4050 H   0  0  0  0  0  0  0  0  0  0  0  0
   17.7332   22.4516   25.6097 H   0  0  0  0  0  0  0  0  0  0  0  0
   18.1432   22.5880   23.8840 H   0  0  0  0  0  0  0  0  0  0  0  0
   17.2326   20.6643   24.4398 C   0  0  0  0  0  0  0  0  0  0  0  0
   16.9386   20.4282   23.4075 H   0  0  0  0  0  0  0  0  0  0  0  0
   16.4004   20.3373   25.0787 H   0  0  0  0  0  0  0  0  0  0  0  0
   18.4971   19.8572   24.8211 C   0  0  0  0  0  0  0  0  0  0  0  0
   18.7753   20.0835   25.8596 H   0  0  0  0  0  0  0  0  0  0  0  0
   18.2412   18.7905   24.7983 H   0  0  0  0  0  0  0  0  0  0  0  0
   19.7048   20.1280   23.8877 C   0  0  0  0  0  0  0  0  0  0  0  0
   19.9927   21.1839   23.9721 H   0  0  0  0  0  0  0  0  0  0  0  0
   19.4063   19.9729   22.8439 H   0  0  0  0  0  0  0  0  0  0  0  0
   20.9461   19.2642   24.2321 C   0  0  0  0  0  0  0  0  0  0  0  0
   21.8374   19.6949   23.7552 H   0  0  0  0  0  0  0  0  0  0  0  0
   21.1293   19.3378   25.3130 H   0  0  0  0  0  0  0  0  0  0  0  0
   20.8252   17.7652   23.8408 C   0  0  0  0  0  0  0  0  0  0  0  0
   19.7770   17.4435   23.8373 H   0  0  0  0  0  0  0  0  0  0  0  0
   21.3159   17.1748   24.6258 H   0  0  0  0  0  0  0  0  0  0  0  0
   21.4913   17.3948   22.4940 C   0  0  2  0  0  0  0  0  0  0  0  0
   22.5439   17.6902   22.5418 H   0  0  0  0  0  0  0  0  0  0  0  0
   20.8453   18.1098   21.2953 C   0  0  0  0  0  0  0  0  0  0  0  0
   21.0048   19.1928   21.3507 H   0  0  0  0  0  0  0  0  0  0  0  0
   21.2906   17.7659   20.3536 H   0  0  0  0  0  0  0  0  0  0  0  0
   19.7660   17.9178   21.2523 H   0  0  0  0  0  0  0  0  0  0  0  0
   21.4803   15.9069   22.2783 N   0  3  0  0  0  0  0  0  0  0  0  0
   21.9480   15.4114   23.0428 H   0  0  0  0  0  0  0  0  0  0  0  0
   21.9608   15.6514   21.4108 H   0  0  0  0  0  0  0  0  0  0  0  0
   20.5247   15.5453   22.2160 H   0  0  0  0  0  0  0  0  0  0  0  0
  1  2  1  0  0  0  0
  1  3  1  0  0  0  0
  1  4  1  0  0  0  0
  1  5  1  0  0  0  0
  5  6  1  0  0  0  0
  5  7  1  0  0  0  0
  5  8  1  0  0  0  0
  8  9  1  0  0  0  0
  8 10  1  0  0  0  0
  8 11  1  0  0  0  0
 11 12  1  0  0  0  0
 11 13  1  0  0  0  0
 11 14  1  0  0  0  0
 14 15  1  0  0  0  0
 14 16  1  0  0  0  0
 14 17  1  0  0  0  0
 17 18  1  0  0  0  0
 17 19  1  0  0  0  0
 17 20  1  0  0  0  0
 20 21  1  0  0  0  0
 20 22  1  0  0  0  0
 22 23  1  0  0  0  0
 22 24  1  0  0  0  0
 22 25  1  0  0  0  0
 20 26  1  0  0  0  0
 26 27  1  0  0  0  0
 26 28  1  0  0  0  0
 26 29  1  0  0  0  0
M  END
> <VConfSearch Rank>
432

> <Conf_Id>
157

> <Delta U+W>
4.354

> <U+W>
-23.472

> <U>
28.780

> <W>
-52.252

> <W(PB)>
-54.715

> <W(SA)>
2.462

> <Valence>
7.566

> <Coulomb>
19.822

> <VdW>
1.392

> <VdW6>
-10.248

> <VdW12>
11.641

> <Bond>
0.340

> <Angle>
2.096

> <Pdih>
5.129

> <Idih>
0.000

> <Tether>
0.000

$$$$
VeraChem MOL file


 29 28  0  0  0  0  0  0  0  0999 V2000     
   19.6766   22.5722   24.9174 C   0  0  0  0  0  0  0  0  0  0  0  0
   19.0803   23.2613   25.5293 H   0  0  0  0  0  0  0  0  0  0  0  0
   19.8012   21.6448   25.4873 H   0  0  0  0  0  0  0  0  0  0  0  0
   20.6692   23.0210   24.7823 H   0  0  0  0  0  0  0  0  0  0  0  0
   18.9912   22.3295   23.5525 C   0  0  0  0  0  0  0  0  0  0  0  0
   18.8849   23.3010   23.0498 H   0  0  0  0  0  0  0  0  0  0  0  0
   17.9695   21.9522   23.6993 H   0  0  0  0  0  0  0  0  0  0  0  0
   19.7897   21.3777   22.6250 C   0  0  0  0  0  0  0  0  0  0  0  0
   19.6773   21.7344   21.5918 H   0  0  0  0  0  0  0  0  0  0  0  0
   20.8639   21.4453   22.8453 H   0  0  0  0  0  0  0  0  0  0  0  0
   19.3310   19.8969   22.6587 C   0  0  0  0  0  0  0  0  0  0  0  0
   19.9184   19.3481   21.9114 H   0  0  0  0  0  0  0  0  0  0  0  0
   18.2840   19.8329   22.3318 H   0  0  0  0  0  0  0  0  0  0  0  0
   19.4793   19.2158   24.0415 C   0  0  0  0  0  0  0  0  0  0  0  0
   20.5029   19.3483   24.4159 H   0  0  0  0  0  0  0  0  0  0  0  0
   18.8191   19.7164   24.7611 H   0  0  0  0  0  0  0  0  0  0  0  0
   19.1075   17.7105   24.0266 C   0  0  0  0  0  0  0  0  0  0  0  0
   18.0555   17.6094   23.7282 H   0  0  0  0  0  0  0  0  0  0  0  0
   19.1746   17.3173   25.0497 H   0  0  0  0  0  0  0  0  0  0  0  0
   19.9816   16.8450   23.0913 C   0  0  2  0  0  0  0  0  0  0  0  0
   19.8808   17.2274   22.0715 H   0  0  0  0  0  0  0  0  0  0  0  0
   19.4966   15.3868   23.1044 C   0  0  0  0  0  0  0  0  0  0  0  0
   19.5826   14.9484   24.1066 H   0  0  0  0  0  0  0  0  0  0  0  0
   18.4467   15.3228   22.7924 H   0  0  0  0  0  0  0  0  0  0  0  0
   20.0876   14.7748   22.4118 H   0  0  0  0  0  0  0  0  0  0  0  0
   21.4428   16.9204   23.4392 N   0  3  0  0  0  0  0  0  0  0  0  0
   21.7847   17.8843   23.3954 H   0  0  0  0  0  0  0  0  0  0  0  0
   22.0108   16.3621   22.7955 H   0  0  0  0  0  0  0  0  0  0  0  0
   21.6189   16.5724   24.3854 H   0  0  0  0  0  0  0  0  0  0  0  0
  1  2  1  0  0  0  0
  1  3  1  0  0  0  0
  1  4  1  0  0  0  0
  1  5  1  0  0  0  0
  5  6  1  0  0  0  0
  5  7  1  0  0  0  0
  5  8  1  0  0  0  0
  8  9  1  0  0  0  0
  8 10  1  0  0  0  0
  8 11  1  0  0  0  0
 11 12  1  0  0  0  0
 11 13  1  0  0  0  0
 11 14  1  0  0  0  0
 14 15  1  0  0  0  0
 14 16  1  0  0  0  0
 14 17  1  0  0  0  0
 17 18  1  0  0  0  0
 17 19  1  0  0  0  0
 17 20  1  0  0  0  0
 20 21  1  0  0  0  0
 20 22  1  0  0  0  0
 22 23  1  0  0  0  0
 22 24  1  0  0  0  0
 22 25  1  0  0  0  0
 20 26  1  0  0  0  0
 26 27  1  0  0  0  0
 26 28  1  0  0  0  0
 26 29  1  0  0  0  0
M  END
> <VConfSearch Rank>
433

> <Conf_Id>
158

> <Delta U+W>
3.648

> <U+W>
-24.178

> <U>
28.057

> <W>
-52.235

> <W(PB)>
-54.696

> <W(SA)>
2.460

> <Valence>
6.543

> <Coulomb>
20.387

> <VdW>
1.127

> <VdW6>
-10.342

> <VdW12>
11.469

> <Bond>
0.308

> <Angle>
1.938

> <Pdih>
4.297

> <Idih>
0.000

> <Tether>
0.000

$$$$
VeraChem MOL file


 29 28  0  0  0  0  0  0  0  0999 V2000     
   17.4391   19.4065   20.6994 C   0  0  0  0  0  0  0  0  0  0  0  0
   16.6227   19.1808   21.3977 H   0  0  0  0  0  0  0  0  0  0  0  0
   18.0109   20.2527   21.1000 H   0  0  0  0  0  0  0  0  0  0  0  0
   16.9902   19.7312   19.7518 H   0  0  0  0  0  0  0  0  0  0  0  0
   18.3373   18.1687   20.4758 C   0  0  0  0  0  0  0  0  0  0  0  0
   19.1640   18.4289   19.8000 H   0  0  0  0  0  0  0  0  0  0  0  0
   17.7511   17.3948   19.9607 H   0  0  0  0  0  0  0  0  0  0  0  0
   18.9014   17.5726   21.7880 C   0  0  0  0  0  0  0  0  0  0  0  0
   18.0706   17.2977   22.4523 H   0  0  0  0  0  0  0  0  0  0  0  0
   19.4280   16.6384   21.5487 H   0  0  0  0  0  0  0  0  0  0  0  0
   19.8705   18.5233   22.5304 C   0  0  0  0  0  0  0  0  0  0  0  0
   19.3402   19.4366   22.8214 H   0  0  0  0  0  0  0  0  0  0  0  0
   20.6737   18.8308   21.8469 H   0  0  0  0  0  0  0  0  0  0  0  0
   20.4901   17.8475   23.7783 C   0  0  0  0  0  0  0  0  0  0  0  0
   19.7009   17.4644   24.4400 H   0  0  0  0  0  0  0  0  0  0  0  0
   21.0583   16.9682   23.4443 H   0  0  0  0  0  0  0  0  0  0  0  0
   21.4456   18.7777   24.5720 C   0  0  0  0  0  0  0  0  0  0  0  0
   21.8888   19.5283   23.9042 H   0  0  0  0  0  0  0  0  0  0  0  0
   22.2837   18.1670   24.9329 H   0  0  0  0  0  0  0  0  0  0  0  0
   20.8088   19.4667   25.8030 C   0  0  2  0  0  0  0  0  0  0  0  0
   20.4232   18.6873   26.4674 H   0  0  0  0  0  0  0  0  0  0  0  0
   19.6432   20.3986   25.4310 C   0  0  0  0  0  0  0  0  0  0  0  0
   19.9525   21.1463   24.6902 H   0  0  0  0  0  0  0  0  0  0  0  0
   18.8000   19.8296   25.0225 H   0  0  0  0  0  0  0  0  0  0  0  0
   19.2741   20.9294   26.3172 H   0  0  0  0  0  0  0  0  0  0  0  0
   21.8430   20.2197   26.5928 N   0  3  0  0  0  0  0  0  0  0  0  0
   22.6070   19.6078   26.8940 H   0  0  0  0  0  0  0  0  0  0  0  0
   21.4383   20.6386   27.4351 H   0  0  0  0  0  0  0  0  0  0  0  0
   22.2548   20.9780   26.0422 H   0  0  0  0  0  0  0  0  0  0  0  0
  1  2  1  0  0  0  0
  1  3  1  0  0  0  0
  1  4  1  0  0  0  0
  1  5  1  0  0  0  0
  5  6  1  0  0  0  0
  5  7  1  0  0  0  0
  5  8  1  0  0  0  0
  8  9  1  0  0  0  0
  8 10  1  0  0  0  0
  8 11  1  0  0  0  0
 11 12  1  0  0  0  0
 11 13  1  0  0  0  0
 11 14  1  0  0  0  0
 14 15  1  0  0  0  0
 14 16  1  0  0  0  0
 14 17  1  0  0  0  0
 17 18  1  0  0  0  0
 17 19  1  0  0  0  0
 17 20  1  0  0  0  0
 20 21  1  0  0  0  0
 20 22  1  0  0  0  0
 22 23  1  0  0  0  0
 22 24  1  0  0  0  0
 22 25  1  0  0  0  0
 20 26  1  0  0  0  0
 26 27  1  0  0  0  0
 26 28  1  0  0  0  0
 26 29  1  0  0  0  0
M  END
> <VConfSearch Rank>
434

> <Conf_Id>
156

> <Delta U+W>
3.393

> <U+W>
-24.433

> <U>
27.713

> <W>
-52.146

> <W(PB)>
-54.603

> <W(SA)>
2.458

> <Valence>
6.758

> <Coulomb>
19.720

> <VdW>
1.235

> <VdW6>
-9.782

> <VdW12>
11.017

> <Bond>
0.287

> <Angle>
1.880

> <Pdih>
4.591

> <Idih>
0.000

> <Tether>
0.000

$$$$
VeraChem MOL file


 29 28  0  0  0  0  0  0  0  0999 V2000     
   17.0447   16.3594   23.3265 C   0  0  0  0  0  0  0  0  0  0  0  0
   17.8808   15.6732   23.1390 H   0  0  0  0  0  0  0  0  0  0  0  0
   16.4649   15.9689   24.1730 H   0  0  0  0  0  0  0  0  0  0  0  0
   16.3959   16.3504   22.4411 H   0  0  0  0  0  0  0  0  0  0  0  0
   17.5539   17.7876   23.6142 C   0  0  0  0  0  0  0  0  0  0  0  0
   16.6960   18.4568   23.7684 H   0  0  0  0  0  0  0  0  0  0  0  0
   18.0930   18.1575   22.7321 H   0  0  0  0  0  0  0  0  0  0  0  0
   18.4749   17.8250   24.8563 C   0  0  0  0  0  0  0  0  0  0  0  0
   17.9425   17.3799   25.7081 H   0  0  0  0  0  0  0  0  0  0  0  0
   19.3534   17.1888   24.6868 H   0  0  0  0  0  0  0  0  0  0  0  0
   18.9222   19.2550   25.2563 C   0  0  0  0  0  0  0  0  0  0  0  0
   19.5491   19.1893   26.1562 H   0  0  0  0  0  0  0  0  0  0  0  0
   18.0359   19.8339   25.5505 H   0  0  0  0  0  0  0  0  0  0  0  0
   19.6907   20.0448   24.1651 C   0  0  0  0  0  0  0  0  0  0  0  0
   19.0315   20.2231   23.3064 H   0  0  0  0  0  0  0  0  0  0  0  0
   19.9286   21.0347   24.5749 H   0  0  0  0  0  0  0  0  0  0  0  0
   20.9982   19.3454   23.7030 C   0  0  0  0  0  0  0  0  0  0  0  0
   20.7572   18.3683   23.2669 H   0  0  0  0  0  0  0  0  0  0  0  0
   21.6294   19.1405   24.5777 H   0  0  0  0  0  0  0  0  0  0  0  0
   21.8274   20.1367   22.6641 C   0  0  2  0  0  0  0  0  0  0  0  0
   22.6832   19.5124   22.3890 H   0  0  0  0  0  0  0  0  0  0  0  0
   22.3803   21.4517   23.2409 C   0  0  0  0  0  0  0  0  0  0  0  0
   23.0775   21.9168   22.5332 H   0  0  0  0  0  0  0  0  0  0  0  0
   21.5813   22.1739   23.4456 H   0  0  0  0  0  0  0  0  0  0  0  0
   22.9269   21.2689   24.1743 H   0  0  0  0  0  0  0  0  0  0  0  0
   21.0661   20.3845   21.3910 N   0  3  0  0  0  0  0  0  0  0  0  0
   20.7355   19.5092   20.9750 H   0  0  0  0  0  0  0  0  0  0  0  0
   21.6488   20.8550   20.6927 H   0  0  0  0  0  0  0  0  0  0  0  0
   20.2484   20.9762   21.5577 H   0  0  0  0  0  0  0  0  0  0  0  0
  1  2  1  0  0  0  0
  1  3  1  0  0  0  0
  1  4  1  0  0  0  0
  1  5  1  0  0  0  0
  5  6  1  0  0  0  0
  5  7  1  0  0  0  0
  5  8  1  0  0  0  0
  8  9  1  0  0  0  0
  8 10  1  0  0  0  0
  8 11  1  0  0  0  0
 11 12  1  0  0  0  0
 11 13  1  0  0  0  0
 11 14  1  0  0  0  0
 14 15  1  0  0  0  0
 14 16  1  0  0  0  0
 14 17  1  0  0  0  0
 17 18  1  0  0  0  0
 17 19  1  0  0  0  0
 17 20  1  0  0  0  0
 20 21  1  0  0  0  0
 20 22  1  0  0  0  0
 22 23  1  0  0  0  0
 22 24  1  0  0  0  0
 22 25  1  0  0  0  0
 20 26  1  0  0  0  0
 26 27  1  0  0  0  0
 26 28  1  0  0  0  0
 26 29  1  0  0  0  0
M  END
> <VConfSearch Rank>
435

> <Conf_Id>
78

> <Delta U+W>
1.477

> <U+W>
-26.349

> <U>
26.385

> <W>
-52.734

> <W(PB)>
-55.179

> <W(SA)>
2.445

> <Valence>
4.726

> <Coulomb>
20.482

> <VdW>
1.177

> <VdW6>
-10.349

> <VdW12>
11.526

> <Bond>
0.319

> <Angle>
1.933

> <Pdih>
2.474

> <Idih>
0.000

> <Tether>
0.000

$$$$
VeraChem MOL file


 29 28  0  0  0  0  0  0  0  0999 V2000     
   21.0581   15.5602   23.6150 C   0  0  0  0  0  0  0  0  0  0  0  0
   20.6334   15.0093   22.7658 H   0  0  0  0  0  0  0  0  0  0  0  0
   21.5923   16.4305   23.2183 H   0  0  0  0  0  0  0  0  0  0  0  0
   21.7967   14.9081   24.0988 H   0  0  0  0  0  0  0  0  0  0  0  0
   19.9526   15.9632   24.6186 C   0  0  0  0  0  0  0  0  0  0  0  0
   20.3949   16.4447   25.5018 H   0  0  0  0  0  0  0  0  0  0  0  0
   19.4751   15.0431   24.9836 H   0  0  0  0  0  0  0  0  0  0  0  0
   18.8619   16.8733   23.9974 C   0  0  0  0  0  0  0  0  0  0  0  0
   18.7667   16.6724   22.9214 H   0  0  0  0  0  0  0  0  0  0  0  0
   17.8939   16.5946   24.4364 H   0  0  0  0  0  0  0  0  0  0  0  0
   19.0632   18.3915   24.2395 C   0  0  0  0  0  0  0  0  0  0  0  0
   19.0481   18.5933   25.3194 H   0  0  0  0  0  0  0  0  0  0  0  0
   18.1953   18.9147   23.8177 H   0  0  0  0  0  0  0  0  0  0  0  0
   20.3640   18.9668   23.6272 C   0  0  0  0  0  0  0  0  0  0  0  0
   21.2285   18.4978   24.1138 H   0  0  0  0  0  0  0  0  0  0  0  0
   20.4271   18.7006   22.5640 H   0  0  0  0  0  0  0  0  0  0  0  0
   20.4985   20.5018   23.8033 C   0  0  0  0  0  0  0  0  0  0  0  0
   21.4597   20.8244   23.3817 H   0  0  0  0  0  0  0  0  0  0  0  0
   20.5477   20.7243   24.8774 H   0  0  0  0  0  0  0  0  0  0  0  0
   19.3616   21.3421   23.1747 C   0  0  2  0  0  0  0  0  0  0  0  0
   18.4120   21.0252   23.6155 H   0  0  0  0  0  0  0  0  0  0  0  0
   19.2772   21.1541   21.6496 C   0  0  0  0  0  0  0  0  0  0  0  0
   18.4990   21.7989   21.2230 H   0  0  0  0  0  0  0  0  0  0  0  0
   20.2296   21.4038   21.1657 H   0  0  0  0  0  0  0  0  0  0  0  0
   19.0200   20.1204   21.3904 H   0  0  0  0  0  0  0  0  0  0  0  0
   19.5157   22.7989   23.5125 N   0  3  0  0  0  0  0  0  0  0  0  0
   20.3847   23.1814   23.1299 H   0  0  0  0  0  0  0  0  0  0  0  0
   19.5317   22.9516   24.5250 H   0  0  0  0  0  0  0  0  0  0  0  0
   18.7441   23.3547   23.1326 H   0  0  0  0  0  0  0  0  0  0  0  0
  1  2  1  0  0  0  0
  1  3  1  0  0  0  0
  1  4  1  0  0  0  0
  1  5  1  0  0  0  0
  5  6  1  0  0  0  0
  5  7  1  0  0  0  0
  5  8  1  0  0  0  0
  8  9  1  0  0  0  0
  8 10  1  0  0  0  0
  8 11  1  0  0  0  0
 11 12  1  0  0  0  0
 11 13  1  0  0  0  0
 11 14  1  0  0  0  0
 14 15  1  0  0  0  0
 14 16  1  0  0  0  0
 14 17  1  0  0  0  0
 17 18  1  0  0  0  0
 17 19  1  0  0  0  0
 17 20  1  0  0  0  0
 20 21  1  0  0  0  0
 20 22  1  0  0  0  0
 22 23  1  0  0  0  0
 22 24  1  0  0  0  0
 22 25  1  0  0  0  0
 20 26  1  0  0  0  0
 26 27  1  0  0  0  0
 26 28  1  0  0  0  0
 26 29  1  0  0  0  0
M  END
> <VConfSearch Rank>
436

> <Conf_Id>
145

> <Delta U+W>
3.784

> <U+W>
-24.042

> <U>
28.220

> <W>
-52.262

> <W(PB)>
-54.724

> <W(SA)>
2.462

> <Valence>
7.040

> <Coulomb>
19.984

> <VdW>
1.197

> <VdW6>
-10.566

> <VdW12>
11.763

> <Bond>
0.320

> <Angle>
2.280

> <Pdih>
4.439

> <Idih>
0.000

> <Tether>
0.000

$$$$
VeraChem MOL file


 29 28  0  0  0  0  0  0  0  0999 V2000     
   20.6466   22.8354   24.6864 C   0  0  0  0  0  0  0  0  0  0  0  0
   21.6616   23.2014   24.8890 H   0  0  0  0  0  0  0  0  0  0  0  0
   20.4187   23.0263   23.6296 H   0  0  0  0  0  0  0  0  0  0  0  0
   19.9481   23.4256   25.2937 H   0  0  0  0  0  0  0  0  0  0  0  0
   20.5219   21.3333   25.0175 C   0  0  0  0  0  0  0  0  0  0  0  0
   19.4876   21.0120   24.8456 H   0  0  0  0  0  0  0  0  0  0  0  0
   20.7218   21.1809   26.0873 H   0  0  0  0  0  0  0  0  0  0  0  0
   21.5068   20.4815   24.1808 C   0  0  0  0  0  0  0  0  0  0  0  0
   21.3660   20.6744   23.1084 H   0  0  0  0  0  0  0  0  0  0  0  0
   22.5280   20.8121   24.4159 H   0  0  0  0  0  0  0  0  0  0  0  0
   21.4044   18.9608   24.4682 C   0  0  0  0  0  0  0  0  0  0  0  0
   21.0515   18.7891   25.4944 H   0  0  0  0  0  0  0  0  0  0  0  0
   22.4176   18.5371   24.4300 H   0  0  0  0  0  0  0  0  0  0  0  0
   20.5295   18.1672   23.4637 C   0  0  0  0  0  0  0  0  0  0  0  0
   20.9624   18.2636   22.4592 H   0  0  0  0  0  0  0  0  0  0  0  0
   20.5989   17.1045   23.7281 H   0  0  0  0  0  0  0  0  0  0  0  0
   19.0399   18.6026   23.4378 C   0  0  0  0  0  0  0  0  0  0  0  0
   18.9731   19.6394   23.0866 H   0  0  0  0  0  0  0  0  0  0  0  0
   18.6391   18.5956   24.4599 H   0  0  0  0  0  0  0  0  0  0  0  0
   18.1245   17.7403   22.5368 C   0  0  2  0  0  0  0  0  0  0  0  0
   17.1308   18.1986   22.5516 H   0  0  0  0  0  0  0  0  0  0  0  0
   17.9776   16.3020   23.0639 C   0  0  0  0  0  0  0  0  0  0  0  0
   17.2149   15.7607   22.4908 H   0  0  0  0  0  0  0  0  0  0  0  0
   18.9159   15.7407   22.9836 H   0  0  0  0  0  0  0  0  0  0  0  0
   17.6651   16.3019   24.1155 H   0  0  0  0  0  0  0  0  0  0  0  0
   18.5646   17.7453   21.0988 N   0  3  0  0  0  0  0  0  0  0  0  0
   19.4890   17.3198   20.9930 H   0  0  0  0  0  0  0  0  0  0  0  0
   18.6182   18.6975   20.7260 H   0  0  0  0  0  0  0  0  0  0  0  0
   17.9146   17.2203   20.5068 H   0  0  0  0  0  0  0  0  0  0  0  0
  1  2  1  0  0  0  0
  1  3  1  0  0  0  0
  1  4  1  0  0  0  0
  1  5  1  0  0  0  0
  5  6  1  0  0  0  0
  5  7  1  0  0  0  0
  5  8  1  0  0  0  0
  8  9  1  0  0  0  0
  8 10  1  0  0  0  0
  8 11  1  0  0  0  0
 11 12  1  0  0  0  0
 11 13  1  0  0  0  0
 11 14  1  0  0  0  0
 14 15  1  0  0  0  0
 14 16  1  0  0  0  0
 14 17  1  0  0  0  0
 17 18  1  0  0  0  0
 17 19  1  0  0  0  0
 17 20  1  0  0  0  0
 20 21  1  0  0  0  0
 20 22  1  0  0  0  0
 22 23  1  0  0  0  0
 22 24  1  0  0  0  0
 22 25  1  0  0  0  0
 20 26  1  0  0  0  0
 26 27  1  0  0  0  0
 26 28  1  0  0  0  0
 26 29  1  0  0  0  0
M  END
> <VConfSearch Rank>
437

> <Conf_Id>
71

> <Delta U+W>
3.542

> <U+W>
-24.284

> <U>
28.217

> <W>
-52.501

> <W(PB)>
-54.947

> <W(SA)>
2.446

> <Valence>
6.821

> <Coulomb>
20.147

> <VdW>
1.249

> <VdW6>
-10.237

> <VdW12>
11.486

> <Bond>
0.317

> <Angle>
1.990

> <Pdih>
4.515

> <Idih>
0.000

> <Tether>
0.000

$$$$
VeraChem MOL file


 29 28  0  0  0  0  0  0  0  0999 V2000     
   19.8410   16.4091   20.6514 C   0  0  0  0  0  0  0  0  0  0  0  0
   20.8335   16.8438   20.4744 H   0  0  0  0  0  0  0  0  0  0  0  0
   19.9645   15.3308   20.8166 H   0  0  0  0  0  0  0  0  0  0  0  0
   19.2462   16.5443   19.7387 H   0  0  0  0  0  0  0  0  0  0  0  0
   19.1494   17.0796   21.8570 C   0  0  0  0  0  0  0  0  0  0  0  0
   18.1474   16.6469   21.9860 H   0  0  0  0  0  0  0  0  0  0  0  0
   19.0030   18.1445   21.6401 H   0  0  0  0  0  0  0  0  0  0  0  0
   19.9654   16.8922   23.1587 C   0  0  0  0  0  0  0  0  0  0  0  0
   20.0579   15.8142   23.3505 H   0  0  0  0  0  0  0  0  0  0  0  0
   20.9905   17.2648   23.0258 H   0  0  0  0  0  0  0  0  0  0  0  0
   19.3126   17.5565   24.3990 C   0  0  0  0  0  0  0  0  0  0  0  0
   19.4982   16.9113   25.2688 H   0  0  0  0  0  0  0  0  0  0  0  0
   18.2205   17.5898   24.2841 H   0  0  0  0  0  0  0  0  0  0  0  0
   19.8572   18.9673   24.7414 C   0  0  0  0  0  0  0  0  0  0  0  0
   19.3838   19.2946   25.6762 H   0  0  0  0  0  0  0  0  0  0  0  0
   20.9324   18.8917   24.9512 H   0  0  0  0  0  0  0  0  0  0  0  0
   19.6107   20.0281   23.6361 C   0  0  0  0  0  0  0  0  0  0  0  0
   18.5555   19.9998   23.3348 H   0  0  0  0  0  0  0  0  0  0  0  0
   20.1948   19.7671   22.7448 H   0  0  0  0  0  0  0  0  0  0  0  0
   19.9678   21.4789   24.0370 C   0  0  2  0  0  0  0  0  0  0  0  0
   19.7479   22.1176   23.1759 H   0  0  0  0  0  0  0  0  0  0  0  0
   21.4629   21.6361   24.3641 C   0  0  0  0  0  0  0  0  0  0  0  0
   22.0836   21.2620   23.5405 H   0  0  0  0  0  0  0  0  0  0  0  0
   21.7134   22.6932   24.5159 H   0  0  0  0  0  0  0  0  0  0  0  0
   21.7373   21.0924   25.2760 H   0  0  0  0  0  0  0  0  0  0  0  0
   19.1129   21.9913   25.1633 N   0  3  0  0  0  0  0  0  0  0  0  0
   18.1163   21.9299   24.9360 H   0  0  0  0  0  0  0  0  0  0  0  0
   19.3193   22.9722   25.3731 H   0  0  0  0  0  0  0  0  0  0  0  0
   19.2673   21.4550   26.0205 H   0  0  0  0  0  0  0  0  0  0  0  0
  1  2  1  0  0  0  0
  1  3  1  0  0  0  0
  1  4  1  0  0  0  0
  1  5  1  0  0  0  0
  5  6  1  0  0  0  0
  5  7  1  0  0  0  0
  5  8  1  0  0  0  0
  8  9  1  0  0  0  0
  8 10  1  0  0  0  0
  8 11  1  0  0  0  0
 11 12  1  0  0  0  0
 11 13  1  0  0  0  0
 11 14  1  0  0  0  0
 14 15  1  0  0  0  0
 14 16  1  0  0  0  0
 14 17  1  0  0  0  0
 17 18  1  0  0  0  0
 17 19  1  0  0  0  0
 17 20  1  0  0  0  0
 20 21  1  0  0  0  0
 20 22  1  0  0  0  0
 22 23  1  0  0  0  0
 22 24  1  0  0  0  0
 22 25  1  0  0  0  0
 20 26  1  0  0  0  0
 26 27  1  0  0  0  0
 26 28  1  0  0  0  0
 26 29  1  0  0  0  0
M  END
> <VConfSearch Rank>
438

> <Conf_Id>
163

> <Delta U+W>
3.309

> <U+W>
-24.517

> <U>
27.916

> <W>
-52.433

> <W(PB)>
-54.866

> <W(SA)>
2.433

> <Valence>
6.693

> <Coulomb>
20.015

> <VdW>
1.208

> <VdW6>
-10.294

> <VdW12>
11.503

> <Bond>
0.312

> <Angle>
1.939

> <Pdih>
4.441

> <Idih>
0.000

> <Tether>
0.000

$$$$
VeraChem MOL file


 29 28  0  0  0  0  0  0  0  0999 V2000     
   17.2792   19.7424   26.5385 C   0  0  0  0  0  0  0  0  0  0  0  0
   17.5303   20.7516   26.8900 H   0  0  0  0  0  0  0  0  0  0  0  0
   16.6111   19.8351   25.6736 H   0  0  0  0  0  0  0  0  0  0  0  0
   16.7171   19.2395   27.3361 H   0  0  0  0  0  0  0  0  0  0  0  0
   18.5546   18.9421   26.1895 C   0  0  0  0  0  0  0  0  0  0  0  0
   18.2762   17.9500   25.8075 H   0  0  0  0  0  0  0  0  0  0  0  0
   19.1243   18.7670   27.1129 H   0  0  0  0  0  0  0  0  0  0  0  0
   19.4732   19.6574   25.1696 C   0  0  0  0  0  0  0  0  0  0  0  0
   19.7521   20.6467   25.5574 H   0  0  0  0  0  0  0  0  0  0  0  0
   20.4039   19.0810   25.0908 H   0  0  0  0  0  0  0  0  0  0  0  0
   18.8359   19.8068   23.7649 C   0  0  0  0  0  0  0  0  0  0  0  0
   17.9049   20.3825   23.8463 H   0  0  0  0  0  0  0  0  0  0  0  0
   18.5485   18.8185   23.3827 H   0  0  0  0  0  0  0  0  0  0  0  0
   19.7523   20.5285   22.7428 C   0  0  0  0  0  0  0  0  0  0  0  0
   19.2057   20.6440   21.7972 H   0  0  0  0  0  0  0  0  0  0  0  0
   19.9478   21.5499   23.0973 H   0  0  0  0  0  0  0  0  0  0  0  0
   21.1100   19.8282   22.4677 C   0  0  0  0  0  0  0  0  0  0  0  0
   21.7376   19.8921   23.3657 H   0  0  0  0  0  0  0  0  0  0  0  0
   21.6465   20.3855   21.6883 H   0  0  0  0  0  0  0  0  0  0  0  0
   20.9825   18.3490   22.0416 C   0  0  2  0  0  0  0  0  0  0  0  0
   20.4495   17.8089   22.8298 H   0  0  0  0  0  0  0  0  0  0  0  0
   22.3732   17.7153   21.8818 C   0  0  0  0  0  0  0  0  0  0  0  0
   22.2882   16.6545   21.6156 H   0  0  0  0  0  0  0  0  0  0  0  0
   22.9516   18.2194   21.0974 H   0  0  0  0  0  0  0  0  0  0  0  0
   22.9402   17.7790   22.8189 H   0  0  0  0  0  0  0  0  0  0  0  0
   20.1769   18.1856   20.7821 N   0  3  0  0  0  0  0  0  0  0  0  0
   19.2377   18.5784   20.8894 H   0  0  0  0  0  0  0  0  0  0  0  0
   20.0722   17.1989   20.5291 H   0  0  0  0  0  0  0  0  0  0  0  0
   20.6214   18.6600   19.9917 H   0  0  0  0  0  0  0  0  0  0  0  0
  1  2  1  0  0  0  0
  1  3  1  0  0  0  0
  1  4  1  0  0  0  0
  1  5  1  0  0  0  0
  5  6  1  0  0  0  0
  5  7  1  0  0  0  0
  5  8  1  0  0  0  0
  8  9  1  0  0  0  0
  8 10  1  0  0  0  0
  8 11  1  0  0  0  0
 11 12  1  0  0  0  0
 11 13  1  0  0  0  0
 11 14  1  0  0  0  0
 14 15  1  0  0  0  0
 14 16  1  0  0  0  0
 14 17  1  0  0  0  0
 17 18  1  0  0  0  0
 17 19  1  0  0  0  0
 17 20  1  0  0  0  0
 20 21  1  0  0  0  0
 20 22  1  0  0  0  0
 22 23  1  0  0  0  0
 22 24  1  0  0  0  0
 22 25  1  0  0  0  0
 20 26  1  0  0  0  0
 26 27  1  0  0  0  0
 26 28  1  0  0  0  0
 26 29  1  0  0  0  0
M  END
> <VConfSearch Rank>
439

> <Conf_Id>
173

> <Delta U+W>
1.363

> <U+W>
-26.462

> <U>
25.816

> <W>
-52.279

> <W(PB)>
-54.727

> <W(SA)>
2.449

> <Valence>
4.504

> <Coulomb>
20.342

> <VdW>
0.971

> <VdW6>
-10.532

> <VdW12>
11.503

> <Bond>
0.307

> <Angle>
1.715

> <Pdih>
2.481

> <Idih>
0.000

> <Tether>
0.000

$$$$
VeraChem MOL file


 29 28  0  0  0  0  0  0  0  0999 V2000     
   18.6986   22.1489   21.4865 C   0  0  0  0  0  0  0  0  0  0  0  0
   17.7394   22.3371   21.9863 H   0  0  0  0  0  0  0  0  0  0  0  0
   19.2562   23.0938   21.4495 H   0  0  0  0  0  0  0  0  0  0  0  0
   18.4864   21.8426   20.4539 H   0  0  0  0  0  0  0  0  0  0  0  0
   19.5031   21.0578   22.2240 C   0  0  0  0  0  0  0  0  0  0  0  0
   20.4437   20.8728   21.6868 H   0  0  0  0  0  0  0  0  0  0  0  0
   18.9287   20.1222   22.2060 H   0  0  0  0  0  0  0  0  0  0  0  0
   19.8053   21.4618   23.6851 C   0  0  0  0  0  0  0  0  0  0  0  0
   20.2731   22.4560   23.6908 H   0  0  0  0  0  0  0  0  0  0  0  0
   18.8609   21.5659   24.2368 H   0  0  0  0  0  0  0  0  0  0  0  0
   20.7380   20.4813   24.4420 C   0  0  0  0  0  0  0  0  0  0  0  0
   20.9072   20.8952   25.4457 H   0  0  0  0  0  0  0  0  0  0  0  0
   21.7265   20.4550   23.9632 H   0  0  0  0  0  0  0  0  0  0  0  0
   20.1756   19.0445   24.5998 C   0  0  0  0  0  0  0  0  0  0  0  0
   20.4740   18.6672   25.5869 H   0  0  0  0  0  0  0  0  0  0  0  0
   19.0786   19.0788   24.6053 H   0  0  0  0  0  0  0  0  0  0  0  0
   20.6992   18.0618   23.5156 C   0  0  0  0  0  0  0  0  0  0  0  0
   21.7943   18.0149   23.5779 H   0  0  0  0  0  0  0  0  0  0  0  0
   20.4766   18.4464   22.5141 H   0  0  0  0  0  0  0  0  0  0  0  0
   20.1448   16.6217   23.6214 C   0  0  2  0  0  0  0  0  0  0  0  0
   20.6379   16.0263   22.8467 H   0  0  0  0  0  0  0  0  0  0  0  0
   18.6303   16.5657   23.3553 C   0  0  0  0  0  0  0  0  0  0  0  0
   18.3837   17.0482   22.4014 H   0  0  0  0  0  0  0  0  0  0  0  0
   18.2897   15.5246   23.2988 H   0  0  0  0  0  0  0  0  0  0  0  0
   18.0592   17.0614   24.1491 H   0  0  0  0  0  0  0  0  0  0  0  0
   20.4872   15.9671   24.9312 N   0  3  0  0  0  0  0  0  0  0  0  0
   21.4981   15.9604   25.0945 H   0  0  0  0  0  0  0  0  0  0  0  0
   20.1659   14.9952   24.9590 H   0  0  0  0  0  0  0  0  0  0  0  0
   20.0510   16.4575   25.7159 H   0  0  0  0  0  0  0  0  0  0  0  0
  1  2  1  0  0  0  0
  1  3  1  0  0  0  0
  1  4  1  0  0  0  0
  1  5  1  0  0  0  0
  5  6  1  0  0  0  0
  5  7  1  0  0  0  0
  5  8  1  0  0  0  0
  8  9  1  0  0  0  0
  8 10  1  0  0  0  0
  8 11  1  0  0  0  0
 11 12  1  0  0  0  0
 11 13  1  0  0  0  0
 11 14  1  0  0  0  0
 14 15  1  0  0  0  0
 14 16  1  0  0  0  0
 14 17  1  0  0  0  0
 17 18  1  0  0  0  0
 17 19  1  0  0  0  0
 17 20  1  0  0  0  0
 20 21  1  0  0  0  0
 20 22  1  0  0  0  0
 22 23  1  0  0  0  0
 22 24  1  0  0  0  0
 22 25  1  0  0  0  0
 20 26  1  0  0  0  0
 26 27  1  0  0  0  0
 26 28  1  0  0  0  0
 26 29  1  0  0  0  0
M  END
> <VConfSearch Rank>
440

> <Conf_Id>
117

> <Delta U+W>
3.377

> <U+W>
-24.449

> <U>
27.947

> <W>
-52.396

> <W(PB)>
-54.842

> <W(SA)>
2.447

> <Valence>
6.731

> <Coulomb>
20.067

> <VdW>
1.149

> <VdW6>
-10.427

> <VdW12>
11.575

> <Bond>
0.324

> <Angle>
1.943

> <Pdih>
4.465

> <Idih>
0.000

> <Tether>
0.000

$$$$
VeraChem MOL file


 29 28  0  0  0  0  0  0  0  0999 V2000     
   15.6061   16.7543   22.8564 C   0  0  0  0  0  0  0  0  0  0  0  0
   15.9408   15.8910   23.4463 H   0  0  0  0  0  0  0  0  0  0  0  0
   15.0154   17.4079   23.5115 H   0  0  0  0  0  0  0  0  0  0  0  0
   14.9435   16.3841   22.0633 H   0  0  0  0  0  0  0  0  0  0  0  0
   16.8071   17.5130   22.2532 C   0  0  0  0  0  0  0  0  0  0  0  0
   16.4402   18.3494   21.6420 H   0  0  0  0  0  0  0  0  0  0  0  0
   17.3585   16.8443   21.5773 H   0  0  0  0  0  0  0  0  0  0  0  0
   17.7564   18.0451   23.3493 C   0  0  0  0  0  0  0  0  0  0  0  0
   17.2003   18.7110   24.0237 H   0  0  0  0  0  0  0  0  0  0  0  0
   18.1186   17.2057   23.9590 H   0  0  0  0  0  0  0  0  0  0  0  0
   18.9604   18.8055   22.7490 C   0  0  0  0  0  0  0  0  0  0  0  0
   18.5966   19.6437   22.1386 H   0  0  0  0  0  0  0  0  0  0  0  0
   19.5161   18.1388   22.0751 H   0  0  0  0  0  0  0  0  0  0  0  0
   19.9095   19.3383   23.8460 C   0  0  0  0  0  0  0  0  0  0  0  0
   19.3538   20.0077   24.5175 H   0  0  0  0  0  0  0  0  0  0  0  0
   20.2634   18.4961   24.4553 H   0  0  0  0  0  0  0  0  0  0  0  0
   21.1151   20.0985   23.2419 C   0  0  0  0  0  0  0  0  0  0  0  0
   20.7396   20.9015   22.5937 H   0  0  0  0  0  0  0  0  0  0  0  0
   21.6963   19.4232   22.5998 H   0  0  0  0  0  0  0  0  0  0  0  0
   22.0373   20.7160   24.3154 C   0  0  2  0  0  0  0  0  0  0  0  0
   21.4317   21.3646   24.9559 H   0  0  0  0  0  0  0  0  0  0  0  0
   23.1281   21.5732   23.6539 C   0  0  0  0  0  0  0  0  0  0  0  0
   23.7649   22.0446   24.4126 H   0  0  0  0  0  0  0  0  0  0  0  0
   23.7672   20.9670   22.9997 H   0  0  0  0  0  0  0  0  0  0  0  0
   22.6824   22.3735   23.0500 H   0  0  0  0  0  0  0  0  0  0  0  0
   22.6545   19.6769   25.2110 N   0  3  0  0  0  0  0  0  0  0  0  0
   21.9389   19.1265   25.6933 H   0  0  0  0  0  0  0  0  0  0  0  0
   23.2466   20.1054   25.9283 H   0  0  0  0  0  0  0  0  0  0  0  0
   23.2388   19.0260   24.6796 H   0  0  0  0  0  0  0  0  0  0  0  0
  1  2  1  0  0  0  0
  1  3  1  0  0  0  0
  1  4  1  0  0  0  0
  1  5  1  0  0  0  0
  5  6  1  0  0  0  0
  5  7  1  0  0  0  0
  5  8  1  0  0  0  0
  8  9  1  0  0  0  0
  8 10  1  0  0  0  0
  8 11  1  0  0  0  0
 11 12  1  0  0  0  0
 11 13  1  0  0  0  0
 11 14  1  0  0  0  0
 14 15  1  0  0  0  0
 14 16  1  0  0  0  0
 14 17  1  0  0  0  0
 17 18  1  0  0  0  0
 17 19  1  0  0  0  0
 17 20  1  0  0  0  0
 20 21  1  0  0  0  0
 20 22  1  0  0  0  0
 22 23  1  0  0  0  0
 22 24  1  0  0  0  0
 22 25  1  0  0  0  0
 20 26  1  0  0  0  0
 26 27  1  0  0  0  0
 26 28  1  0  0  0  0
 26 29  1  0  0  0  0
M  END
> <VConfSearch Rank>
441

> <Conf_Id>
164

> <Delta U+W>
0.000

> <U+W>
-27.826

> <U>
23.963

> <W>
-51.789

> <W(PB)>
-54.342

> <W(SA)>
2.554

> <Valence>
3.166

> <Coulomb>
19.734

> <VdW>
1.062

> <VdW6>
-7.938

> <VdW12>
9.001

> <Bond>
0.188

> <Angle>
0.880

> <Pdih>
2.098

> <Idih>
0.000

> <Tether>
0.000

$$$$
VeraChem MOL file


 29 28  0  0  0  0  0  0  0  0999 V2000     
   21.3073   23.5916   24.5571 C   0  0  0  0  0  0  0  0  0  0  0  0
   22.3342   23.4368   24.2011 H   0  0  0  0  0  0  0  0  0  0  0  0
   20.7265   24.0410   23.7410 H   0  0  0  0  0  0  0  0  0  0  0  0
   21.3422   24.3136   25.3832 H   0  0  0  0  0  0  0  0  0  0  0  0
   20.6750   22.2625   25.0213 C   0  0  0  0  0  0  0  0  0  0  0  0
   19.6622   22.4542   25.4026 H   0  0  0  0  0  0  0  0  0  0  0  0
   21.2575   21.8547   25.8593 H   0  0  0  0  0  0  0  0  0  0  0  0
   20.6139   21.2276   23.8762 C   0  0  0  0  0  0  0  0  0  0  0  0
   20.0327   21.6407   23.0401 H   0  0  0  0  0  0  0  0  0  0  0  0
   21.6281   21.0409   23.4968 H   0  0  0  0  0  0  0  0  0  0  0  0
   19.9812   19.8953   24.3372 C   0  0  0  0  0  0  0  0  0  0  0  0
   18.9669   20.0827   24.7162 H   0  0  0  0  0  0  0  0  0  0  0  0
   20.5626   19.4842   25.1742 H   0  0  0  0  0  0  0  0  0  0  0  0
   19.9207   18.8600   23.1913 C   0  0  0  0  0  0  0  0  0  0  0  0
   19.3454   19.2836   22.3577 H   0  0  0  0  0  0  0  0  0  0  0  0
   20.9356   18.6689   22.8159 H   0  0  0  0  0  0  0  0  0  0  0  0
   19.2821   17.5276   23.6547 C   0  0  0  0  0  0  0  0  0  0  0  0
   18.2448   17.7037   23.9694 H   0  0  0  0  0  0  0  0  0  0  0  0
   19.8207   17.1725   24.5432 H   0  0  0  0  0  0  0  0  0  0  0  0
   19.3185   16.4136   22.5837 C   0  0  2  0  0  0  0  0  0  0  0  0
   20.3549   16.2859   22.2563 H   0  0  0  0  0  0  0  0  0  0  0  0
   18.4585   16.7608   21.3552 C   0  0  0  0  0  0  0  0  0  0  0  0
   17.4188   16.9612   21.6424 H   0  0  0  0  0  0  0  0  0  0  0  0
   18.8471   17.6423   20.8323 H   0  0  0  0  0  0  0  0  0  0  0  0
   18.4591   15.9319   20.6367 H   0  0  0  0  0  0  0  0  0  0  0  0
   18.8905   15.0930   23.1609 N   0  3  0  0  0  0  0  0  0  0  0  0
   18.9507   14.3437   22.4654 H   0  0  0  0  0  0  0  0  0  0  0  0
   17.9224   15.1255   23.4917 H   0  0  0  0  0  0  0  0  0  0  0  0
   19.4779   14.8200   23.9542 H   0  0  0  0  0  0  0  0  0  0  0  0
  1  2  1  0  0  0  0
  1  3  1  0  0  0  0
  1  4  1  0  0  0  0
  1  5  1  0  0  0  0
  5  6  1  0  0  0  0
  5  7  1  0  0  0  0
  5  8  1  0  0  0  0
  8  9  1  0  0  0  0
  8 10  1  0  0  0  0
  8 11  1  0  0  0  0
 11 12  1  0  0  0  0
 11 13  1  0  0  0  0
 11 14  1  0  0  0  0
 14 15  1  0  0  0  0
 14 16  1  0  0  0  0
 14 17  1  0  0  0  0
 17 18  1  0  0  0  0
 17 19  1  0  0  0  0
 17 20  1  0  0  0  0
 20 21  1  0  0  0  0
 20 22  1  0  0  0  0
 22 23  1  0  0  0  0
 22 24  1  0  0  0  0
 22 25  1  0  0  0  0
 20 26  1  0  0  0  0
 26 27  1  0  0  0  0
 26 28  1  0  0  0  0
 26 29  1  0  0  0  0
M  END
> <VConfSearch Rank>
442

> <Conf_Id>
58

> <Delta U+W>
0.412

> <U+W>
-27.414

> <U>
24.279

> <W>
-51.694

> <W(PB)>
-54.271

> <W(SA)>
2.577

> <Valence>
3.709

> <Coulomb>
19.380

> <VdW>
1.191

> <VdW6>
-8.093

> <VdW12>
9.284

> <Bond>
0.200

> <Angle>
1.161

> <Pdih>
2.348

> <Idih>
0.000

> <Tether>
0.000

$$$$
VeraChem MOL file


 29 28  0  0  0  0  0  0  0  0999 V2000     
   24.1468   19.6387   21.9861 C   0  0  0  0  0  0  0  0  0  0  0  0
   24.2964   20.5487   22.5817 H   0  0  0  0  0  0  0  0  0  0  0  0
   24.4996   18.7823   22.5754 H   0  0  0  0  0  0  0  0  0  0  0  0
   24.7774   19.7145   21.0907 H   0  0  0  0  0  0  0  0  0  0  0  0
   22.6635   19.4695   21.5951 C   0  0  0  0  0  0  0  0  0  0  0  0
   22.5507   18.5708   20.9726 H   0  0  0  0  0  0  0  0  0  0  0  0
   22.3491   20.3236   20.9789 H   0  0  0  0  0  0  0  0  0  0  0  0
   21.7532   19.3604   22.8383 C   0  0  0  0  0  0  0  0  0  0  0  0
   22.0726   18.5067   23.4520 H   0  0  0  0  0  0  0  0  0  0  0  0
   21.8712   20.2597   23.4585 H   0  0  0  0  0  0  0  0  0  0  0  0
   20.2669   19.1911   22.4506 C   0  0  0  0  0  0  0  0  0  0  0  0
   20.1503   18.2919   21.8299 H   0  0  0  0  0  0  0  0  0  0  0  0
   19.9488   20.0450   21.8365 H   0  0  0  0  0  0  0  0  0  0  0  0
   19.3564   19.0821   23.6946 C   0  0  0  0  0  0  0  0  0  0  0  0
   19.6804   18.2283   24.3042 H   0  0  0  0  0  0  0  0  0  0  0  0
   19.4836   19.9822   24.3102 H   0  0  0  0  0  0  0  0  0  0  0  0
   17.8660   18.9159   23.2990 C   0  0  0  0  0  0  0  0  0  0  0  0
   17.7624   18.0411   22.6436 H   0  0  0  0  0  0  0  0  0  0  0  0
   17.5509   19.7807   22.7002 H   0  0  0  0  0  0  0  0  0  0  0  0
   16.8903   18.7531   24.4883 C   0  0  2  0  0  0  0  0  0  0  0  0
   15.8883   18.6155   24.0703 H   0  0  0  0  0  0  0  0  0  0  0  0
   16.8533   20.0048   25.3823 C   0  0  0  0  0  0  0  0  0  0  0  0
   16.0585   19.9162   26.1331 H   0  0  0  0  0  0  0  0  0  0  0  0
   17.8008   20.1519   25.9140 H   0  0  0  0  0  0  0  0  0  0  0  0
   16.6494   20.9034   24.7868 H   0  0  0  0  0  0  0  0  0  0  0  0
   17.1759   17.5198   25.3002 N   0  3  0  0  0  0  0  0  0  0  0  0
   17.1583   16.6761   24.7201 H   0  0  0  0  0  0  0  0  0  0  0  0
   16.4843   17.3938   26.0449 H   0  0  0  0  0  0  0  0  0  0  0  0
   18.0971   17.5715   25.7420 H   0  0  0  0  0  0  0  0  0  0  0  0
  1  2  1  0  0  0  0
  1  3  1  0  0  0  0
  1  4  1  0  0  0  0
  1  5  1  0  0  0  0
  5  6  1  0  0  0  0
  5  7  1  0  0  0  0
  5  8  1  0  0  0  0
  8  9  1  0  0  0  0
  8 10  1  0  0  0  0
  8 11  1  0  0  0  0
 11 12  1  0  0  0  0
 11 13  1  0  0  0  0
 11 14  1  0  0  0  0
 14 15  1  0  0  0  0
 14 16  1  0  0  0  0
 14 17  1  0  0  0  0
 17 18  1  0  0  0  0
 17 19  1  0  0  0  0
 17 20  1  0  0  0  0
 20 21  1  0  0  0  0
 20 22  1  0  0  0  0
 22 23  1  0  0  0  0
 22 24  1  0  0  0  0
 22 25  1  0  0  0  0
 20 26  1  0  0  0  0
 26 27  1  0  0  0  0
 26 28  1  0  0  0  0
 26 29  1  0  0  0  0
M  END
> <VConfSearch Rank>
443

> <Conf_Id>
137

> <Delta U+W>
0.280

> <U+W>
-27.546

> <U>
24.513

> <W>
-52.059

> <W(PB)>
-54.556

> <W(SA)>
2.497

> <Valence>
3.677

> <Coulomb>
19.662

> <VdW>
1.174

> <VdW6>
-8.569

> <VdW12>
9.743

> <Bond>
0.224

> <Angle>
1.211

> <Pdih>
2.243

> <Idih>
0.000

> <Tether>
0.000

$$$$
VeraChem MOL file


 29 28  0  0  0  0  0  0  0  0999 V2000     
   18.3250   15.0889   24.7196 C   0  0  0  0  0  0  0  0  0  0  0  0
   17.5284   15.6739   25.1977 H   0  0  0  0  0  0  0  0  0  0  0  0
   17.9905   14.8164   23.7101 H   0  0  0  0  0  0  0  0  0  0  0  0
   18.4534   14.1621   25.2938 H   0  0  0  0  0  0  0  0  0  0  0  0
   19.6454   15.8863   24.6699 C   0  0  0  0  0  0  0  0  0  0  0  0
   20.4303   15.2631   24.2189 H   0  0  0  0  0  0  0  0  0  0  0  0
   19.9718   16.1157   25.6940 H   0  0  0  0  0  0  0  0  0  0  0  0
   19.4925   17.1965   23.8660 C   0  0  0  0  0  0  0  0  0  0  0  0
   19.1686   16.9616   22.8427 H   0  0  0  0  0  0  0  0  0  0  0  0
   18.6992   17.8032   24.3213 H   0  0  0  0  0  0  0  0  0  0  0  0
   20.8154   17.9986   23.8195 C   0  0  0  0  0  0  0  0  0  0  0  0
   21.6137   17.3451   23.4412 H   0  0  0  0  0  0  0  0  0  0  0  0
   21.1108   18.2874   24.8377 H   0  0  0  0  0  0  0  0  0  0  0  0
   20.7500   19.2583   22.9207 C   0  0  0  0  0  0  0  0  0  0  0  0
   21.7665   19.6634   22.8373 H   0  0  0  0  0  0  0  0  0  0  0  0
   20.4471   18.9697   21.9048 H   0  0  0  0  0  0  0  0  0  0  0  0
   19.7959   20.3558   23.4600 C   0  0  0  0  0  0  0  0  0  0  0  0
   20.1050   20.6518   24.4712 H   0  0  0  0  0  0  0  0  0  0  0  0
   18.7862   19.9380   23.5522 H   0  0  0  0  0  0  0  0  0  0  0  0
   19.7117   21.6068   22.5553 C   0  0  2  0  0  0  0  0  0  0  0  0
   19.4626   21.2808   21.5407 H   0  0  0  0  0  0  0  0  0  0  0  0
   21.0408   22.3822   22.5066 C   0  0  0  0  0  0  0  0  0  0  0  0
   21.3682   22.6721   23.5128 H   0  0  0  0  0  0  0  0  0  0  0  0
   21.8355   21.7856   22.0445 H   0  0  0  0  0  0  0  0  0  0  0  0
   20.9332   23.2952   21.9081 H   0  0  0  0  0  0  0  0  0  0  0  0
   18.5979   22.5171   22.9929 N   0  3  0  0  0  0  0  0  0  0  0  0
   17.6940   22.0358   22.9900 H   0  0  0  0  0  0  0  0  0  0  0  0
   18.5128   23.3282   22.3735 H   0  0  0  0  0  0  0  0  0  0  0  0
   18.7550   22.8715   23.9403 H   0  0  0  0  0  0  0  0  0  0  0  0
  1  2  1  0  0  0  0
  1  3  1  0  0  0  0
  1  4  1  0  0  0  0
  1  5  1  0  0  0  0
  5  6  1  0  0  0  0
  5  7  1  0  0  0  0
  5  8  1  0  0  0  0
  8  9  1  0  0  0  0
  8 10  1  0  0  0  0
  8 11  1  0  0  0  0
 11 12  1  0  0  0  0
 11 13  1  0  0  0  0
 11 14  1  0  0  0  0
 14 15  1  0  0  0  0
 14 16  1  0  0  0  0
 14 17  1  0  0  0  0
 17 18  1  0  0  0  0
 17 19  1  0  0  0  0
 17 20  1  0  0  0  0
 20 21  1  0  0  0  0
 20 22  1  0  0  0  0
 22 23  1  0  0  0  0
 22 24  1  0  0  0  0
 22 25  1  0  0  0  0
 20 26  1  0  0  0  0
 26 27  1  0  0  0  0
 26 28  1  0  0  0  0
 26 29  1  0  0  0  0
M  END
> <VConfSearch Rank>
444

> <Conf_Id>
40

> <Delta U+W>
1.128

> <U+W>
-26.698

> <U>
25.442

> <W>
-52.140

> <W(PB)>
-54.658

> <W(SA)>
2.519

> <Valence>
4.343

> <Coulomb>
19.740

> <VdW>
1.360

> <VdW6>
-8.739

> <VdW12>
10.099

> <Bond>
0.251

> <Angle>
1.483

> <Pdih>
2.608

> <Idih>
0.000

> <Tether>
0.000

$$$$
VeraChem MOL file


 29 28  0  0  0  0  0  0  0  0999 V2000     
   18.2322   15.8126   21.1428 C   0  0  0  0  0  0  0  0  0  0  0  0
   19.1188   16.1055   20.5671 H   0  0  0  0  0  0  0  0  0  0  0  0
   18.5339   15.0567   21.8795 H   0  0  0  0  0  0  0  0  0  0  0  0
   17.5288   15.3394   20.4455 H   0  0  0  0  0  0  0  0  0  0  0  0
   17.5733   17.0289   21.8322 C   0  0  0  0  0  0  0  0  0  0  0  0
   16.6249   16.7062   22.2840 H   0  0  0  0  0  0  0  0  0  0  0  0
   17.3130   17.7855   21.0789 H   0  0  0  0  0  0  0  0  0  0  0  0
   18.4539   17.6676   22.9336 C   0  0  0  0  0  0  0  0  0  0  0  0
   17.8503   18.4231   23.4520 H   0  0  0  0  0  0  0  0  0  0  0  0
   18.7111   16.9072   23.6837 H   0  0  0  0  0  0  0  0  0  0  0  0
   19.7481   18.3217   22.3859 C   0  0  0  0  0  0  0  0  0  0  0  0
   19.4912   19.0862   21.6399 H   0  0  0  0  0  0  0  0  0  0  0  0
   20.3429   17.5644   21.8594 H   0  0  0  0  0  0  0  0  0  0  0  0
   20.6415   18.9482   23.4852 C   0  0  0  0  0  0  0  0  0  0  0  0
   20.8817   18.1877   24.2410 H   0  0  0  0  0  0  0  0  0  0  0  0
   21.5947   19.2353   23.0223 H   0  0  0  0  0  0  0  0  0  0  0  0
   20.0078   20.1863   24.1709 C   0  0  0  0  0  0  0  0  0  0  0  0
   19.0695   19.8926   24.6571 H   0  0  0  0  0  0  0  0  0  0  0  0
   19.7484   20.9383   23.4140 H   0  0  0  0  0  0  0  0  0  0  0  0
   20.9277   20.8200   25.2373 C   0  0  2  0  0  0  0  0  0  0  0  0
   21.2021   20.0439   25.9584 H   0  0  0  0  0  0  0  0  0  0  0  0
   20.1844   21.9359   25.9889 C   0  0  0  0  0  0  0  0  0  0  0  0
   20.8205   22.3672   26.7717 H   0  0  0  0  0  0  0  0  0  0  0  0
   19.8860   22.7427   25.3077 H   0  0  0  0  0  0  0  0  0  0  0  0
   19.2805   21.5454   26.4728 H   0  0  0  0  0  0  0  0  0  0  0  0
   22.2117   21.3445   24.6548 N   0  3  0  0  0  0  0  0  0  0  0  0
   22.0352   22.0778   23.9629 H   0  0  0  0  0  0  0  0  0  0  0  0
   22.7422   20.6028   24.1901 H   0  0  0  0  0  0  0  0  0  0  0  0
   22.8149   21.7447   25.3791 H   0  0  0  0  0  0  0  0  0  0  0  0
  1  2  1  0  0  0  0
  1  3  1  0  0  0  0
  1  4  1  0  0  0  0
  1  5  1  0  0  0  0
  5  6  1  0  0  0  0
  5  7  1  0  0  0  0
  5  8  1  0  0  0  0
  8  9  1  0  0  0  0
  8 10  1  0  0  0  0
  8 11  1  0  0  0  0
 11 12  1  0  0  0  0
 11 13  1  0  0  0  0
 11 14  1  0  0  0  0
 14 15  1  0  0  0  0
 14 16  1  0  0  0  0
 14 17  1  0  0  0  0
 17 18  1  0  0  0  0
 17 19  1  0  0  0  0
 17 20  1  0  0  0  0
 20 21  1  0  0  0  0
 20 22  1  0  0  0  0
 22 23  1  0  0  0  0
 22 24  1  0  0  0  0
 22 25  1  0  0  0  0
 20 26  1  0  0  0  0
 26 27  1  0  0  0  0
 26 28  1  0  0  0  0
 26 29  1  0  0  0  0
M  END
> <VConfSearch Rank>
445

> <Conf_Id>
134

> <Delta U+W>
1.228

> <U+W>
-26.598

> <U>
25.451

> <W>
-52.048

> <W(PB)>
-54.539

> <W(SA)>
2.490

> <Valence>
4.319

> <Coulomb>
19.732

> <VdW>
1.400

> <VdW6>
-9.173

> <VdW12>
10.573

> <Bond>
0.281

> <Angle>
1.459

> <Pdih>
2.580

> <Idih>
0.000

> <Tether>
0.000

$$$$
VeraChem MOL file


 29 28  0  0  0  0  0  0  0  0999 V2000     
   16.5269   19.7153   20.7453 C   0  0  0  0  0  0  0  0  0  0  0  0
   16.9910   18.8408   20.2729 H   0  0  0  0  0  0  0  0  0  0  0  0
   15.7995   19.3609   21.4872 H   0  0  0  0  0  0  0  0  0  0  0  0
   15.9747   20.2560   19.9657 H   0  0  0  0  0  0  0  0  0  0  0  0
   17.5821   20.6371   21.3977 C   0  0  0  0  0  0  0  0  0  0  0  0
   17.0842   21.5549   21.7405 H   0  0  0  0  0  0  0  0  0  0  0  0
   18.3176   20.9500   20.6435 H   0  0  0  0  0  0  0  0  0  0  0  0
   18.3090   19.9895   22.6011 C   0  0  0  0  0  0  0  0  0  0  0  0
   18.9307   20.7596   23.0755 H   0  0  0  0  0  0  0  0  0  0  0  0
   17.5698   19.6806   23.3529 H   0  0  0  0  0  0  0  0  0  0  0  0
   19.1936   18.7790   22.2085 C   0  0  0  0  0  0  0  0  0  0  0  0
   19.9337   19.0885   21.4579 H   0  0  0  0  0  0  0  0  0  0  0  0
   18.5715   18.0115   21.7306 H   0  0  0  0  0  0  0  0  0  0  0  0
   19.9164   18.1267   23.4128 C   0  0  0  0  0  0  0  0  0  0  0  0
   19.1676   17.8070   24.1496 H   0  0  0  0  0  0  0  0  0  0  0  0
   20.4187   17.2139   23.0637 H   0  0  0  0  0  0  0  0  0  0  0  0
   20.9648   19.0532   24.0813 C   0  0  0  0  0  0  0  0  0  0  0  0
   20.4652   19.9018   24.5653 H   0  0  0  0  0  0  0  0  0  0  0  0
   21.6105   19.4734   23.2991 H   0  0  0  0  0  0  0  0  0  0  0  0
   21.8563   18.3307   25.1167 C   0  0  2  0  0  0  0  0  0  0  0  0
   22.3197   17.4681   24.6280 H   0  0  0  0  0  0  0  0  0  0  0  0
   21.0478   17.8291   26.3265 C   0  0  0  0  0  0  0  0  0  0  0  0
   20.5150   18.6533   26.8170 H   0  0  0  0  0  0  0  0  0  0  0  0
   20.3120   17.0733   26.0284 H   0  0  0  0  0  0  0  0  0  0  0  0
   21.7095   17.3633   27.0671 H   0  0  0  0  0  0  0  0  0  0  0  0
   22.9830   19.2150   25.5738 N   0  3  0  0  0  0  0  0  0  0  0  0
   23.5610   19.5261   24.7877 H   0  0  0  0  0  0  0  0  0  0  0  0
   23.5990   18.7264   26.2300 H   0  0  0  0  0  0  0  0  0  0  0  0
   22.6330   20.0515   26.0486 H   0  0  0  0  0  0  0  0  0  0  0  0
  1  2  1  0  0  0  0
  1  3  1  0  0  0  0
  1  4  1  0  0  0  0
  1  5  1  0  0  0  0
  5  6  1  0  0  0  0
  5  7  1  0  0  0  0
  5  8  1  0  0  0  0
  8  9  1  0  0  0  0
  8 10  1  0  0  0  0
  8 11  1  0  0  0  0
 11 12  1  0  0  0  0
 11 13  1  0  0  0  0
 11 14  1  0  0  0  0
 14 15  1  0  0  0  0
 14 16  1  0  0  0  0
 14 17  1  0  0  0  0
 17 18  1  0  0  0  0
 17 19  1  0  0  0  0
 17 20  1  0  0  0  0
 20 21  1  0  0  0  0
 20 22  1  0  0  0  0
 22 23  1  0  0  0  0
 22 24  1  0  0  0  0
 22 25  1  0  0  0  0
 20 26  1  0  0  0  0
 26 27  1  0  0  0  0
 26 28  1  0  0  0  0
 26 29  1  0  0  0  0
M  END
> <VConfSearch Rank>
446

> <Conf_Id>
73

> <Delta U+W>
1.580

> <U+W>
-26.246

> <U>
25.821

> <W>
-52.067

> <W(PB)>
-54.581

> <W(SA)>
2.514

> <Valence>
4.779

> <Coulomb>
19.614

> <VdW>
1.428

> <VdW6>
-9.390

> <VdW12>
10.818

> <Bond>
0.283

> <Angle>
1.640

> <Pdih>
2.856

> <Idih>
0.000

> <Tether>
0.000

$$$$
VeraChem MOL file


 29 28  0  0  0  0  0  0  0  0999 V2000     
   19.5446   14.6506   23.9490 C   0  0  0  0  0  0  0  0  0  0  0  0
   19.6570   14.8961   25.0131 H   0  0  0  0  0  0  0  0  0  0  0  0
   18.9654   13.7209   23.8770 H   0  0  0  0  0  0  0  0  0  0  0  0
   20.5431   14.4587   23.5350 H   0  0  0  0  0  0  0  0  0  0  0  0
   18.8387   15.7926   23.1878 C   0  0  0  0  0  0  0  0  0  0  0  0
   17.8314   15.9392   23.6022 H   0  0  0  0  0  0  0  0  0  0  0  0
   18.7097   15.5034   22.1353 H   0  0  0  0  0  0  0  0  0  0  0  0
   19.6344   17.1139   23.2725 C   0  0  0  0  0  0  0  0  0  0  0  0
   19.7642   17.3848   24.3283 H   0  0  0  0  0  0  0  0  0  0  0  0
   20.6393   16.9629   22.8547 H   0  0  0  0  0  0  0  0  0  0  0  0
   18.9246   18.2608   22.5133 C   0  0  0  0  0  0  0  0  0  0  0  0
   17.9427   18.4541   22.9670 H   0  0  0  0  0  0  0  0  0  0  0  0
   18.7287   17.9369   21.4818 H   0  0  0  0  0  0  0  0  0  0  0  0
   19.7421   19.5752   22.4653 C   0  0  0  0  0  0  0  0  0  0  0  0
   20.7227   19.3812   22.0088 H   0  0  0  0  0  0  0  0  0  0  0  0
   19.2222   20.2730   21.7960 H   0  0  0  0  0  0  0  0  0  0  0  0
   19.9343   20.2359   23.8548 C   0  0  0  0  0  0  0  0  0  0  0  0
   20.4768   19.5460   24.5128 H   0  0  0  0  0  0  0  0  0  0  0  0
   18.9559   20.4123   24.3211 H   0  0  0  0  0  0  0  0  0  0  0  0
   20.7229   21.5619   23.7866 C   0  0  2  0  0  0  0  0  0  0  0  0
   21.6767   21.3684   23.2862 H   0  0  0  0  0  0  0  0  0  0  0  0
   21.0176   22.0816   25.2028 C   0  0  0  0  0  0  0  0  0  0  0  0
   21.5927   21.3445   25.7771 H   0  0  0  0  0  0  0  0  0  0  0  0
   21.6079   23.0054   25.1625 H   0  0  0  0  0  0  0  0  0  0  0  0
   20.0898   22.2922   25.7494 H   0  0  0  0  0  0  0  0  0  0  0  0
   20.0146   22.6144   22.9780 N   0  3  0  0  0  0  0  0  0  0  0  0
   20.5605   23.4794   22.9300 H   0  0  0  0  0  0  0  0  0  0  0  0
   19.1050   22.8479   23.3850 H   0  0  0  0  0  0  0  0  0  0  0  0
   19.8518   22.3015   22.0172 H   0  0  0  0  0  0  0  0  0  0  0  0
  1  2  1  0  0  0  0
  1  3  1  0  0  0  0
  1  4  1  0  0  0  0
  1  5  1  0  0  0  0
  5  6  1  0  0  0  0
  5  7  1  0  0  0  0
  5  8  1  0  0  0  0
  8  9  1  0  0  0  0
  8 10  1  0  0  0  0
  8 11  1  0  0  0  0
 11 12  1  0  0  0  0
 11 13  1  0  0  0  0
 11 14  1  0  0  0  0
 14 15  1  0  0  0  0
 14 16  1  0  0  0  0
 14 17  1  0  0  0  0
 17 18  1  0  0  0  0
 17 19  1  0  0  0  0
 17 20  1  0  0  0  0
 20 21  1  0  0  0  0
 20 22  1  0  0  0  0
 22 23  1  0  0  0  0
 22 24  1  0  0  0  0
 22 25  1  0  0  0  0
 20 26  1  0  0  0  0
 26 27  1  0  0  0  0
 26 28  1  0  0  0  0
 26 29  1  0  0  0  0
M  END
> <VConfSearch Rank>
447

> <Conf_Id>
111

> <Delta U+W>
0.580

> <U+W>
-27.246

> <U>
24.710

> <W>
-51.957

> <W(PB)>
-54.511

> <W(SA)>
2.555

> <Valence>
3.735

> <Coulomb>
19.760

> <VdW>
1.216

> <VdW6>
-8.624

> <VdW12>
9.840

> <Bond>
0.236

> <Angle>
1.168

> <Pdih>
2.330

> <Idih>
0.000

> <Tether>
0.000

$$$$
VeraChem MOL file


 29 28  0  0  0  0  0  0  0  0999 V2000     
   20.8592   14.8880   23.7166 C   0  0  0  0  0  0  0  0  0  0  0  0
   21.2957   14.9111   22.7096 H   0  0  0  0  0  0  0  0  0  0  0  0
   21.6000   15.2901   24.4199 H   0  0  0  0  0  0  0  0  0  0  0  0
   20.6781   13.8382   23.9815 H   0  0  0  0  0  0  0  0  0  0  0  0
   19.5464   15.6977   23.7706 C   0  0  0  0  0  0  0  0  0  0  0  0
   19.1166   15.6289   24.7798 H   0  0  0  0  0  0  0  0  0  0  0  0
   18.8145   15.2511   23.0830 H   0  0  0  0  0  0  0  0  0  0  0  0
   19.7733   17.1802   23.4008 C   0  0  0  0  0  0  0  0  0  0  0  0
   20.5122   17.6116   24.0887 H   0  0  0  0  0  0  0  0  0  0  0  0
   20.2011   17.2440   22.3908 H   0  0  0  0  0  0  0  0  0  0  0  0
   18.4583   17.9941   23.4585 C   0  0  0  0  0  0  0  0  0  0  0  0
   18.0553   17.9751   24.4805 H   0  0  0  0  0  0  0  0  0  0  0  0
   17.7071   17.5063   22.8220 H   0  0  0  0  0  0  0  0  0  0  0  0
   18.6196   19.4613   22.9909 C   0  0  0  0  0  0  0  0  0  0  0  0
   18.9924   19.4689   21.9581 H   0  0  0  0  0  0  0  0  0  0  0  0
   17.6263   19.9307   22.9668 H   0  0  0  0  0  0  0  0  0  0  0  0
   19.5521   20.2994   23.9030 C   0  0  0  0  0  0  0  0  0  0  0  0
   20.5824   19.9286   23.8314 H   0  0  0  0  0  0  0  0  0  0  0  0
   19.2398   20.1592   24.9463 H   0  0  0  0  0  0  0  0  0  0  0  0
   19.5318   21.8117   23.5846 C   0  0  2  0  0  0  0  0  0  0  0  0
   18.4943   22.1573   23.6258 H   0  0  0  0  0  0  0  0  0  0  0  0
   20.0915   22.1156   22.1834 C   0  0  0  0  0  0  0  0  0  0  0  0
   21.1140   21.7335   22.0730 H   0  0  0  0  0  0  0  0  0  0  0  0
   19.4701   21.6663   21.4001 H   0  0  0  0  0  0  0  0  0  0  0  0
   20.1110   23.1972   22.0014 H   0  0  0  0  0  0  0  0  0  0  0  0
   20.2815   22.5956   24.6258 N   0  3  0  0  0  0  0  0  0  0  0  0
   19.8975   22.4416   25.5627 H   0  0  0  0  0  0  0  0  0  0  0  0
   20.2369   23.6017   24.4401 H   0  0  0  0  0  0  0  0  0  0  0  0
   21.2705   22.3332   24.6515 H   0  0  0  0  0  0  0  0  0  0  0  0
  1  2  1  0  0  0  0
  1  3  1  0  0  0  0
  1  4  1  0  0  0  0
  1  5  1  0  0  0  0
  5  6  1  0  0  0  0
  5  7  1  0  0  0  0
  5  8  1  0  0  0  0
  8  9  1  0  0  0  0
  8 10  1  0  0  0  0
  8 11  1  0  0  0  0
 11 12  1  0  0  0  0
 11 13  1  0  0  0  0
 11 14  1  0  0  0  0
 14 15  1  0  0  0  0
 14 16  1  0  0  0  0
 14 17  1  0  0  0  0
 17 18  1  0  0  0  0
 17 19  1  0  0  0  0
 17 20  1  0  0  0  0
 20 21  1  0  0  0  0
 20 22  1  0  0  0  0
 22 23  1  0  0  0  0
 22 24  1  0  0  0  0
 22 25  1  0  0  0  0
 20 26  1  0  0  0  0
 26 27  1  0  0  0  0
 26 28  1  0  0  0  0
 26 29  1  0  0  0  0
M  END
> <VConfSearch Rank>
448

> <Conf_Id>
39

> <Delta U+W>
0.965

> <U+W>
-26.861

> <U>
25.129

> <W>
-51.990

> <W(PB)>
-54.526

> <W(SA)>
2.536

> <Valence>
4.206

> <Coulomb>
19.678

> <VdW>
1.245

> <VdW6>
-8.834

> <VdW12>
10.079

> <Bond>
0.240

> <Angle>
1.353

> <Pdih>
2.613

> <Idih>
0.000

> <Tether>
0.000

$$$$
VeraChem MOL file


 29 28  0  0  0  0  0  0  0  0999 V2000     
   23.6602   17.4541   23.1545 C   0  0  0  0  0  0  0  0  0  0  0  0
   23.6603   17.6556   22.0755 H   0  0  0  0  0  0  0  0  0  0  0  0
   23.8430   18.3987   23.6814 H   0  0  0  0  0  0  0  0  0  0  0  0
   24.5049   16.7875   23.3715 H   0  0  0  0  0  0  0  0  0  0  0  0
   22.3305   16.8029   23.5981 C   0  0  0  0  0  0  0  0  0  0  0  0
   22.3407   16.6436   24.6854 H   0  0  0  0  0  0  0  0  0  0  0  0
   22.2576   15.8055   23.1423 H   0  0  0  0  0  0  0  0  0  0  0  0
   21.0783   17.6214   23.2003 C   0  0  0  0  0  0  0  0  0  0  0  0
   21.0724   17.7769   22.1128 H   0  0  0  0  0  0  0  0  0  0  0  0
   20.1920   17.0172   23.4322 H   0  0  0  0  0  0  0  0  0  0  0  0
   20.9789   18.9877   23.9253 C   0  0  0  0  0  0  0  0  0  0  0  0
   21.8703   19.5864   23.6982 H   0  0  0  0  0  0  0  0  0  0  0  0
   20.9802   18.8318   25.0128 H   0  0  0  0  0  0  0  0  0  0  0  0
   19.7334   19.8144   23.5204 C   0  0  0  0  0  0  0  0  0  0  0  0
   19.8242   20.8100   23.9738 H   0  0  0  0  0  0  0  0  0  0  0  0
   19.7424   19.9667   22.4330 H   0  0  0  0  0  0  0  0  0  0  0  0
   18.3917   19.1665   23.9593 C   0  0  0  0  0  0  0  0  0  0  0  0
   18.4429   18.9165   25.0271 H   0  0  0  0  0  0  0  0  0  0  0  0
   18.2489   18.2159   23.4309 H   0  0  0  0  0  0  0  0  0  0  0  0
   17.1396   20.0433   23.7213 C   0  0  2  0  0  0  0  0  0  0  0  0
   16.2737   19.4773   24.0783 H   0  0  0  0  0  0  0  0  0  0  0  0
   16.9184   20.3406   22.2280 C   0  0  0  0  0  0  0  0  0  0  0  0
   17.7063   20.9865   21.8224 H   0  0  0  0  0  0  0  0  0  0  0  0
   16.9003   19.4119   21.6442 H   0  0  0  0  0  0  0  0  0  0  0  0
   15.9578   20.8478   22.0759 H   0  0  0  0  0  0  0  0  0  0  0  0
   17.1657   21.3140   24.5254 N   0  3  0  0  0  0  0  0  0  0  0  0
   17.2697   21.1228   25.5261 H   0  0  0  0  0  0  0  0  0  0  0  0
   16.3022   21.8509   24.4044 H   0  0  0  0  0  0  0  0  0  0  0  0
   17.9434   21.9159   24.2439 H   0  0  0  0  0  0  0  0  0  0  0  0
  1  2  1  0  0  0  0
  1  3  1  0  0  0  0
  1  4  1  0  0  0  0
  1  5  1  0  0  0  0
  5  6  1  0  0  0  0
  5  7  1  0  0  0  0
  5  8  1  0  0  0  0
  8  9  1  0  0  0  0
  8 10  1  0  0  0  0
  8 11  1  0  0  0  0
 11 12  1  0  0  0  0
 11 13  1  0  0  0  0
 11 14  1  0  0  0  0
 14 15  1  0  0  0  0
 14 16  1  0  0  0  0
 14 17  1  0  0  0  0
 17 18  1  0  0  0  0
 17 19  1  0  0  0  0
 17 20  1  0  0  0  0
 20 21  1  0  0  0  0
 20 22  1  0  0  0  0
 22 23  1  0  0  0  0
 22 24  1  0  0  0  0
 22 25  1  0  0  0  0
 20 26  1  0  0  0  0
 26 27  1  0  0  0  0
 26 28  1  0  0  0  0
 26 29  1  0  0  0  0
M  END
> <VConfSearch Rank>
449

> <Conf_Id>
155

> <Delta U+W>
1.624

> <U+W>
-26.202

> <U>
25.894

> <W>
-52.096

> <W(PB)>
-54.602

> <W(SA)>
2.506

> <Valence>
4.779

> <Coulomb>
19.659

> <VdW>
1.456

> <VdW6>
-9.843

> <VdW12>
11.299

> <Bond>
0.315

> <Angle>
1.725

> <Pdih>
2.740

> <Idih>
0.000

> <Tether>
0.000

$$$$
VeraChem MOL file


 29 28  0  0  0  0  0  0  0  0999 V2000     
   17.1207   16.1122   22.6290 C   0  0  0  0  0  0  0  0  0  0  0  0
   16.6627   17.0076   22.1908 H   0  0  0  0  0  0  0  0  0  0  0  0
   17.9797   15.8260   22.0084 H   0  0  0  0  0  0  0  0  0  0  0  0
   16.3817   15.3024   22.5737 H   0  0  0  0  0  0  0  0  0  0  0  0
   17.5497   16.3539   24.0939 C   0  0  0  0  0  0  0  0  0  0  0  0
   17.8933   15.4030   24.5245 H   0  0  0  0  0  0  0  0  0  0  0  0
   16.6784   16.6634   24.6878 H   0  0  0  0  0  0  0  0  0  0  0  0
   18.6798   17.4017   24.2366 C   0  0  0  0  0  0  0  0  0  0  0  0
   18.9908   17.4386   25.2896 H   0  0  0  0  0  0  0  0  0  0  0  0
   19.5538   17.0639   23.6649 H   0  0  0  0  0  0  0  0  0  0  0  0
   18.2590   18.8222   23.7815 C   0  0  0  0  0  0  0  0  0  0  0  0
   17.3079   19.0836   24.2654 H   0  0  0  0  0  0  0  0  0  0  0  0
   18.0688   18.8307   22.7001 H   0  0  0  0  0  0  0  0  0  0  0  0
   19.2993   19.9171   24.1243 C   0  0  0  0  0  0  0  0  0  0  0  0
   18.8513   20.8910   23.8890 H   0  0  0  0  0  0  0  0  0  0  0  0
   19.4904   19.9172   25.2063 H   0  0  0  0  0  0  0  0  0  0  0  0
   20.6375   19.7604   23.3561 C   0  0  0  0  0  0  0  0  0  0  0  0
   20.4478   19.7723   22.2747 H   0  0  0  0  0  0  0  0  0  0  0  0
   21.0684   18.7786   23.5864 H   0  0  0  0  0  0  0  0  0  0  0  0
   21.6890   20.8368   23.7113 C   0  0  2  0  0  0  0  0  0  0  0  0
   21.8161   20.8473   24.7982 H   0  0  0  0  0  0  0  0  0  0  0  0
   21.2604   22.2436   23.2562 C   0  0  0  0  0  0  0  0  0  0  0  0
   21.0541   22.2665   22.1789 H   0  0  0  0  0  0  0  0  0  0  0  0
   20.3617   22.5791   23.7860 H   0  0  0  0  0  0  0  0  0  0  0  0
   22.0508   22.9747   23.4663 H   0  0  0  0  0  0  0  0  0  0  0  0
   23.0328   20.4927   23.1312 N   0  3  0  0  0  0  0  0  0  0  0  0
   23.3611   19.5785   23.4559 H   0  0  0  0  0  0  0  0  0  0  0  0
   23.7420   21.1824   23.3960 H   0  0  0  0  0  0  0  0  0  0  0  0
   23.0022   20.4634   22.1085 H   0  0  0  0  0  0  0  0  0  0  0  0
  1  2  1  0  0  0  0
  1  3  1  0  0  0  0
  1  4  1  0  0  0  0
  1  5  1  0  0  0  0
  5  6  1  0  0  0  0
  5  7  1  0  0  0  0
  5  8  1  0  0  0  0
  8  9  1  0  0  0  0
  8 10  1  0  0  0  0
  8 11  1  0  0  0  0
 11 12  1  0  0  0  0
 11 13  1  0  0  0  0
 11 14  1  0  0  0  0
 14 15  1  0  0  0  0
 14 16  1  0  0  0  0
 14 17  1  0  0  0  0
 17 18  1  0  0  0  0
 17 19  1  0  0  0  0
 17 20  1  0  0  0  0
 20 21  1  0  0  0  0
 20 22  1  0  0  0  0
 22 23  1  0  0  0  0
 22 24  1  0  0  0  0
 22 25  1  0  0  0  0
 20 26  1  0  0  0  0
 26 27  1  0  0  0  0
 26 28  1  0  0  0  0
 26 29  1  0  0  0  0
M  END
> <VConfSearch Rank>
450

> <Conf_Id>
135

> <Delta U+W>
1.581

> <U+W>
-26.245

> <U>
25.974

> <W>
-52.219

> <W(PB)>
-54.709

> <W(SA)>
2.490

> <Valence>
4.811

> <Coulomb>
19.700

> <VdW>
1.463

> <VdW6>
-9.391

> <VdW12>
10.854

> <Bond>
0.285

> <Angle>
1.671

> <Pdih>
2.855

> <Idih>
0.000

> <Tether>
0.000

$$$$
VeraChem MOL file


 29 28  0  0  0  0  0  0  0  0999 V2000     
   17.6089   21.7246   21.2350 C   0  0  0  0  0  0  0  0  0  0  0  0
   17.0499   20.7936   21.0745 H   0  0  0  0  0  0  0  0  0  0  0  0
   17.3815   22.0931   22.2430 H   0  0  0  0  0  0  0  0  0  0  0  0
   17.2354   22.4684   20.5194 H   0  0  0  0  0  0  0  0  0  0  0  0
   19.1260   21.5021   21.0416 C   0  0  0  0  0  0  0  0  0  0  0  0
   19.6645   22.4407   21.2332 H   0  0  0  0  0  0  0  0  0  0  0  0
   19.3158   21.2480   19.9894 H   0  0  0  0  0  0  0  0  0  0  0  0
   19.6996   20.3770   21.9361 C   0  0  0  0  0  0  0  0  0  0  0  0
   19.1737   19.4391   21.7141 H   0  0  0  0  0  0  0  0  0  0  0  0
   20.7517   20.2163   21.6636 H   0  0  0  0  0  0  0  0  0  0  0  0
   19.6105   20.6920   23.4506 C   0  0  0  0  0  0  0  0  0  0  0  0
   18.5594   20.7384   23.7645 H   0  0  0  0  0  0  0  0  0  0  0  0
   20.0336   21.6890   23.6351 H   0  0  0  0  0  0  0  0  0  0  0  0
   20.3614   19.6673   24.3357 C   0  0  0  0  0  0  0  0  0  0  0  0
   21.4206   19.6527   24.0468 H   0  0  0  0  0  0  0  0  0  0  0  0
   20.3277   20.0148   25.3776 H   0  0  0  0  0  0  0  0  0  0  0  0
   19.7657   18.2379   24.2598 C   0  0  0  0  0  0  0  0  0  0  0  0
   19.9127   17.8213   23.2552 H   0  0  0  0  0  0  0  0  0  0  0  0
   18.6810   18.3020   24.4171 H   0  0  0  0  0  0  0  0  0  0  0  0
   20.3560   17.2657   25.3063 C   0  0  2  0  0  0  0  0  0  0  0  0
   20.2332   17.7126   26.2976 H   0  0  0  0  0  0  0  0  0  0  0  0
   21.8544   17.0034   25.0721 C   0  0  0  0  0  0  0  0  0  0  0  0
   22.0354   16.6085   24.0646 H   0  0  0  0  0  0  0  0  0  0  0  0
   22.4431   17.9200   25.1930 H   0  0  0  0  0  0  0  0  0  0  0  0
   22.2369   16.2743   25.7970 H   0  0  0  0  0  0  0  0  0  0  0  0
   19.5977   15.9676   25.3295 N   0  3  0  0  0  0  0  0  0  0  0  0
   19.9606   15.3356   26.0490 H   0  0  0  0  0  0  0  0  0  0  0  0
   19.6642   15.4794   24.4323 H   0  0  0  0  0  0  0  0  0  0  0  0
   18.6037   16.1151   25.5271 H   0  0  0  0  0  0  0  0  0  0  0  0
  1  2  1  0  0  0  0
  1  3  1  0  0  0  0
  1  4  1  0  0  0  0
  1  5  1  0  0  0  0
  5  6  1  0  0  0  0
  5  7  1  0  0  0  0
  5  8  1  0  0  0  0
  8  9  1  0  0  0  0
  8 10  1  0  0  0  0
  8 11  1  0  0  0  0
 11 12  1  0  0  0  0
 11 13  1  0  0  0  0
 11 14  1  0  0  0  0
 14 15  1  0  0  0  0
 14 16  1  0  0  0  0
 14 17  1  0  0  0  0
 17 18  1  0  0  0  0
 17 19  1  0  0  0  0
 17 20  1  0  0  0  0
 20 21  1  0  0  0  0
 20 22  1  0  0  0  0
 22 23  1  0  0  0  0
 22 24  1  0  0  0  0
 22 25  1  0  0  0  0
 20 26  1  0  0  0  0
 26 27  1  0  0  0  0
 26 28  1  0  0  0  0
 26 29  1  0  0  0  0
M  END
> <VConfSearch Rank>
451

> <Conf_Id>
130

> <Delta U+W>
1.359

> <U+W>
-26.467

> <U>
25.687

> <W>
-52.154

> <W(PB)>
-54.643

> <W(SA)>
2.489

> <Valence>
4.682

> <Coulomb>
19.653

> <VdW>
1.352

> <VdW6>
-9.477

> <VdW12>
10.829

> <Bond>
0.274

> <Angle>
1.550

> <Pdih>
2.858

> <Idih>
0.000

> <Tether>
0.000

$$$$
VeraChem MOL file


 29 28  0  0  0  0  0  0  0  0999 V2000     
   18.2941   22.7897   24.2203 C   0  0  0  0  0  0  0  0  0  0  0  0
   17.5781   23.5514   23.8854 H   0  0  0  0  0  0  0  0  0  0  0  0
   18.5224   22.9849   25.2762 H   0  0  0  0  0  0  0  0  0  0  0  0
   19.2142   22.9243   23.6384 H   0  0  0  0  0  0  0  0  0  0  0  0
   17.7045   21.3736   24.0318 C   0  0  0  0  0  0  0  0  0  0  0  0
   17.5161   21.1907   22.9647 H   0  0  0  0  0  0  0  0  0  0  0  0
   16.7251   21.3297   24.5286 H   0  0  0  0  0  0  0  0  0  0  0  0
   18.6018   20.2501   24.6048 C   0  0  0  0  0  0  0  0  0  0  0  0
   18.7713   20.4285   25.6755 H   0  0  0  0  0  0  0  0  0  0  0  0
   18.0503   19.3040   24.5358 H   0  0  0  0  0  0  0  0  0  0  0  0
   19.9640   20.1187   23.8767 C   0  0  0  0  0  0  0  0  0  0  0  0
   20.5330   21.0477   24.0116 H   0  0  0  0  0  0  0  0  0  0  0  0
   19.7970   20.0139   22.7979 H   0  0  0  0  0  0  0  0  0  0  0  0
   20.8283   18.9462   24.4093 C   0  0  0  0  0  0  0  0  0  0  0  0
   21.8690   19.0787   24.0824 H   0  0  0  0  0  0  0  0  0  0  0  0
   20.8569   19.0081   25.5059 H   0  0  0  0  0  0  0  0  0  0  0  0
   20.3338   17.5323   23.9955 C   0  0  0  0  0  0  0  0  0  0  0  0
   19.2509   17.5297   23.8236 H   0  0  0  0  0  0  0  0  0  0  0  0
   20.5028   16.8578   24.8453 H   0  0  0  0  0  0  0  0  0  0  0  0
   21.0601   16.9285   22.7697 C   0  0  2  0  0  0  0  0  0  0  0  0
   22.1326   16.9065   22.9857 H   0  0  0  0  0  0  0  0  0  0  0  0
   20.8448   17.7501   21.4875 C   0  0  0  0  0  0  0  0  0  0  0  0
   21.3050   18.7412   21.5734 H   0  0  0  0  0  0  0  0  0  0  0  0
   21.3084   17.2527   20.6266 H   0  0  0  0  0  0  0  0  0  0  0  0
   19.7767   17.8789   21.2724 H   0  0  0  0  0  0  0  0  0  0  0  0
   20.6455   15.5006   22.5468 N   0  3  0  0  0  0  0  0  0  0  0  0
   20.8239   14.9226   23.3732 H   0  0  0  0  0  0  0  0  0  0  0  0
   21.1570   15.0806   21.7653 H   0  0  0  0  0  0  0  0  0  0  0  0
   19.6473   15.4304   22.3315 H   0  0  0  0  0  0  0  0  0  0  0  0
  1  2  1  0  0  0  0
  1  3  1  0  0  0  0
  1  4  1  0  0  0  0
  1  5  1  0  0  0  0
  5  6  1  0  0  0  0
  5  7  1  0  0  0  0
  5  8  1  0  0  0  0
  8  9  1  0  0  0  0
  8 10  1  0  0  0  0
  8 11  1  0  0  0  0
 11 12  1  0  0  0  0
 11 13  1  0  0  0  0
 11 14  1  0  0  0  0
 14 15  1  0  0  0  0
 14 16  1  0  0  0  0
 14 17  1  0  0  0  0
 17 18  1  0  0  0  0
 17 19  1  0  0  0  0
 17 20  1  0  0  0  0
 20 21  1  0  0  0  0
 20 22  1  0  0  0  0
 22 23  1  0  0  0  0
 22 24  1  0  0  0  0
 22 25  1  0  0  0  0
 20 26  1  0  0  0  0
 26 27  1  0  0  0  0
 26 28  1  0  0  0  0
 26 29  1  0  0  0  0
M  END
> <VConfSearch Rank>
452

> <Conf_Id>
157

> <Delta U+W>
4.354

> <U+W>
-23.472

> <U>
28.780

> <W>
-52.252

> <W(PB)>
-54.715

> <W(SA)>
2.462

> <Valence>
7.566

> <Coulomb>
19.822

> <VdW>
1.392

> <VdW6>
-10.248

> <VdW12>
11.641

> <Bond>
0.340

> <Angle>
2.096

> <Pdih>
5.129

> <Idih>
0.000

> <Tether>
0.000

$$$$
VeraChem MOL file


 29 28  0  0  0  0  0  0  0  0999 V2000     
   19.4429   15.4501   23.2675 C   0  0  0  0  0  0  0  0  0  0  0  0
   19.9165   14.5075   23.5707 H   0  0  0  0  0  0  0  0  0  0  0  0
   19.2891   16.0505   24.1709 H   0  0  0  0  0  0  0  0  0  0  0  0
   18.4563   15.2081   22.8515 H   0  0  0  0  0  0  0  0  0  0  0  0
   20.3166   16.1830   22.2229 C   0  0  0  0  0  0  0  0  0  0  0  0
   20.4410   15.5162   21.3582 H   0  0  0  0  0  0  0  0  0  0  0  0
   21.3268   16.3528   22.6208 H   0  0  0  0  0  0  0  0  0  0  0  0
   19.6983   17.5177   21.7330 C   0  0  0  0  0  0  0  0  0  0  0  0
   19.9305   17.6296   20.6648 H   0  0  0  0  0  0  0  0  0  0  0  0
   18.6022   17.4735   21.7935 H   0  0  0  0  0  0  0  0  0  0  0  0
   20.2214   18.7844   22.4582 C   0  0  0  0  0  0  0  0  0  0  0  0
   19.7678   19.6583   21.9734 H   0  0  0  0  0  0  0  0  0  0  0  0
   21.3047   18.8739   22.2981 H   0  0  0  0  0  0  0  0  0  0  0  0
   19.9228   18.8172   23.9774 C   0  0  0  0  0  0  0  0  0  0  0  0
   18.8529   18.6434   24.1522 H   0  0  0  0  0  0  0  0  0  0  0  0
   20.4546   17.9908   24.4659 H   0  0  0  0  0  0  0  0  0  0  0  0
   20.3677   20.1358   24.6614 C   0  0  0  0  0  0  0  0  0  0  0  0
   21.4539   20.2458   24.5436 H   0  0  0  0  0  0  0  0  0  0  0  0
   20.1834   20.0563   25.7410 H   0  0  0  0  0  0  0  0  0  0  0  0
   19.6712   21.4042   24.1191 C   0  0  2  0  0  0  0  0  0  0  0  0
   19.8890   21.4885   23.0505 H   0  0  0  0  0  0  0  0  0  0  0  0
   20.2221   22.6568   24.8187 C   0  0  0  0  0  0  0  0  0  0  0  0
   20.0242   22.6287   25.8976 H   0  0  0  0  0  0  0  0  0  0  0  0
   21.3063   22.7396   24.6722 H   0  0  0  0  0  0  0  0  0  0  0  0
   19.7607   23.5642   24.4101 H   0  0  0  0  0  0  0  0  0  0  0  0
   18.1746   21.3382   24.2519 N   0  3  0  0  0  0  0  0  0  0  0  0
   17.7942   20.5275   23.7559 H   0  0  0  0  0  0  0  0  0  0  0  0
   17.7268   22.1742   23.8656 H   0  0  0  0  0  0  0  0  0  0  0  0
   17.8906   21.2624   25.2322 H   0  0  0  0  0  0  0  0  0  0  0  0
  1  2  1  0  0  0  0
  1  3  1  0  0  0  0
  1  4  1  0  0  0  0
  1  5  1  0  0  0  0
  5  6  1  0  0  0  0
  5  7  1  0  0  0  0
  5  8  1  0  0  0  0
  8  9  1  0  0  0  0
  8 10  1  0  0  0  0
  8 11  1  0  0  0  0
 11 12  1  0  0  0  0
 11 13  1  0  0  0  0
 11 14  1  0  0  0  0
 14 15  1  0  0  0  0
 14 16  1  0  0  0  0
 14 17  1  0  0  0  0
 17 18  1  0  0  0  0
 17 19  1  0  0  0  0
 17 20  1  0  0  0  0
 20 21  1  0  0  0  0
 20 22  1  0  0  0  0
 22 23  1  0  0  0  0
 22 24  1  0  0  0  0
 22 25  1  0  0  0  0
 20 26  1  0  0  0  0
 26 27  1  0  0  0  0
 26 28  1  0  0  0  0
 26 29  1  0  0  0  0
M  END
> <VConfSearch Rank>
453

> <Conf_Id>
158

> <Delta U+W>
3.648

> <U+W>
-24.178

> <U>
28.057

> <W>
-52.235

> <W(PB)>
-54.696

> <W(SA)>
2.460

> <Valence>
6.543

> <Coulomb>
20.387

> <VdW>
1.127

> <VdW6>
-10.342

> <VdW12>
11.469

> <Bond>
0.308

> <Angle>
1.938

> <Pdih>
4.297

> <Idih>
0.000

> <Tether>
0.000

$$$$
VeraChem MOL file


 29 28  0  0  0  0  0  0  0  0999 V2000     
   23.4856   18.9578   23.9583 C   0  0  0  0  0  0  0  0  0  0  0  0
   23.5864   19.0524   22.8693 H   0  0  0  0  0  0  0  0  0  0  0  0
   22.8690   19.7897   24.3207 H   0  0  0  0  0  0  0  0  0  0  0  0
   24.4844   19.0716   24.3990 H   0  0  0  0  0  0  0  0  0  0  0  0
   22.8776   17.5900   24.3433 C   0  0  0  0  0  0  0  0  0  0  0  0
   22.7569   17.5329   25.4342 H   0  0  0  0  0  0  0  0  0  0  0  0
   23.5886   16.7976   24.0707 H   0  0  0  0  0  0  0  0  0  0  0  0
   21.5239   17.3015   23.6509 C   0  0  0  0  0  0  0  0  0  0  0  0
   21.6541   17.3421   22.5607 H   0  0  0  0  0  0  0  0  0  0  0  0
   21.2231   16.2717   23.8882 H   0  0  0  0  0  0  0  0  0  0  0  0
   20.3944   18.2691   24.0778 C   0  0  0  0  0  0  0  0  0  0  0  0
   20.6608   19.2938   23.7967 H   0  0  0  0  0  0  0  0  0  0  0  0
   20.3001   18.2582   25.1724 H   0  0  0  0  0  0  0  0  0  0  0  0
   19.0371   17.8792   23.4426 C   0  0  0  0  0  0  0  0  0  0  0  0
   19.1295   17.8101   22.3499 H   0  0  0  0  0  0  0  0  0  0  0  0
   18.7752   16.8696   23.7885 H   0  0  0  0  0  0  0  0  0  0  0  0
   17.8810   18.8433   23.8195 C   0  0  0  0  0  0  0  0  0  0  0  0
   18.0761   19.3099   24.7942 H   0  0  0  0  0  0  0  0  0  0  0  0
   16.9729   18.2406   23.9534 H   0  0  0  0  0  0  0  0  0  0  0  0
   17.5669   19.9277   22.7607 C   0  0  2  0  0  0  0  0  0  0  0  0
   17.3297   19.4244   21.8184 H   0  0  0  0  0  0  0  0  0  0  0  0
   18.7485   20.8800   22.5107 C   0  0  0  0  0  0  0  0  0  0  0  0
   19.0906   21.3432   23.4445 H   0  0  0  0  0  0  0  0  0  0  0  0
   19.5918   20.3488   22.0545 H   0  0  0  0  0  0  0  0  0  0  0  0
   18.4603   21.6808   21.8187 H   0  0  0  0  0  0  0  0  0  0  0  0
   16.3409   20.7109   23.1402 N   0  3  0  0  0  0  0  0  0  0  0  0
   15.5274   20.1013   23.2648 H   0  0  0  0  0  0  0  0  0  0  0  0
   16.0990   21.3984   22.4209 H   0  0  0  0  0  0  0  0  0  0  0  0
   16.4800   21.2215   24.0164 H   0  0  0  0  0  0  0  0  0  0  0  0
  1  2  1  0  0  0  0
  1  3  1  0  0  0  0
  1  4  1  0  0  0  0
  1  5  1  0  0  0  0
  5  6  1  0  0  0  0
  5  7  1  0  0  0  0
  5  8  1  0  0  0  0
  8  9  1  0  0  0  0
  8 10  1  0  0  0  0
  8 11  1  0  0  0  0
 11 12  1  0  0  0  0
 11 13  1  0  0  0  0
 11 14  1  0  0  0  0
 14 15  1  0  0  0  0
 14 16  1  0  0  0  0
 14 17  1  0  0  0  0
 17 18  1  0  0  0  0
 17 19  1  0  0  0  0
 17 20  1  0  0  0  0
 20 21  1  0  0  0  0
 20 22  1  0  0  0  0
 22 23  1  0  0  0  0
 22 24  1  0  0  0  0
 22 25  1  0  0  0  0
 20 26  1  0  0  0  0
 26 27  1  0  0  0  0
 26 28  1  0  0  0  0
 26 29  1  0  0  0  0
M  END
> <VConfSearch Rank>
454

> <Conf_Id>
156

> <Delta U+W>
3.393

> <U+W>
-24.433

> <U>
27.713

> <W>
-52.146

> <W(PB)>
-54.603

> <W(SA)>
2.458

> <Valence>
6.758

> <Coulomb>
19.720

> <VdW>
1.235

> <VdW6>
-9.782

> <VdW12>
11.017

> <Bond>
0.287

> <Angle>
1.880

> <Pdih>
4.591

> <Idih>
0.000

> <Tether>
0.000

$$$$
VeraChem MOL file


 29 28  0  0  0  0  0  0  0  0999 V2000     
   21.7804   16.1154   22.1923 C   0  0  0  0  0  0  0  0  0  0  0  0
   22.3058   16.1441   23.1558 H   0  0  0  0  0  0  0  0  0  0  0  0
   21.3904   15.0998   22.0453 H   0  0  0  0  0  0  0  0  0  0  0  0
   22.5158   16.3115   21.4012 H   0  0  0  0  0  0  0  0  0  0  0  0
   20.6435   17.1582   22.1499 C   0  0  0  0  0  0  0  0  0  0  0  0
   20.1561   17.1269   21.1655 H   0  0  0  0  0  0  0  0  0  0  0  0
   21.0765   18.1612   22.2600 H   0  0  0  0  0  0  0  0  0  0  0  0
   19.5960   16.9050   23.2593 C   0  0  0  0  0  0  0  0  0  0  0  0
   19.2331   15.8712   23.1772 H   0  0  0  0  0  0  0  0  0  0  0  0
   20.0740   16.9770   24.2451 H   0  0  0  0  0  0  0  0  0  0  0  0
   18.3734   17.8564   23.1896 C   0  0  0  0  0  0  0  0  0  0  0  0
   17.6741   17.5911   23.9944 H   0  0  0  0  0  0  0  0  0  0  0  0
   17.8336   17.6709   22.2507 H   0  0  0  0  0  0  0  0  0  0  0  0
   18.6979   19.3699   23.2843 C   0  0  0  0  0  0  0  0  0  0  0  0
   19.2971   19.6732   22.4168 H   0  0  0  0  0  0  0  0  0  0  0  0
   17.7513   19.9197   23.2058 H   0  0  0  0  0  0  0  0  0  0  0  0
   19.4206   19.7645   24.6013 C   0  0  0  0  0  0  0  0  0  0  0  0
   20.3801   19.2369   24.6655 H   0  0  0  0  0  0  0  0  0  0  0  0
   18.8269   19.4210   25.4586 H   0  0  0  0  0  0  0  0  0  0  0  0
   19.6999   21.2775   24.7622 C   0  0  2  0  0  0  0  0  0  0  0  0
   20.2545   21.4072   25.6968 H   0  0  0  0  0  0  0  0  0  0  0  0
   18.4040   22.0994   24.8753 C   0  0  0  0  0  0  0  0  0  0  0  0
   18.6326   23.1412   25.1312 H   0  0  0  0  0  0  0  0  0  0  0  0
   17.8408   22.1026   23.9347 H   0  0  0  0  0  0  0  0  0  0  0  0
   17.7553   21.6983   25.6639 H   0  0  0  0  0  0  0  0  0  0  0  0
   20.5865   21.8162   23.6734 N   0  3  0  0  0  0  0  0  0  0  0  0
   21.4722   21.3048   23.6232 H   0  0  0  0  0  0  0  0  0  0  0  0
   20.8108   22.8033   23.8284 H   0  0  0  0  0  0  0  0  0  0  0  0
   20.1349   21.7438   22.7583 H   0  0  0  0  0  0  0  0  0  0  0  0
  1  2  1  0  0  0  0
  1  3  1  0  0  0  0
  1  4  1  0  0  0  0
  1  5  1  0  0  0  0
  5  6  1  0  0  0  0
  5  7  1  0  0  0  0
  5  8  1  0  0  0  0
  8  9  1  0  0  0  0
  8 10  1  0  0  0  0
  8 11  1  0  0  0  0
 11 12  1  0  0  0  0
 11 13  1  0  0  0  0
 11 14  1  0  0  0  0
 14 15  1  0  0  0  0
 14 16  1  0  0  0  0
 14 17  1  0  0  0  0
 17 18  1  0  0  0  0
 17 19  1  0  0  0  0
 17 20  1  0  0  0  0
 20 21  1  0  0  0  0
 20 22  1  0  0  0  0
 22 23  1  0  0  0  0
 22 24  1  0  0  0  0
 22 25  1  0  0  0  0
 20 26  1  0  0  0  0
 26 27  1  0  0  0  0
 26 28  1  0  0  0  0
 26 29  1  0  0  0  0
M  END
> <VConfSearch Rank>
455

> <Conf_Id>
78

> <Delta U+W>
1.477

> <U+W>
-26.349

> <U>
26.385

> <W>
-52.734

> <W(PB)>
-55.179

> <W(SA)>
2.445

> <Valence>
4.726

> <Coulomb>
20.482

> <VdW>
1.177

> <VdW6>
-10.349

> <VdW12>
11.526

> <Bond>
0.319

> <Angle>
1.933

> <Pdih>
2.474

> <Idih>
0.000

> <Tether>
0.000

$$$$
VeraChem MOL file


 29 28  0  0  0  0  0  0  0  0999 V2000     
   18.2382   17.2289   26.3673 C   0  0  0  0  0  0  0  0  0  0  0  0
   17.4478   16.5751   25.9762 H   0  0  0  0  0  0  0  0  0  0  0  0
   19.1741   16.9641   25.8630 H   0  0  0  0  0  0  0  0  0  0  0  0
   18.3594   17.0028   27.4346 H   0  0  0  0  0  0  0  0  0  0  0  0
   17.8705   18.7178   26.1681 C   0  0  0  0  0  0  0  0  0  0  0  0
   18.6287   19.3643   26.6313 H   0  0  0  0  0  0  0  0  0  0  0  0
   16.9355   18.9112   26.7125 H   0  0  0  0  0  0  0  0  0  0  0  0
   17.6661   19.1058   24.6811 C   0  0  0  0  0  0  0  0  0  0  0  0
   17.3241   18.2353   24.1046 H   0  0  0  0  0  0  0  0  0  0  0  0
   16.8462   19.8355   24.6282 H   0  0  0  0  0  0  0  0  0  0  0  0
   18.9025   19.7445   23.9975 C   0  0  0  0  0  0  0  0  0  0  0  0
   19.1683   20.6738   24.5199 H   0  0  0  0  0  0  0  0  0  0  0  0
   18.6080   20.0375   22.9815 H   0  0  0  0  0  0  0  0  0  0  0  0
   20.1424   18.8192   23.9318 C   0  0  0  0  0  0  0  0  0  0  0  0
   20.4808   18.5983   24.9520 H   0  0  0  0  0  0  0  0  0  0  0  0
   19.8674   17.8557   23.4832 H   0  0  0  0  0  0  0  0  0  0  0  0
   21.3356   19.4455   23.1641 C   0  0  0  0  0  0  0  0  0  0  0  0
   22.1838   18.7489   23.1971 H   0  0  0  0  0  0  0  0  0  0  0  0
   21.6603   20.3454   23.7029 H   0  0  0  0  0  0  0  0  0  0  0  0
   21.0490   19.8257   21.6920 C   0  0  2  0  0  0  0  0  0  0  0  0
   20.2154   20.5337   21.6729 H   0  0  0  0  0  0  0  0  0  0  0  0
   20.6676   18.6015   20.8410 C   0  0  0  0  0  0  0  0  0  0  0  0
   20.5206   18.8898   19.7928 H   0  0  0  0  0  0  0  0  0  0  0  0
   21.4507   17.8340   20.8766 H   0  0  0  0  0  0  0  0  0  0  0  0
   19.7296   18.1528   21.1884 H   0  0  0  0  0  0  0  0  0  0  0  0
   22.2212   20.5410   21.0801 N   0  3  0  0  0  0  0  0  0  0  0  0
   23.0515   19.9430   21.0534 H   0  0  0  0  0  0  0  0  0  0  0  0
   22.4658   21.3840   21.6077 H   0  0  0  0  0  0  0  0  0  0  0  0
   22.0222   20.8306   20.1182 H   0  0  0  0  0  0  0  0  0  0  0  0
  1  2  1  0  0  0  0
  1  3  1  0  0  0  0
  1  4  1  0  0  0  0
  1  5  1  0  0  0  0
  5  6  1  0  0  0  0
  5  7  1  0  0  0  0
  5  8  1  0  0  0  0
  8  9  1  0  0  0  0
  8 10  1  0  0  0  0
  8 11  1  0  0  0  0
 11 12  1  0  0  0  0
 11 13  1  0  0  0  0
 11 14  1  0  0  0  0
 14 15  1  0  0  0  0
 14 16  1  0  0  0  0
 14 17  1  0  0  0  0
 17 18  1  0  0  0  0
 17 19  1  0  0  0  0
 17 20  1  0  0  0  0
 20 21  1  0  0  0  0
 20 22  1  0  0  0  0
 22 23  1  0  0  0  0
 22 24  1  0  0  0  0
 22 25  1  0  0  0  0
 20 26  1  0  0  0  0
 26 27  1  0  0  0  0
 26 28  1  0  0  0  0
 26 29  1  0  0  0  0
M  END
> <VConfSearch Rank>
456

> <Conf_Id>
145

> <Delta U+W>
3.784

> <U+W>
-24.042

> <U>
28.220

> <W>
-52.262

> <W(PB)>
-54.724

> <W(SA)>
2.462

> <Valence>
7.040

> <Coulomb>
19.984

> <VdW>
1.197

> <VdW6>
-10.566

> <VdW12>
11.763

> <Bond>
0.320

> <Angle>
2.280

> <Pdih>
4.439

> <Idih>
0.000

> <Tether>
0.000

$$$$
VeraChem MOL file


 29 28  0  0  0  0  0  0  0  0999 V2000     
   20.7589   20.9147   26.9271 C   0  0  0  0  0  0  0  0  0  0  0  0
   21.6401   21.5546   27.0660 H   0  0  0  0  0  0  0  0  0  0  0  0
   19.9175   21.5521   26.6256 H   0  0  0  0  0  0  0  0  0  0  0  0
   20.5113   20.4666   27.8981 H   0  0  0  0  0  0  0  0  0  0  0  0
   21.0291   19.8192   25.8743 C   0  0  0  0  0  0  0  0  0  0  0  0
   20.1464   19.1737   25.7925 H   0  0  0  0  0  0  0  0  0  0  0  0
   21.8522   19.1790   26.2214 H   0  0  0  0  0  0  0  0  0  0  0  0
   21.3924   20.4280   24.4985 C   0  0  0  0  0  0  0  0  0  0  0  0
   20.6099   21.1249   24.1683 H   0  0  0  0  0  0  0  0  0  0  0  0
   22.3021   21.0318   24.6224 H   0  0  0  0  0  0  0  0  0  0  0  0
   21.6558   19.3622   23.4029 C   0  0  0  0  0  0  0  0  0  0  0  0
   22.0193   18.4300   23.8567 H   0  0  0  0  0  0  0  0  0  0  0  0
   22.4777   19.7211   22.7679 H   0  0  0  0  0  0  0  0  0  0  0  0
   20.4464   19.0687   22.4779 C   0  0  0  0  0  0  0  0  0  0  0  0
   20.1674   19.9910   21.9513 H   0  0  0  0  0  0  0  0  0  0  0  0
   20.7800   18.3628   21.7067 H   0  0  0  0  0  0  0  0  0  0  0  0
   19.2093   18.4901   23.2153 C   0  0  0  0  0  0  0  0  0  0  0  0
   18.8281   19.2376   23.9215 H   0  0  0  0  0  0  0  0  0  0  0  0
   19.5142   17.6235   23.8165 H   0  0  0  0  0  0  0  0  0  0  0  0
   18.0385   18.0718   22.2946 C   0  0  2  0  0  0  0  0  0  0  0  0
   17.2139   17.7573   22.9418 H   0  0  0  0  0  0  0  0  0  0  0  0
   18.4030   16.8763   21.3970 C   0  0  0  0  0  0  0  0  0  0  0  0
   17.5154   16.5132   20.8644 H   0  0  0  0  0  0  0  0  0  0  0  0
   19.1557   17.1446   20.6465 H   0  0  0  0  0  0  0  0  0  0  0  0
   18.7945   16.0443   21.9953 H   0  0  0  0  0  0  0  0  0  0  0  0
   17.5126   19.2194   21.4772 N   0  3  0  0  0  0  0  0  0  0  0  0
   18.2238   19.5698   20.8306 H   0  0  0  0  0  0  0  0  0  0  0  0
   17.2225   20.0015   22.0711 H   0  0  0  0  0  0  0  0  0  0  0  0
   16.7005   18.9401   20.9194 H   0  0  0  0  0  0  0  0  0  0  0  0
  1  2  1  0  0  0  0
  1  3  1  0  0  0  0
  1  4  1  0  0  0  0
  1  5  1  0  0  0  0
  5  6  1  0  0  0  0
  5  7  1  0  0  0  0
  5  8  1  0  0  0  0
  8  9  1  0  0  0  0
  8 10  1  0  0  0  0
  8 11  1  0  0  0  0
 11 12  1  0  0  0  0
 11 13  1  0  0  0  0
 11 14  1  0  0  0  0
 14 15  1  0  0  0  0
 14 16  1  0  0  0  0
 14 17  1  0  0  0  0
 17 18  1  0  0  0  0
 17 19  1  0  0  0  0
 17 20  1  0  0  0  0
 20 21  1  0  0  0  0
 20 22  1  0  0  0  0
 22 23  1  0  0  0  0
 22 24  1  0  0  0  0
 22 25  1  0  0  0  0
 20 26  1  0  0  0  0
 26 27  1  0  0  0  0
 26 28  1  0  0  0  0
 26 29  1  0  0  0  0
M  END
> <VConfSearch Rank>
457

> <Conf_Id>
71

> <Delta U+W>
3.542

> <U+W>
-24.284

> <U>
28.217

> <W>
-52.501

> <W(PB)>
-54.947

> <W(SA)>
2.446

> <Valence>
6.821

> <Coulomb>
20.147

> <VdW>
1.249

> <VdW6>
-10.237

> <VdW12>
11.486

> <Bond>
0.317

> <Angle>
1.990

> <Pdih>
4.515

> <Idih>
0.000

> <Tether>
0.000

$$$$
VeraChem MOL file


 29 28  0  0  0  0  0  0  0  0999 V2000     
   22.5081   20.9917   25.7569 C   0  0  0  0  0  0  0  0  0  0  0  0
   21.6186   21.1633   26.3770 H   0  0  0  0  0  0  0  0  0  0  0  0
   23.2632   20.4875   26.3740 H   0  0  0  0  0  0  0  0  0  0  0  0
   22.9100   21.9708   25.4657 H   0  0  0  0  0  0  0  0  0  0  0  0
   22.1603   20.1524   24.5094 C   0  0  0  0  0  0  0  0  0  0  0  0
   23.0624   20.0280   23.8941 H   0  0  0  0  0  0  0  0  0  0  0  0
   21.4385   20.7042   23.8955 H   0  0  0  0  0  0  0  0  0  0  0  0
   21.6016   18.7618   24.8959 C   0  0  0  0  0  0  0  0  0  0  0  0
   22.3697   18.2366   25.4804 H   0  0  0  0  0  0  0  0  0  0  0  0
   20.7347   18.8684   25.5623 H   0  0  0  0  0  0  0  0  0  0  0  0
   21.2301   17.8829   23.6731 C   0  0  0  0  0  0  0  0  0  0  0  0
   21.4786   16.8401   23.9144 H   0  0  0  0  0  0  0  0  0  0  0  0
   21.8582   18.1436   22.8102 H   0  0  0  0  0  0  0  0  0  0  0  0
   19.7320   17.9243   23.2755 C   0  0  0  0  0  0  0  0  0  0  0  0
   19.5788   17.2060   22.4597 H   0  0  0  0  0  0  0  0  0  0  0  0
   19.1302   17.5632   24.1202 H   0  0  0  0  0  0  0  0  0  0  0  0
   19.2311   19.3251   22.8341 C   0  0  0  0  0  0  0  0  0  0  0  0
   19.9202   19.7377   22.0859 H   0  0  0  0  0  0  0  0  0  0  0  0
   19.2596   20.0083   23.6920 H   0  0  0  0  0  0  0  0  0  0  0  0
   17.7996   19.3481   22.2484 C   0  0  2  0  0  0  0  0  0  0  0  0
   17.5746   20.3851   21.9804 H   0  0  0  0  0  0  0  0  0  0  0  0
   16.7481   18.8936   23.2755 C   0  0  0  0  0  0  0  0  0  0  0  0
   16.8330   19.4736   24.2029 H   0  0  0  0  0  0  0  0  0  0  0  0
   15.7358   19.0439   22.8806 H   0  0  0  0  0  0  0  0  0  0  0  0
   16.8569   17.8309   23.5232 H   0  0  0  0  0  0  0  0  0  0  0  0
   17.6864   18.5561   20.9748 N   0  3  0  0  0  0  0  0  0  0  0  0
   18.3544   18.8811   20.2700 H   0  0  0  0  0  0  0  0  0  0  0  0
   16.7499   18.6340   20.5680 H   0  0  0  0  0  0  0  0  0  0  0  0
   17.8687   17.5628   21.1377 H   0  0  0  0  0  0  0  0  0  0  0  0
  1  2  1  0  0  0  0
  1  3  1  0  0  0  0
  1  4  1  0  0  0  0
  1  5  1  0  0  0  0
  5  6  1  0  0  0  0
  5  7  1  0  0  0  0
  5  8  1  0  0  0  0
  8  9  1  0  0  0  0
  8 10  1  0  0  0  0
  8 11  1  0  0  0  0
 11 12  1  0  0  0  0
 11 13  1  0  0  0  0
 11 14  1  0  0  0  0
 14 15  1  0  0  0  0
 14 16  1  0  0  0  0
 14 17  1  0  0  0  0
 17 18  1  0  0  0  0
 17 19  1  0  0  0  0
 17 20  1  0  0  0  0
 20 21  1  0  0  0  0
 20 22  1  0  0  0  0
 22 23  1  0  0  0  0
 22 24  1  0  0  0  0
 22 25  1  0  0  0  0
 20 26  1  0  0  0  0
 26 27  1  0  0  0  0
 26 28  1  0  0  0  0
 26 29  1  0  0  0  0
M  END
> <VConfSearch Rank>
458

> <Conf_Id>
163

> <Delta U+W>
3.309

> <U+W>
-24.517

> <U>
27.916

> <W>
-52.433

> <W(PB)>
-54.866

> <W(SA)>
2.433

> <Valence>
6.693

> <Coulomb>
20.015

> <VdW>
1.208

> <VdW6>
-10.294

> <VdW12>
11.503

> <Bond>
0.312

> <Angle>
1.939

> <Pdih>
4.441

> <Idih>
0.000

> <Tether>
0.000

$$$$
VeraChem MOL file


 29 28  0  0  0  0  0  0  0  0999 V2000     
   22.6864   19.2446   20.7604 C   0  0  0  0  0  0  0  0  0  0  0  0
   23.4633   18.5939   21.1823 H   0  0  0  0  0  0  0  0  0  0  0  0
   21.9351   18.6120   20.2719 H   0  0  0  0  0  0  0  0  0  0  0  0
   23.1525   19.8627   19.9822 H   0  0  0  0  0  0  0  0  0  0  0  0
   22.0554   20.1371   21.8531 C   0  0  0  0  0  0  0  0  0  0  0  0
   21.2579   20.7525   21.4137 H   0  0  0  0  0  0  0  0  0  0  0  0
   22.8183   20.8384   22.2191 H   0  0  0  0  0  0  0  0  0  0  0  0
   21.4983   19.3396   23.0570 C   0  0  0  0  0  0  0  0  0  0  0  0
   22.2997   18.7292   23.4955 H   0  0  0  0  0  0  0  0  0  0  0  0
   21.1982   20.0594   23.8294 H   0  0  0  0  0  0  0  0  0  0  0  0
   20.2924   18.4367   22.6935 C   0  0  0  0  0  0  0  0  0  0  0  0
   20.5945   17.7187   21.9203 H   0  0  0  0  0  0  0  0  0  0  0  0
   19.4963   19.0464   22.2463 H   0  0  0  0  0  0  0  0  0  0  0  0
   19.7363   17.6322   23.8971 C   0  0  0  0  0  0  0  0  0  0  0  0
   18.9274   16.9792   23.5429 H   0  0  0  0  0  0  0  0  0  0  0  0
   20.5196   16.9569   24.2680 H   0  0  0  0  0  0  0  0  0  0  0  0
   19.2190   18.4928   25.0809 C   0  0  0  0  0  0  0  0  0  0  0  0
   20.0690   18.9933   25.5618 H   0  0  0  0  0  0  0  0  0  0  0  0
   18.7928   17.8285   25.8443 H   0  0  0  0  0  0  0  0  0  0  0  0
   18.1674   19.5507   24.6800 C   0  0  2  0  0  0  0  0  0  0  0  0
   18.6093   20.2050   23.9225 H   0  0  0  0  0  0  0  0  0  0  0  0
   17.7841   20.4122   25.8934 C   0  0  0  0  0  0  0  0  0  0  0  0
   17.0652   21.1894   25.6060 H   0  0  0  0  0  0  0  0  0  0  0  0
   17.3307   19.8031   26.6855 H   0  0  0  0  0  0  0  0  0  0  0  0
   18.6669   20.9128   26.3100 H   0  0  0  0  0  0  0  0  0  0  0  0
   16.9443   18.9330   24.0600 N   0  3  0  0  0  0  0  0  0  0  0  0
   17.1867   18.3812   23.2326 H   0  0  0  0  0  0  0  0  0  0  0  0
   16.2700   19.6466   23.7690 H   0  0  0  0  0  0  0  0  0  0  0  0
   16.4679   18.3101   24.7176 H   0  0  0  0  0  0  0  0  0  0  0  0
  1  2  1  0  0  0  0
  1  3  1  0  0  0  0
  1  4  1  0  0  0  0
  1  5  1  0  0  0  0
  5  6  1  0  0  0  0
  5  7  1  0  0  0  0
  5  8  1  0  0  0  0
  8  9  1  0  0  0  0
  8 10  1  0  0  0  0
  8 11  1  0  0  0  0
 11 12  1  0  0  0  0
 11 13  1  0  0  0  0
 11 14  1  0  0  0  0
 14 15  1  0  0  0  0
 14 16  1  0  0  0  0
 14 17  1  0  0  0  0
 17 18  1  0  0  0  0
 17 19  1  0  0  0  0
 17 20  1  0  0  0  0
 20 21  1  0  0  0  0
 20 22  1  0  0  0  0
 22 23  1  0  0  0  0
 22 24  1  0  0  0  0
 22 25  1  0  0  0  0
 20 26  1  0  0  0  0
 26 27  1  0  0  0  0
 26 28  1  0  0  0  0
 26 29  1  0  0  0  0
M  END
> <VConfSearch Rank>
459

> <Conf_Id>
173

> <Delta U+W>
1.363

> <U+W>
-26.462

> <U>
25.816

> <W>
-52.279

> <W(PB)>
-54.727

> <W(SA)>
2.449

> <Valence>
4.504

> <Coulomb>
20.342

> <VdW>
0.971

> <VdW6>
-10.532

> <VdW12>
11.503

> <Bond>
0.307

> <Angle>
1.715

> <Pdih>
2.481

> <Idih>
0.000

> <Tether>
0.000

$$$$
VeraChem MOL file


 29 28  0  0  0  0  0  0  0  0999 V2000     
   17.2028   20.1912   20.8910 C   0  0  0  0  0  0  0  0  0  0  0  0
   17.2663   21.2744   21.0583 H   0  0  0  0  0  0  0  0  0  0  0  0
   17.2883   20.0062   19.8122 H   0  0  0  0  0  0  0  0  0  0  0  0
   16.2072   19.8582   21.2118 H   0  0  0  0  0  0  0  0  0  0  0  0
   18.3049   19.4443   21.6716 C   0  0  0  0  0  0  0  0  0  0  0  0
   18.1996   18.3631   21.5061 H   0  0  0  0  0  0  0  0  0  0  0  0
   18.1616   19.6246   22.7451 H   0  0  0  0  0  0  0  0  0  0  0  0
   19.7174   19.9043   21.2445 C   0  0  0  0  0  0  0  0  0  0  0  0
   19.8018   19.8293   20.1515 H   0  0  0  0  0  0  0  0  0  0  0  0
   19.8430   20.9683   21.4878 H   0  0  0  0  0  0  0  0  0  0  0  0
   20.8758   19.0913   21.8784 C   0  0  0  0  0  0  0  0  0  0  0  0
   21.8170   19.4845   21.4698 H   0  0  0  0  0  0  0  0  0  0  0  0
   20.8261   18.0441   21.5497 H   0  0  0  0  0  0  0  0  0  0  0  0
   20.9501   19.1691   23.4256 C   0  0  0  0  0  0  0  0  0  0  0  0
   22.0088   19.1878   23.7163 H   0  0  0  0  0  0  0  0  0  0  0  0
   20.5236   20.1215   23.7657 H   0  0  0  0  0  0  0  0  0  0  0  0
   20.2647   17.9657   24.1307 C   0  0  0  0  0  0  0  0  0  0  0  0
   20.7537   17.0380   23.8057 H   0  0  0  0  0  0  0  0  0  0  0  0
   19.2215   17.8787   23.8069 H   0  0  0  0  0  0  0  0  0  0  0  0
   20.2949   18.0146   25.6764 C   0  0  2  0  0  0  0  0  0  0  0  0
   19.8404   17.0876   26.0395 H   0  0  0  0  0  0  0  0  0  0  0  0
   19.4665   19.1859   26.2327 C   0  0  0  0  0  0  0  0  0  0  0  0
   18.4474   19.1704   25.8268 H   0  0  0  0  0  0  0  0  0  0  0  0
   19.3901   19.1163   27.3247 H   0  0  0  0  0  0  0  0  0  0  0  0
   19.9183   20.1550   25.9905 H   0  0  0  0  0  0  0  0  0  0  0  0
   21.6949   18.0352   26.2251 N   0  3  0  0  0  0  0  0  0  0  0  0
   22.2393   17.2333   25.8947 H   0  0  0  0  0  0  0  0  0  0  0  0
   21.6960   18.0055   27.2487 H   0  0  0  0  0  0  0  0  0  0  0  0
   22.1916   18.8834   25.9417 H   0  0  0  0  0  0  0  0  0  0  0  0
  1  2  1  0  0  0  0
  1  3  1  0  0  0  0
  1  4  1  0  0  0  0
  1  5  1  0  0  0  0
  5  6  1  0  0  0  0
  5  7  1  0  0  0  0
  5  8  1  0  0  0  0
  8  9  1  0  0  0  0
  8 10  1  0  0  0  0
  8 11  1  0  0  0  0
 11 12  1  0  0  0  0
 11 13  1  0  0  0  0
 11 14  1  0  0  0  0
 14 15  1  0  0  0  0
 14 16  1  0  0  0  0
 14 17  1  0  0  0  0
 17 18  1  0  0  0  0
 17 19  1  0  0  0  0
 17 20  1  0  0  0  0
 20 21  1  0  0  0  0
 20 22  1  0  0  0  0
 22 23  1  0  0  0  0
 22 24  1  0  0  0  0
 22 25  1  0  0  0  0
 20 26  1  0  0  0  0
 26 27  1  0  0  0  0
 26 28  1  0  0  0  0
 26 29  1  0  0  0  0
M  END
> <VConfSearch Rank>
460

> <Conf_Id>
117

> <Delta U+W>
3.377

> <U+W>
-24.449

> <U>
27.947

> <W>
-52.396

> <W(PB)>
-54.842

> <W(SA)>
2.447

> <Valence>
6.731

> <Coulomb>
20.067

> <VdW>
1.149

> <VdW6>
-10.427

> <VdW12>
11.575

> <Bond>
0.324

> <Angle>
1.943

> <Pdih>
4.465

> <Idih>
0.000

> <Tether>
0.000

$$$$
VeraChem MOL file


 29 28  0  0  0  0  0  0  0  0999 V2000     
   22.9075   22.8069   23.7596 C   0  0  0  0  0  0  0  0  0  0  0  0
   23.0365   22.8461   22.6700 H   0  0  0  0  0  0  0  0  0  0  0  0
   22.1581   23.5577   24.0425 H   0  0  0  0  0  0  0  0  0  0  0  0
   23.8613   23.0917   24.2224 H   0  0  0  0  0  0  0  0  0  0  0  0
   22.4795   21.3965   24.2169 C   0  0  0  0  0  0  0  0  0  0  0  0
   22.3915   21.3795   25.3123 H   0  0  0  0  0  0  0  0  0  0  0  0
   23.2631   20.6733   23.9505 H   0  0  0  0  0  0  0  0  0  0  0  0
   21.1385   20.9709   23.5793 C   0  0  0  0  0  0  0  0  0  0  0  0
   20.3590   21.6978   23.8465 H   0  0  0  0  0  0  0  0  0  0  0  0
   21.2308   20.9917   22.4846 H   0  0  0  0  0  0  0  0  0  0  0  0
   20.7066   19.5589   24.0351 C   0  0  0  0  0  0  0  0  0  0  0  0
   20.6161   19.5392   25.1300 H   0  0  0  0  0  0  0  0  0  0  0  0
   21.4865   18.8326   23.7673 H   0  0  0  0  0  0  0  0  0  0  0  0
   19.3646   19.1338   23.3976 C   0  0  0  0  0  0  0  0  0  0  0  0
   18.5844   19.8587   23.6688 H   0  0  0  0  0  0  0  0  0  0  0  0
   19.4611   19.1622   22.3041 H   0  0  0  0  0  0  0  0  0  0  0  0
   18.9349   17.7186   23.8548 C   0  0  0  0  0  0  0  0  0  0  0  0
   18.8973   17.6965   24.9521 H   0  0  0  0  0  0  0  0  0  0  0  0
   19.6933   16.9842   23.5522 H   0  0  0  0  0  0  0  0  0  0  0  0
   17.5559   17.2994   23.3012 C   0  0  2  0  0  0  0  0  0  0  0  0
   16.8234   18.0576   23.5949 H   0  0  0  0  0  0  0  0  0  0  0  0
   17.1249   15.9528   23.9040 C   0  0  0  0  0  0  0  0  0  0  0  0
   16.1295   15.6665   23.5429 H   0  0  0  0  0  0  0  0  0  0  0  0
   17.8285   15.1546   23.6362 H   0  0  0  0  0  0  0  0  0  0  0  0
   17.0771   16.0131   24.9985 H   0  0  0  0  0  0  0  0  0  0  0  0
   17.5341   17.2351   21.7985 N   0  3  0  0  0  0  0  0  0  0  0  0
   17.7762   18.1383   21.3822 H   0  0  0  0  0  0  0  0  0  0  0  0
   16.6074   16.9750   21.4486 H   0  0  0  0  0  0  0  0  0  0  0  0
   18.2006   16.5435   21.4451 H   0  0  0  0  0  0  0  0  0  0  0  0
  1  2  1  0  0  0  0
  1  3  1  0  0  0  0
  1  4  1  0  0  0  0
  1  5  1  0  0  0  0
  5  6  1  0  0  0  0
  5  7  1  0  0  0  0
  5  8  1  0  0  0  0
  8  9  1  0  0  0  0
  8 10  1  0  0  0  0
  8 11  1  0  0  0  0
 11 12  1  0  0  0  0
 11 13  1  0  0  0  0
 11 14  1  0  0  0  0
 14 15  1  0  0  0  0
 14 16  1  0  0  0  0
 14 17  1  0  0  0  0
 17 18  1  0  0  0  0
 17 19  1  0  0  0  0
 17 20  1  0  0  0  0
 20 21  1  0  0  0  0
 20 22  1  0  0  0  0
 22 23  1  0  0  0  0
 22 24  1  0  0  0  0
 22 25  1  0  0  0  0
 20 26  1  0  0  0  0
 26 27  1  0  0  0  0
 26 28  1  0  0  0  0
 26 29  1  0  0  0  0
M  END
> <VConfSearch Rank>
461

> <Conf_Id>
164

> <Delta U+W>
0.000

> <U+W>
-27.826

> <U>
23.963

> <W>
-51.789

> <W(PB)>
-54.342

> <W(SA)>
2.554

> <Valence>
3.166

> <Coulomb>
19.734

> <VdW>
1.062

> <VdW6>
-7.938

> <VdW12>
9.001

> <Bond>
0.188

> <Angle>
0.880

> <Pdih>
2.098

> <Idih>
0.000

> <Tether>
0.000

$$$$
VeraChem MOL file


 29 28  0  0  0  0  0  0  0  0999 V2000     
   22.0959   23.0660   25.1124 C   0  0  0  0  0  0  0  0  0  0  0  0
   23.0593   22.8164   24.6488 H   0  0  0  0  0  0  0  0  0  0  0  0
   21.5500   23.7306   24.4301 H   0  0  0  0  0  0  0  0  0  0  0  0
   22.3005   23.6246   26.0351 H   0  0  0  0  0  0  0  0  0  0  0  0
   21.2800   21.7918   25.4164 C   0  0  0  0  0  0  0  0  0  0  0  0
   20.3383   22.0708   25.9095 H   0  0  0  0  0  0  0  0  0  0  0  0
   21.8359   21.1637   26.1267 H   0  0  0  0  0  0  0  0  0  0  0  0
   20.9782   20.9864   24.1334 C   0  0  0  0  0  0  0  0  0  0  0  0
   20.4247   21.6190   23.4258 H   0  0  0  0  0  0  0  0  0  0  0  0
   21.9223   20.7116   23.6429 H   0  0  0  0  0  0  0  0  0  0  0  0
   20.1612   19.7095   24.4339 C   0  0  0  0  0  0  0  0  0  0  0  0
   19.2171   19.9851   24.9240 H   0  0  0  0  0  0  0  0  0  0  0  0
   20.7154   19.0787   25.1426 H   0  0  0  0  0  0  0  0  0  0  0  0
   19.8598   18.9037   23.1499 C   0  0  0  0  0  0  0  0  0  0  0  0
   19.3140   19.5454   22.4458 H   0  0  0  0  0  0  0  0  0  0  0  0
   20.8042   18.6239   22.6626 H   0  0  0  0  0  0  0  0  0  0  0  0
   19.0371   17.6274   23.4532 C   0  0  0  0  0  0  0  0  0  0  0  0
   18.0647   17.9063   23.8804 H   0  0  0  0  0  0  0  0  0  0  0  0
   19.5617   17.0489   24.2251 H   0  0  0  0  0  0  0  0  0  0  0  0
   18.8226   16.7174   22.2222 C   0  0  2  0  0  0  0  0  0  0  0  0
   19.8015   16.4879   21.7902 H   0  0  0  0  0  0  0  0  0  0  0  0
   17.9600   17.3951   21.1424 C   0  0  0  0  0  0  0  0  0  0  0  0
   16.9875   17.7026   21.5466 H   0  0  0  0  0  0  0  0  0  0  0  0
   18.4578   18.2811   20.7319 H   0  0  0  0  0  0  0  0  0  0  0  0
   17.7789   16.7088   20.3059 H   0  0  0  0  0  0  0  0  0  0  0  0
   18.2160   15.4008   22.6210 N   0  3  0  0  0  0  0  0  0  0  0  0
   18.1083   14.7791   21.8145 H   0  0  0  0  0  0  0  0  0  0  0  0
   17.2886   15.5266   23.0357 H   0  0  0  0  0  0  0  0  0  0  0  0
   18.7965   14.9107   23.3079 H   0  0  0  0  0  0  0  0  0  0  0  0
  1  2  1  0  0  0  0
  1  3  1  0  0  0  0
  1  4  1  0  0  0  0
  1  5  1  0  0  0  0
  5  6  1  0  0  0  0
  5  7  1  0  0  0  0
  5  8  1  0  0  0  0
  8  9  1  0  0  0  0
  8 10  1  0  0  0  0
  8 11  1  0  0  0  0
 11 12  1  0  0  0  0
 11 13  1  0  0  0  0
 11 14  1  0  0  0  0
 14 15  1  0  0  0  0
 14 16  1  0  0  0  0
 14 17  1  0  0  0  0
 17 18  1  0  0  0  0
 17 19  1  0  0  0  0
 17 20  1  0  0  0  0
 20 21  1  0  0  0  0
 20 22  1  0  0  0  0
 22 23  1  0  0  0  0
 22 24  1  0  0  0  0
 22 25  1  0  0  0  0
 20 26  1  0  0  0  0
 26 27  1  0  0  0  0
 26 28  1  0  0  0  0
 26 29  1  0  0  0  0
M  END
> <VConfSearch Rank>
462

> <Conf_Id>
58

> <Delta U+W>
0.412

> <U+W>
-27.414

> <U>
24.279

> <W>
-51.694

> <W(PB)>
-54.271

> <W(SA)>
2.577

> <Valence>
3.709

> <Coulomb>
19.380

> <VdW>
1.191

> <VdW6>
-8.093

> <VdW12>
9.284

> <Bond>
0.200

> <Angle>
1.161

> <Pdih>
2.348

> <Idih>
0.000

> <Tether>
0.000

$$$$
VeraChem MOL file


 29 28  0  0  0  0  0  0  0  0999 V2000     
   21.5915   17.6515   19.4320 C   0  0  0  0  0  0  0  0  0  0  0  0
   22.5783   18.0665   19.6755 H   0  0  0  0  0  0  0  0  0  0  0  0
   21.5751   16.6003   19.7482 H   0  0  0  0  0  0  0  0  0  0  0  0
   21.4749   17.6771   18.3408 H   0  0  0  0  0  0  0  0  0  0  0  0
   20.4672   18.4548   20.1192 C   0  0  0  0  0  0  0  0  0  0  0  0
   19.4922   18.0378   19.8303 H   0  0  0  0  0  0  0  0  0  0  0  0
   20.4877   19.4927   19.7583 H   0  0  0  0  0  0  0  0  0  0  0  0
   20.6079   18.4347   21.6573 C   0  0  0  0  0  0  0  0  0  0  0  0
   20.5889   17.3953   22.0131 H   0  0  0  0  0  0  0  0  0  0  0  0
   21.5848   18.8501   21.9410 H   0  0  0  0  0  0  0  0  0  0  0  0
   19.4838   19.2385   22.3489 C   0  0  0  0  0  0  0  0  0  0  0  0
   18.5075   18.8226   22.0639 H   0  0  0  0  0  0  0  0  0  0  0  0
   19.5034   20.2776   21.9920 H   0  0  0  0  0  0  0  0  0  0  0  0
   19.6249   19.2184   23.8877 C   0  0  0  0  0  0  0  0  0  0  0  0
   19.6061   18.1778   24.2375 H   0  0  0  0  0  0  0  0  0  0  0  0
   20.6047   19.6311   24.1620 H   0  0  0  0  0  0  0  0  0  0  0  0
   18.4961   20.0295   24.5757 C   0  0  0  0  0  0  0  0  0  0  0  0
   17.5226   19.6373   24.2533 H   0  0  0  0  0  0  0  0  0  0  0  0
   18.5327   21.0701   24.2271 H   0  0  0  0  0  0  0  0  0  0  0  0
   18.5376   20.0219   26.1221 C   0  0  2  0  0  0  0  0  0  0  0  0
   17.6769   20.5995   26.4732 H   0  0  0  0  0  0  0  0  0  0  0  0
   19.8063   20.6980   26.6705 C   0  0  0  0  0  0  0  0  0  0  0  0
   19.7451   20.8005   27.7609 H   0  0  0  0  0  0  0  0  0  0  0  0
   20.7076   20.1181   26.4390 H   0  0  0  0  0  0  0  0  0  0  0  0
   19.9258   21.7035   26.2482 H   0  0  0  0  0  0  0  0  0  0  0  0
   18.3736   18.6406   26.6938 N   0  3  0  0  0  0  0  0  0  0  0  0
   17.5082   18.2001   26.3686 H   0  0  0  0  0  0  0  0  0  0  0  0
   18.3411   18.6608   27.7172 H   0  0  0  0  0  0  0  0  0  0  0  0
   19.1502   18.0323   26.4231 H   0  0  0  0  0  0  0  0  0  0  0  0
  1  2  1  0  0  0  0
  1  3  1  0  0  0  0
  1  4  1  0  0  0  0
  1  5  1  0  0  0  0
  5  6  1  0  0  0  0
  5  7  1  0  0  0  0
  5  8  1  0  0  0  0
  8  9  1  0  0  0  0
  8 10  1  0  0  0  0
  8 11  1  0  0  0  0
 11 12  1  0  0  0  0
 11 13  1  0  0  0  0
 11 14  1  0  0  0  0
 14 15  1  0  0  0  0
 14 16  1  0  0  0  0
 14 17  1  0  0  0  0
 17 18  1  0  0  0  0
 17 19  1  0  0  0  0
 17 20  1  0  0  0  0
 20 21  1  0  0  0  0
 20 22  1  0  0  0  0
 22 23  1  0  0  0  0
 22 24  1  0  0  0  0
 22 25  1  0  0  0  0
 20 26  1  0  0  0  0
 26 27  1  0  0  0  0
 26 28  1  0  0  0  0
 26 29  1  0  0  0  0
M  END
> <VConfSearch Rank>
463

> <Conf_Id>
137

> <Delta U+W>
0.280

> <U+W>
-27.546

> <U>
24.513

> <W>
-52.059

> <W(PB)>
-54.556

> <W(SA)>
2.497

> <Valence>
3.677

> <Coulomb>
19.662

> <VdW>
1.174

> <VdW6>
-8.569

> <VdW12>
9.743

> <Bond>
0.224

> <Angle>
1.211

> <Pdih>
2.243

> <Idih>
0.000

> <Tether>
0.000

$$$$
VeraChem MOL file


 29 28  0  0  0  0  0  0  0  0999 V2000     
   17.9250   15.1793   24.4484 C   0  0  0  0  0  0  0  0  0  0  0  0
   18.7903   14.8152   23.8792 H   0  0  0  0  0  0  0  0  0  0  0  0
   18.2011   15.2060   25.5107 H   0  0  0  0  0  0  0  0  0  0  0  0
   17.1126   14.4507   24.3295 H   0  0  0  0  0  0  0  0  0  0  0  0
   17.4832   16.5734   23.9551 C   0  0  0  0  0  0  0  0  0  0  0  0
   16.5962   16.8948   24.5189 H   0  0  0  0  0  0  0  0  0  0  0  0
   17.1822   16.5085   22.9001 H   0  0  0  0  0  0  0  0  0  0  0  0
   18.6093   17.6191   24.1123 C   0  0  0  0  0  0  0  0  0  0  0  0
   18.9047   17.6820   25.1687 H   0  0  0  0  0  0  0  0  0  0  0  0
   19.4908   17.2801   23.5532 H   0  0  0  0  0  0  0  0  0  0  0  0
   18.1680   19.0164   23.6137 C   0  0  0  0  0  0  0  0  0  0  0  0
   17.2367   19.2978   24.1245 H   0  0  0  0  0  0  0  0  0  0  0  0
   17.9294   18.9702   22.5422 H   0  0  0  0  0  0  0  0  0  0  0  0
   19.2165   20.1283   23.8650 C   0  0  0  0  0  0  0  0  0  0  0  0
   18.7504   21.0904   23.6172 H   0  0  0  0  0  0  0  0  0  0  0  0
   19.4603   20.1686   24.9356 H   0  0  0  0  0  0  0  0  0  0  0  0
   20.5169   19.9525   23.0379 C   0  0  0  0  0  0  0  0  0  0  0  0
   20.2743   19.9229   21.9674 H   0  0  0  0  0  0  0  0  0  0  0  0
   20.9679   18.9834   23.2825 H   0  0  0  0  0  0  0  0  0  0  0  0
   21.5748   21.0490   23.3008 C   0  0  2  0  0  0  0  0  0  0  0  0
   21.7545   21.1013   24.3790 H   0  0  0  0  0  0  0  0  0  0  0  0
   21.1121   22.4347   22.8151 C   0  0  0  0  0  0  0  0  0  0  0  0
   20.8533   22.4155   21.7492 H   0  0  0  0  0  0  0  0  0  0  0  0
   20.2375   22.7838   23.3756 H   0  0  0  0  0  0  0  0  0  0  0  0
   21.9054   23.1786   22.9587 H   0  0  0  0  0  0  0  0  0  0  0  0
   22.8918   20.6929   22.6688 N   0  3  0  0  0  0  0  0  0  0  0  0
   23.2436   19.7940   23.0108 H   0  0  0  0  0  0  0  0  0  0  0  0
   23.6068   21.3971   22.8727 H   0  0  0  0  0  0  0  0  0  0  0  0
   22.8116   20.6250   21.6506 H   0  0  0  0  0  0  0  0  0  0  0  0
  1  2  1  0  0  0  0
  1  3  1  0  0  0  0
  1  4  1  0  0  0  0
  1  5  1  0  0  0  0
  5  6  1  0  0  0  0
  5  7  1  0  0  0  0
  5  8  1  0  0  0  0
  8  9  1  0  0  0  0
  8 10  1  0  0  0  0
  8 11  1  0  0  0  0
 11 12  1  0  0  0  0
 11 13  1  0  0  0  0
 11 14  1  0  0  0  0
 14 15  1  0  0  0  0
 14 16  1  0  0  0  0
 14 17  1  0  0  0  0
 17 18  1  0  0  0  0
 17 19  1  0  0  0  0
 17 20  1  0  0  0  0
 20 21  1  0  0  0  0
 20 22  1  0  0  0  0
 22 23  1  0  0  0  0
 22 24  1  0  0  0  0
 22 25  1  0  0  0  0
 20 26  1  0  0  0  0
 26 27  1  0  0  0  0
 26 28  1  0  0  0  0
 26 29  1  0  0  0  0
M  END
> <VConfSearch Rank>
464

> <Conf_Id>
40

> <Delta U+W>
1.128

> <U+W>
-26.698

> <U>
25.442

> <W>
-52.140

> <W(PB)>
-54.658

> <W(SA)>
2.519

> <Valence>
4.343

> <Coulomb>
19.740

> <VdW>
1.360

> <VdW6>
-8.739

> <VdW12>
10.099

> <Bond>
0.251

> <Angle>
1.483

> <Pdih>
2.608

> <Idih>
0.000

> <Tether>
0.000

$$$$
VeraChem MOL file


 29 28  0  0  0  0  0  0  0  0999 V2000     
   23.3475   21.0688   25.0777 C   0  0  0  0  0  0  0  0  0  0  0  0
   22.6162   21.2790   25.8677 H   0  0  0  0  0  0  0  0  0  0  0  0
   23.8438   20.1180   25.3113 H   0  0  0  0  0  0  0  0  0  0  0  0
   24.1066   21.8610   25.1129 H   0  0  0  0  0  0  0  0  0  0  0  0
   22.6818   21.0205   23.6836 C   0  0  0  0  0  0  0  0  0  0  0  0
   23.4684   20.9379   22.9206 H   0  0  0  0  0  0  0  0  0  0  0  0
   22.1625   21.9691   23.4880 H   0  0  0  0  0  0  0  0  0  0  0  0
   21.6972   19.8387   23.5090 C   0  0  0  0  0  0  0  0  0  0  0  0
   21.3888   19.8095   22.4564 H   0  0  0  0  0  0  0  0  0  0  0  0
   22.2213   18.8934   23.7055 H   0  0  0  0  0  0  0  0  0  0  0  0
   20.4442   19.9412   24.4157 C   0  0  0  0  0  0  0  0  0  0  0  0
   19.9166   20.8839   24.2154 H   0  0  0  0  0  0  0  0  0  0  0  0
   20.7586   19.9809   25.4665 H   0  0  0  0  0  0  0  0  0  0  0  0
   19.4631   18.7532   24.2574 C   0  0  0  0  0  0  0  0  0  0  0  0
   19.9964   17.8097   24.4387 H   0  0  0  0  0  0  0  0  0  0  0  0
   18.7039   18.8352   25.0461 H   0  0  0  0  0  0  0  0  0  0  0  0
   18.7655   18.7029   22.8734 C   0  0  0  0  0  0  0  0  0  0  0  0
   19.5229   18.5927   22.0879 H   0  0  0  0  0  0  0  0  0  0  0  0
   18.2496   19.6531   22.6824 H   0  0  0  0  0  0  0  0  0  0  0  0
   17.7636   17.5345   22.7469 C   0  0  2  0  0  0  0  0  0  0  0  0
   18.2911   16.6038   22.9774 H   0  0  0  0  0  0  0  0  0  0  0  0
   17.2290   17.4425   21.3087 C   0  0  0  0  0  0  0  0  0  0  0  0
   16.5430   16.5930   21.2029 H   0  0  0  0  0  0  0  0  0  0  0  0
   16.6891   18.3552   21.0268 H   0  0  0  0  0  0  0  0  0  0  0  0
   18.0502   17.2973   20.5957 H   0  0  0  0  0  0  0  0  0  0  0  0
   16.6249   17.6413   23.7243 N   0  3  0  0  0  0  0  0  0  0  0  0
   16.0823   18.4958   23.5727 H   0  0  0  0  0  0  0  0  0  0  0  0
   16.9617   17.6566   24.6907 H   0  0  0  0  0  0  0  0  0  0  0  0
   15.9814   16.8495   23.6367 H   0  0  0  0  0  0  0  0  0  0  0  0
  1  2  1  0  0  0  0
  1  3  1  0  0  0  0
  1  4  1  0  0  0  0
  1  5  1  0  0  0  0
  5  6  1  0  0  0  0
  5  7  1  0  0  0  0
  5  8  1  0  0  0  0
  8  9  1  0  0  0  0
  8 10  1  0  0  0  0
  8 11  1  0  0  0  0
 11 12  1  0  0  0  0
 11 13  1  0  0  0  0
 11 14  1  0  0  0  0
 14 15  1  0  0  0  0
 14 16  1  0  0  0  0
 14 17  1  0  0  0  0
 17 18  1  0  0  0  0
 17 19  1  0  0  0  0
 17 20  1  0  0  0  0
 20 21  1  0  0  0  0
 20 22  1  0  0  0  0
 22 23  1  0  0  0  0
 22 24  1  0  0  0  0
 22 25  1  0  0  0  0
 20 26  1  0  0  0  0
 26 27  1  0  0  0  0
 26 28  1  0  0  0  0
 26 29  1  0  0  0  0
M  END
> <VConfSearch Rank>
465

> <Conf_Id>
134

> <Delta U+W>
1.228

> <U+W>
-26.598

> <U>
25.451

> <W>
-52.048

> <W(PB)>
-54.539

> <W(SA)>
2.490

> <Valence>
4.319

> <Coulomb>
19.732

> <VdW>
1.400

> <VdW6>
-9.173

> <VdW12>
10.573

> <Bond>
0.281

> <Angle>
1.459

> <Pdih>
2.580

> <Idih>
0.000

> <Tether>
0.000

$$$$
VeraChem MOL file


 29 28  0  0  0  0  0  0  0  0999 V2000     
   20.5313   22.7485   21.3413 C   0  0  0  0  0  0  0  0  0  0  0  0
   20.3273   23.1705   22.3331 H   0  0  0  0  0  0  0  0  0  0  0  0
   21.6030   22.5196   21.2779 H   0  0  0  0  0  0  0  0  0  0  0  0
   20.3101   23.5276   20.6004 H   0  0  0  0  0  0  0  0  0  0  0  0
   19.6770   21.4889   21.0719 C   0  0  0  0  0  0  0  0  0  0  0  0
   19.8213   21.1825   20.0265 H   0  0  0  0  0  0  0  0  0  0  0  0
   18.6110   21.7353   21.1755 H   0  0  0  0  0  0  0  0  0  0  0  0
   20.0302   20.2945   21.9910 C   0  0  0  0  0  0  0  0  0  0  0  0
   19.4737   19.4178   21.6357 H   0  0  0  0  0  0  0  0  0  0  0  0
   21.0960   20.0509   21.8822 H   0  0  0  0  0  0  0  0  0  0  0  0
   19.7006   20.5468   23.4842 C   0  0  0  0  0  0  0  0  0  0  0  0
   18.6345   20.7889   23.5930 H   0  0  0  0  0  0  0  0  0  0  0  0
   20.2546   21.4261   23.8372 H   0  0  0  0  0  0  0  0  0  0  0  0
   20.0594   19.3546   24.4052 C   0  0  0  0  0  0  0  0  0  0  0  0
   21.1293   19.1309   24.3010 H   0  0  0  0  0  0  0  0  0  0  0  0
   19.9064   19.6633   25.4486 H   0  0  0  0  0  0  0  0  0  0  0  0
   19.2164   18.0830   24.1283 C   0  0  0  0  0  0  0  0  0  0  0  0
   19.4638   17.6731   23.1410 H   0  0  0  0  0  0  0  0  0  0  0  0
   18.1561   18.3661   24.0941 H   0  0  0  0  0  0  0  0  0  0  0  0
   19.3945   16.9795   25.1957 C   0  0  2  0  0  0  0  0  0  0  0  0
   19.1776   17.4130   26.1769 H   0  0  0  0  0  0  0  0  0  0  0  0
   20.8284   16.4205   25.2162 C   0  0  0  0  0  0  0  0  0  0  0  0
   21.1144   16.0257   24.2333 H   0  0  0  0  0  0  0  0  0  0  0  0
   21.5529   17.1922   25.5009 H   0  0  0  0  0  0  0  0  0  0  0  0
   20.9158   15.6077   25.9477 H   0  0  0  0  0  0  0  0  0  0  0  0
   18.4043   15.8661   24.9958 N   0  3  0  0  0  0  0  0  0  0  0  0
   17.4399   16.2099   25.0218 H   0  0  0  0  0  0  0  0  0  0  0  0
   18.4926   15.1519   25.7244 H   0  0  0  0  0  0  0  0  0  0  0  0
   18.5412   15.4011   24.0942 H   0  0  0  0  0  0  0  0  0  0  0  0
  1  2  1  0  0  0  0
  1  3  1  0  0  0  0
  1  4  1  0  0  0  0
  1  5  1  0  0  0  0
  5  6  1  0  0  0  0
  5  7  1  0  0  0  0
  5  8  1  0  0  0  0
  8  9  1  0  0  0  0
  8 10  1  0  0  0  0
  8 11  1  0  0  0  0
 11 12  1  0  0  0  0
 11 13  1  0  0  0  0
 11 14  1  0  0  0  0
 14 15  1  0  0  0  0
 14 16  1  0  0  0  0
 14 17  1  0  0  0  0
 17 18  1  0  0  0  0
 17 19  1  0  0  0  0
 17 20  1  0  0  0  0
 20 21  1  0  0  0  0
 20 22  1  0  0  0  0
 22 23  1  0  0  0  0
 22 24  1  0  0  0  0
 22 25  1  0  0  0  0
 20 26  1  0  0  0  0
 26 27  1  0  0  0  0
 26 28  1  0  0  0  0
 26 29  1  0  0  0  0
M  END
> <VConfSearch Rank>
466

> <Conf_Id>
73

> <Delta U+W>
1.580

> <U+W>
-26.246

> <U>
25.821

> <W>
-52.067

> <W(PB)>
-54.581

> <W(SA)>
2.514

> <Valence>
4.779

> <Coulomb>
19.614

> <VdW>
1.428

> <VdW6>
-9.390

> <VdW12>
10.818

> <Bond>
0.283

> <Angle>
1.640

> <Pdih>
2.856

> <Idih>
0.000

> <Tether>
0.000

$$$$
VeraChem MOL file


 29 28  0  0  0  0  0  0  0  0999 V2000     
   17.4253   15.4237   24.3813 C   0  0  0  0  0  0  0  0  0  0  0  0
   16.8085   15.8148   23.5617 H   0  0  0  0  0  0  0  0  0  0  0  0
   17.3220   14.3308   24.3889 H   0  0  0  0  0  0  0  0  0  0  0  0
   17.0206   15.8072   25.3270 H   0  0  0  0  0  0  0  0  0  0  0  0
   18.9038   15.8299   24.2055 C   0  0  0  0  0  0  0  0  0  0  0  0
   19.2899   15.4050   23.2683 H   0  0  0  0  0  0  0  0  0  0  0  0
   19.5001   15.3954   25.0201 H   0  0  0  0  0  0  0  0  0  0  0  0
   19.0776   17.3648   24.1923 C   0  0  0  0  0  0  0  0  0  0  0  0
   18.4693   17.7855   23.3813 H   0  0  0  0  0  0  0  0  0  0  0  0
   18.6928   17.7843   25.1320 H   0  0  0  0  0  0  0  0  0  0  0  0
   20.5596   17.7728   24.0112 C   0  0  0  0  0  0  0  0  0  0  0  0
   20.9303   17.4050   23.0444 H   0  0  0  0  0  0  0  0  0  0  0  0
   21.1628   17.2738   24.7822 H   0  0  0  0  0  0  0  0  0  0  0  0
   20.8021   19.2989   24.1136 C   0  0  0  0  0  0  0  0  0  0  0  0
   20.4338   19.6651   25.0819 H   0  0  0  0  0  0  0  0  0  0  0  0
   21.8865   19.4704   24.1105 H   0  0  0  0  0  0  0  0  0  0  0  0
   20.1464   20.1084   22.9652 C   0  0  0  0  0  0  0  0  0  0  0  0
   19.0605   19.9553   22.9873 H   0  0  0  0  0  0  0  0  0  0  0  0
   20.4982   19.7307   21.9960 H   0  0  0  0  0  0  0  0  0  0  0  0
   20.4243   21.6244   23.0627 C   0  0  2  0  0  0  0  0  0  0  0  0
   20.0994   21.9699   24.0490 H   0  0  0  0  0  0  0  0  0  0  0  0
   19.6201   22.3846   21.9960 C   0  0  0  0  0  0  0  0  0  0  0  0
   18.5447   22.2027   22.1149 H   0  0  0  0  0  0  0  0  0  0  0  0
   19.7858   23.4656   22.0820 H   0  0  0  0  0  0  0  0  0  0  0  0
   19.9094   22.0737   20.9843 H   0  0  0  0  0  0  0  0  0  0  0  0
   21.8882   21.9518   22.9490 N   0  3  0  0  0  0  0  0  0  0  0  0
   22.0538   22.9589   23.0333 H   0  0  0  0  0  0  0  0  0  0  0  0
   22.2682   21.6530   22.0468 H   0  0  0  0  0  0  0  0  0  0  0  0
   22.4331   21.4896   23.6818 H   0  0  0  0  0  0  0  0  0  0  0  0
  1  2  1  0  0  0  0
  1  3  1  0  0  0  0
  1  4  1  0  0  0  0
  1  5  1  0  0  0  0
  5  6  1  0  0  0  0
  5  7  1  0  0  0  0
  5  8  1  0  0  0  0
  8  9  1  0  0  0  0
  8 10  1  0  0  0  0
  8 11  1  0  0  0  0
 11 12  1  0  0  0  0
 11 13  1  0  0  0  0
 11 14  1  0  0  0  0
 14 15  1  0  0  0  0
 14 16  1  0  0  0  0
 14 17  1  0  0  0  0
 17 18  1  0  0  0  0
 17 19  1  0  0  0  0
 17 20  1  0  0  0  0
 20 21  1  0  0  0  0
 20 22  1  0  0  0  0
 22 23  1  0  0  0  0
 22 24  1  0  0  0  0
 22 25  1  0  0  0  0
 20 26  1  0  0  0  0
 26 27  1  0  0  0  0
 26 28  1  0  0  0  0
 26 29  1  0  0  0  0
M  END
> <VConfSearch Rank>
467

> <Conf_Id>
111

> <Delta U+W>
0.580

> <U+W>
-27.246

> <U>
24.710

> <W>
-51.957

> <W(PB)>
-54.511

> <W(SA)>
2.555

> <Valence>
3.735

> <Coulomb>
19.760

> <VdW>
1.216

> <VdW6>
-8.624

> <VdW12>
9.840

> <Bond>
0.236

> <Angle>
1.168

> <Pdih>
2.330

> <Idih>
0.000

> <Tether>
0.000

$$$$
VeraChem MOL file


 29 28  0  0  0  0  0  0  0  0999 V2000     
   18.0647   23.1457   23.6220 C   0  0  0  0  0  0  0  0  0  0  0  0
   17.0320   22.7732   23.6118 H   0  0  0  0  0  0  0  0  0  0  0  0
   18.4362   23.0956   24.6538 H   0  0  0  0  0  0  0  0  0  0  0  0
   18.0452   24.2014   23.3217 H   0  0  0  0  0  0  0  0  0  0  0  0
   18.9597   22.3248   22.6697 C   0  0  0  0  0  0  0  0  0  0  0  0
   19.9770   22.7408   22.6761 H   0  0  0  0  0  0  0  0  0  0  0  0
   18.5835   22.4226   21.6417 H   0  0  0  0  0  0  0  0  0  0  0  0
   19.0040   20.8336   23.0699 C   0  0  0  0  0  0  0  0  0  0  0  0
   19.3726   20.7504   24.1007 H   0  0  0  0  0  0  0  0  0  0  0  0
   17.9854   20.4218   23.0602 H   0  0  0  0  0  0  0  0  0  0  0  0
   19.9044   20.0101   22.1181 C   0  0  0  0  0  0  0  0  0  0  0  0
   20.9355   20.3869   22.1650 H   0  0  0  0  0  0  0  0  0  0  0  0
   19.5670   20.1638   21.0837 H   0  0  0  0  0  0  0  0  0  0  0  0
   19.8924   18.4910   22.4174 C   0  0  0  0  0  0  0  0  0  0  0  0
   18.8626   18.1185   22.3368 H   0  0  0  0  0  0  0  0  0  0  0  0
   20.4713   17.9773   21.6374 H   0  0  0  0  0  0  0  0  0  0  0  0
   20.4846   18.1320   23.8046 C   0  0  0  0  0  0  0  0  0  0  0  0
   19.8393   18.5210   24.6023 H   0  0  0  0  0  0  0  0  0  0  0  0
   21.4546   18.6352   23.9121 H   0  0  0  0  0  0  0  0  0  0  0  0
   20.6940   16.6150   24.0134 C   0  0  2  0  0  0  0  0  0  0  0  0
   21.3095   16.2371   23.1912 H   0  0  0  0  0  0  0  0  0  0  0  0
   19.3626   15.8426   24.0203 C   0  0  0  0  0  0  0  0  0  0  0  0
   18.6850   16.2268   24.7930 H   0  0  0  0  0  0  0  0  0  0  0  0
   18.8552   15.9145   23.0514 H   0  0  0  0  0  0  0  0  0  0  0  0
   19.5349   14.7775   24.2180 H   0  0  0  0  0  0  0  0  0  0  0  0
   21.4609   16.3418   25.2773 N   0  3  0  0  0  0  0  0  0  0  0  0
   22.3707   16.8121   25.2755 H   0  0  0  0  0  0  0  0  0  0  0  0
   21.6362   15.3402   25.3992 H   0  0  0  0  0  0  0  0  0  0  0  0
   20.9490   16.6649   26.1028 H   0  0  0  0  0  0  0  0  0  0  0  0
  1  2  1  0  0  0  0
  1  3  1  0  0  0  0
  1  4  1  0  0  0  0
  1  5  1  0  0  0  0
  5  6  1  0  0  0  0
  5  7  1  0  0  0  0
  5  8  1  0  0  0  0
  8  9  1  0  0  0  0
  8 10  1  0  0  0  0
  8 11  1  0  0  0  0
 11 12  1  0  0  0  0
 11 13  1  0  0  0  0
 11 14  1  0  0  0  0
 14 15  1  0  0  0  0
 14 16  1  0  0  0  0
 14 17  1  0  0  0  0
 17 18  1  0  0  0  0
 17 19  1  0  0  0  0
 17 20  1  0  0  0  0
 20 21  1  0  0  0  0
 20 22  1  0  0  0  0
 22 23  1  0  0  0  0
 22 24  1  0  0  0  0
 22 25  1  0  0  0  0
 20 26  1  0  0  0  0
 26 27  1  0  0  0  0
 26 28  1  0  0  0  0
 26 29  1  0  0  0  0
M  END
> <VConfSearch Rank>
468

> <Conf_Id>
39

> <Delta U+W>
0.965

> <U+W>
-26.861

> <U>
25.129

> <W>
-51.990

> <W(PB)>
-54.526

> <W(SA)>
2.536

> <Valence>
4.206

> <Coulomb>
19.678

> <VdW>
1.245

> <VdW6>
-8.834

> <VdW12>
10.079

> <Bond>
0.240

> <Angle>
1.353

> <Pdih>
2.613

> <Idih>
0.000

> <Tether>
0.000

$$$$
VeraChem MOL file


 29 28  0  0  0  0  0  0  0  0999 V2000     
   20.7041   16.1515   26.4315 C   0  0  0  0  0  0  0  0  0  0  0  0
   19.8725   16.4915   27.0622 H   0  0  0  0  0  0  0  0  0  0  0  0
   20.2916   15.5483   25.6134 H   0  0  0  0  0  0  0  0  0  0  0  0
   21.3381   15.4926   27.0387 H   0  0  0  0  0  0  0  0  0  0  0  0
   21.5235   17.3489   25.8989 C   0  0  0  0  0  0  0  0  0  0  0  0
   22.3270   16.9854   25.2431 H   0  0  0  0  0  0  0  0  0  0  0  0
   22.0187   17.8418   26.7472 H   0  0  0  0  0  0  0  0  0  0  0  0
   20.6684   18.3979   25.1476 C   0  0  0  0  0  0  0  0  0  0  0  0
   19.8675   18.7585   25.8076 H   0  0  0  0  0  0  0  0  0  0  0  0
   21.3074   19.2639   24.9332 H   0  0  0  0  0  0  0  0  0  0  0  0
   20.0579   17.8641   23.8267 C   0  0  0  0  0  0  0  0  0  0  0  0
   19.4260   16.9932   24.0432 H   0  0  0  0  0  0  0  0  0  0  0  0
   20.8591   17.5076   23.1649 H   0  0  0  0  0  0  0  0  0  0  0  0
   19.1918   18.9075   23.0787 C   0  0  0  0  0  0  0  0  0  0  0  0
   18.6959   18.3999   22.2411 H   0  0  0  0  0  0  0  0  0  0  0  0
   18.3931   19.2557   23.7470 H   0  0  0  0  0  0  0  0  0  0  0  0
   20.0060   20.1165   22.5420 C   0  0  0  0  0  0  0  0  0  0  0  0
   20.8670   19.7474   21.9697 H   0  0  0  0  0  0  0  0  0  0  0  0
   20.4212   20.6860   23.3826 H   0  0  0  0  0  0  0  0  0  0  0  0
   19.2052   21.0919   21.6474 C   0  0  2  0  0  0  0  0  0  0  0  0
   19.8922   21.8842   21.3341 H   0  0  0  0  0  0  0  0  0  0  0  0
   18.0457   21.7556   22.4105 C   0  0  0  0  0  0  0  0  0  0  0  0
   17.2681   21.0299   22.6770 H   0  0  0  0  0  0  0  0  0  0  0  0
   18.4060   22.2281   23.3327 H   0  0  0  0  0  0  0  0  0  0  0  0
   17.5796   22.5362   21.7969 H   0  0  0  0  0  0  0  0  0  0  0  0
   18.7156   20.4423   20.3824 N   0  3  0  0  0  0  0  0  0  0  0  0
   19.4875   20.0349   19.8466 H   0  0  0  0  0  0  0  0  0  0  0  0
   18.2432   21.1170   19.7740 H   0  0  0  0  0  0  0  0  0  0  0  0
   18.0501   19.6919   20.5837 H   0  0  0  0  0  0  0  0  0  0  0  0
  1  2  1  0  0  0  0
  1  3  1  0  0  0  0
  1  4  1  0  0  0  0
  1  5  1  0  0  0  0
  5  6  1  0  0  0  0
  5  7  1  0  0  0  0
  5  8  1  0  0  0  0
  8  9  1  0  0  0  0
  8 10  1  0  0  0  0
  8 11  1  0  0  0  0
 11 12  1  0  0  0  0
 11 13  1  0  0  0  0
 11 14  1  0  0  0  0
 14 15  1  0  0  0  0
 14 16  1  0  0  0  0
 14 17  1  0  0  0  0
 17 18  1  0  0  0  0
 17 19  1  0  0  0  0
 17 20  1  0  0  0  0
 20 21  1  0  0  0  0
 20 22  1  0  0  0  0
 22 23  1  0  0  0  0
 22 24  1  0  0  0  0
 22 25  1  0  0  0  0
 20 26  1  0  0  0  0
 26 27  1  0  0  0  0
 26 28  1  0  0  0  0
 26 29  1  0  0  0  0
M  END
> <VConfSearch Rank>
469

> <Conf_Id>
155

> <Delta U+W>
1.624

> <U+W>
-26.202

> <U>
25.894

> <W>
-52.096

> <W(PB)>
-54.602

> <W(SA)>
2.506

> <Valence>
4.779

> <Coulomb>
19.659

> <VdW>
1.456

> <VdW6>
-9.843

> <VdW12>
11.299

> <Bond>
0.315

> <Angle>
1.725

> <Pdih>
2.740

> <Idih>
0.000

> <Tether>
0.000

$$$$
VeraChem MOL file


 29 28  0  0  0  0  0  0  0  0999 V2000     
   23.3157   19.7572   21.7169 C   0  0  0  0  0  0  0  0  0  0  0  0
   22.6276   20.4392   21.2022 H   0  0  0  0  0  0  0  0  0  0  0  0
   23.5159   20.1607   22.7180 H   0  0  0  0  0  0  0  0  0  0  0  0
   24.2610   19.7585   21.1590 H   0  0  0  0  0  0  0  0  0  0  0  0
   22.7386   18.3259   21.8001 C   0  0  0  0  0  0  0  0  0  0  0  0
   23.5057   17.6577   22.2159 H   0  0  0  0  0  0  0  0  0  0  0  0
   22.5233   17.9550   20.7883 H   0  0  0  0  0  0  0  0  0  0  0  0
   21.4663   18.2281   22.6757 C   0  0  0  0  0  0  0  0  0  0  0  0
   21.1825   17.1703   22.7623 H   0  0  0  0  0  0  0  0  0  0  0  0
   21.7044   18.5713   23.6908 H   0  0  0  0  0  0  0  0  0  0  0  0
   20.2683   19.0301   22.1070 C   0  0  0  0  0  0  0  0  0  0  0  0
   20.1351   18.7680   21.0484 H   0  0  0  0  0  0  0  0  0  0  0  0
   20.4875   20.1057   22.1344 H   0  0  0  0  0  0  0  0  0  0  0  0
   18.9349   18.7632   22.8483 C   0  0  0  0  0  0  0  0  0  0  0  0
   18.1342   19.2642   22.2895 H   0  0  0  0  0  0  0  0  0  0  0  0
   18.7070   17.6887   22.8202 H   0  0  0  0  0  0  0  0  0  0  0  0
   18.9343   19.2604   24.3174 C   0  0  0  0  0  0  0  0  0  0  0  0
   19.1503   20.3366   24.3447 H   0  0  0  0  0  0  0  0  0  0  0  0
   19.7472   18.7653   24.8622 H   0  0  0  0  0  0  0  0  0  0  0  0
   17.6143   18.9759   25.0705 C   0  0  2  0  0  0  0  0  0  0  0  0
   17.3892   17.9089   24.9778 H   0  0  0  0  0  0  0  0  0  0  0  0
   16.4311   19.7763   24.4966 C   0  0  0  0  0  0  0  0  0  0  0  0
   16.6394   20.8534   24.5051 H   0  0  0  0  0  0  0  0  0  0  0  0
   16.2077   19.4770   23.4663 H   0  0  0  0  0  0  0  0  0  0  0  0
   15.5238   19.6010   25.0877 H   0  0  0  0  0  0  0  0  0  0  0  0
   17.7603   19.2516   26.5413 N   0  3  0  0  0  0  0  0  0  0  0  0
   18.5135   18.6956   26.9565 H   0  0  0  0  0  0  0  0  0  0  0  0
   16.9005   19.0277   27.0507 H   0  0  0  0  0  0  0  0  0  0  0  0
   17.9719   20.2374   26.7177 H   0  0  0  0  0  0  0  0  0  0  0  0
  1  2  1  0  0  0  0
  1  3  1  0  0  0  0
  1  4  1  0  0  0  0
  1  5  1  0  0  0  0
  5  6  1  0  0  0  0
  5  7  1  0  0  0  0
  5  8  1  0  0  0  0
  8  9  1  0  0  0  0
  8 10  1  0  0  0  0
  8 11  1  0  0  0  0
 11 12  1  0  0  0  0
 11 13  1  0  0  0  0
 11 14  1  0  0  0  0
 14 15  1  0  0  0  0
 14 16  1  0  0  0  0
 14 17  1  0  0  0  0
 17 18  1  0  0  0  0
 17 19  1  0  0  0  0
 17 20  1  0  0  0  0
 20 21  1  0  0  0  0
 20 22  1  0  0  0  0
 22 23  1  0  0  0  0
 22 24  1  0  0  0  0
 22 25  1  0  0  0  0
 20 26  1  0  0  0  0
 26 27  1  0  0  0  0
 26 28  1  0  0  0  0
 26 29  1  0  0  0  0
M  END
> <VConfSearch Rank>
470

> <Conf_Id>
135

> <Delta U+W>
1.581

> <U+W>
-26.245

> <U>
25.974

> <W>
-52.219

> <W(PB)>
-54.709

> <W(SA)>
2.490

> <Valence>
4.811

> <Coulomb>
19.700

> <VdW>
1.463

> <VdW6>
-9.391

> <VdW12>
10.854

> <Bond>
0.285

> <Angle>
1.671

> <Pdih>
2.855

> <Idih>
0.000

> <Tether>
0.000

$$$$
VeraChem MOL file


 29 28  0  0  0  0  0  0  0  0999 V2000     
   21.5250   18.0985   27.0363 C   0  0  0  0  0  0  0  0  0  0  0  0
   20.7385   18.7770   27.3917 H   0  0  0  0  0  0  0  0  0  0  0  0
   21.0562   17.1497   26.7475 H   0  0  0  0  0  0  0  0  0  0  0  0
   22.1966   17.8918   27.8796 H   0  0  0  0  0  0  0  0  0  0  0  0
   22.3093   18.7244   25.8610 C   0  0  0  0  0  0  0  0  0  0  0  0
   23.0717   18.0165   25.5069 H   0  0  0  0  0  0  0  0  0  0  0  0
   22.8543   19.6055   26.2275 H   0  0  0  0  0  0  0  0  0  0  0  0
   21.4054   19.1544   24.6807 C   0  0  0  0  0  0  0  0  0  0  0  0
   20.6675   19.8832   25.0410 H   0  0  0  0  0  0  0  0  0  0  0  0
   22.0244   19.6782   23.9394 H   0  0  0  0  0  0  0  0  0  0  0  0
   20.6879   17.9657   23.9928 C   0  0  0  0  0  0  0  0  0  0  0  0
   19.9746   17.5031   24.6877 H   0  0  0  0  0  0  0  0  0  0  0  0
   21.4289   17.1922   23.7485 H   0  0  0  0  0  0  0  0  0  0  0  0
   19.9467   18.3651   22.6934 C   0  0  0  0  0  0  0  0  0  0  0  0
   20.6698   18.7900   21.9848 H   0  0  0  0  0  0  0  0  0  0  0  0
   19.5492   17.4545   22.2242 H   0  0  0  0  0  0  0  0  0  0  0  0
   18.7823   19.3605   22.9322 C   0  0  0  0  0  0  0  0  0  0  0  0
   19.1762   20.3258   23.2751 H   0  0  0  0  0  0  0  0  0  0  0  0
   18.1516   18.9733   23.7433 H   0  0  0  0  0  0  0  0  0  0  0  0
   17.8955   19.5852   21.6865 C   0  0  2  0  0  0  0  0  0  0  0  0
   17.5411   18.6105   21.3372 H   0  0  0  0  0  0  0  0  0  0  0  0
   18.6685   20.2620   20.5404 C   0  0  0  0  0  0  0  0  0  0  0  0
   19.0957   21.2202   20.8615 H   0  0  0  0  0  0  0  0  0  0  0  0
   19.4845   19.6254   20.1795 H   0  0  0  0  0  0  0  0  0  0  0  0
   18.0054   20.4539   19.6878 H   0  0  0  0  0  0  0  0  0  0  0  0
   16.6692   20.3841   22.0303 N   0  3  0  0  0  0  0  0  0  0  0  0
   16.0591   20.5014   21.2161 H   0  0  0  0  0  0  0  0  0  0  0  0
   16.9140   21.3196   22.3658 H   0  0  0  0  0  0  0  0  0  0  0  0
   16.1158   19.9293   22.7623 H   0  0  0  0  0  0  0  0  0  0  0  0
  1  2  1  0  0  0  0
  1  3  1  0  0  0  0
  1  4  1  0  0  0  0
  1  5  1  0  0  0  0
  5  6  1  0  0  0  0
  5  7  1  0  0  0  0
  5  8  1  0  0  0  0
  8  9  1  0  0  0  0
  8 10  1  0  0  0  0
  8 11  1  0  0  0  0
 11 12  1  0  0  0  0
 11 13  1  0  0  0  0
 11 14  1  0  0  0  0
 14 15  1  0  0  0  0
 14 16  1  0  0  0  0
 14 17  1  0  0  0  0
 17 18  1  0  0  0  0
 17 19  1  0  0  0  0
 17 20  1  0  0  0  0
 20 21  1  0  0  0  0
 20 22  1  0  0  0  0
 22 23  1  0  0  0  0
 22 24  1  0  0  0  0
 22 25  1  0  0  0  0
 20 26  1  0  0  0  0
 26 27  1  0  0  0  0
 26 28  1  0  0  0  0
 26 29  1  0  0  0  0
M  END
> <VConfSearch Rank>
471

> <Conf_Id>
130

> <Delta U+W>
1.359

> <U+W>
-26.467

> <U>
25.687

> <W>
-52.154

> <W(PB)>
-54.643

> <W(SA)>
2.489

> <Valence>
4.682

> <Coulomb>
19.653

> <VdW>
1.352

> <VdW6>
-9.477

> <VdW12>
10.829

> <Bond>
0.274

> <Angle>
1.550

> <Pdih>
2.858

> <Idih>
0.000

> <Tether>
0.000

$$$$
VeraChem MOL file


 29 28  0  0  0  0  0  0  0  0999 V2000     
   20.3815   23.0865   23.2462 C   0  0  0  0  0  0  0  0  0  0  0  0
   20.0144   24.0707   23.5647 H   0  0  0  0  0  0  0  0  0  0  0  0
   21.4363   23.1972   22.9631 H   0  0  0  0  0  0  0  0  0  0  0  0
   19.8138   22.7965   22.3534 H   0  0  0  0  0  0  0  0  0  0  0  0
   20.2170   22.0540   24.3844 C   0  0  0  0  0  0  0  0  0  0  0  0
   19.1514   21.9369   24.6261 H   0  0  0  0  0  0  0  0  0  0  0  0
   20.6963   22.4486   25.2912 H   0  0  0  0  0  0  0  0  0  0  0  0
   20.8345   20.6725   24.0585 C   0  0  0  0  0  0  0  0  0  0  0  0
   21.9034   20.7937   23.8357 H   0  0  0  0  0  0  0  0  0  0  0  0
   20.7785   20.0519   24.9616 H   0  0  0  0  0  0  0  0  0  0  0  0
   20.1355   19.9487   22.8792 C   0  0  0  0  0  0  0  0  0  0  0  0
   20.2581   20.5484   21.9680 H   0  0  0  0  0  0  0  0  0  0  0  0
   19.0567   19.8927   23.0681 H   0  0  0  0  0  0  0  0  0  0  0  0
   20.7131   18.5359   22.6039 C   0  0  0  0  0  0  0  0  0  0  0  0
   20.4027   18.2002   21.6047 H   0  0  0  0  0  0  0  0  0  0  0  0
   21.8083   18.6129   22.5585 H   0  0  0  0  0  0  0  0  0  0  0  0
   20.3252   17.4578   23.6537 C   0  0  0  0  0  0  0  0  0  0  0  0
   20.1332   17.9137   24.6322 H   0  0  0  0  0  0  0  0  0  0  0  0
   21.1945   16.8021   23.7954 H   0  0  0  0  0  0  0  0  0  0  0  0
   19.1286   16.5643   23.2482 C   0  0  2  0  0  0  0  0  0  0  0  0
   19.3653   16.0920   22.2899 H   0  0  0  0  0  0  0  0  0  0  0  0
   17.8226   17.3596   23.0826 C   0  0  0  0  0  0  0  0  0  0  0  0
   17.8927   18.0604   22.2428 H   0  0  0  0  0  0  0  0  0  0  0  0
   16.9832   16.6857   22.8713 H   0  0  0  0  0  0  0  0  0  0  0  0
   17.5844   17.9265   23.9912 H   0  0  0  0  0  0  0  0  0  0  0  0
   18.9333   15.4451   24.2330 N   0  3  0  0  0  0  0  0  0  0  0  0
   19.7770   14.8719   24.3247 H   0  0  0  0  0  0  0  0  0  0  0  0
   18.1723   14.8231   23.9458 H   0  0  0  0  0  0  0  0  0  0  0  0
   18.7011   15.8024   25.1637 H   0  0  0  0  0  0  0  0  0  0  0  0
  1  2  1  0  0  0  0
  1  3  1  0  0  0  0
  1  4  1  0  0  0  0
  1  5  1  0  0  0  0
  5  6  1  0  0  0  0
  5  7  1  0  0  0  0
  5  8  1  0  0  0  0
  8  9  1  0  0  0  0
  8 10  1  0  0  0  0
  8 11  1  0  0  0  0
 11 12  1  0  0  0  0
 11 13  1  0  0  0  0
 11 14  1  0  0  0  0
 14 15  1  0  0  0  0
 14 16  1  0  0  0  0
 14 17  1  0  0  0  0
 17 18  1  0  0  0  0
 17 19  1  0  0  0  0
 17 20  1  0  0  0  0
 20 21  1  0  0  0  0
 20 22  1  0  0  0  0
 22 23  1  0  0  0  0
 22 24  1  0  0  0  0
 22 25  1  0  0  0  0
 20 26  1  0  0  0  0
 26 27  1  0  0  0  0
 26 28  1  0  0  0  0
 26 29  1  0  0  0  0
M  END
> <VConfSearch Rank>
472

> <Conf_Id>
157

> <Delta U+W>
4.354

> <U+W>
-23.472

> <U>
28.780

> <W>
-52.252

> <W(PB)>
-54.715

> <W(SA)>
2.462

> <Valence>
7.566

> <Coulomb>
19.822

> <VdW>
1.392

> <VdW6>
-10.248

> <VdW12>
11.641

> <Bond>
0.340

> <Angle>
2.096

> <Pdih>
5.129

> <Idih>
0.000

> <Tether>
0.000

$$$$
VeraChem MOL file


 29 28  0  0  0  0  0  0  0  0999 V2000     
   16.9147   20.8731   21.8851 C   0  0  0  0  0  0  0  0  0  0  0  0
   15.8254   20.8474   21.7523 H   0  0  0  0  0  0  0  0  0  0  0  0
   17.1192   20.8416   22.9609 H   0  0  0  0  0  0  0  0  0  0  0  0
   17.2741   21.8369   21.5016 H   0  0  0  0  0  0  0  0  0  0  0  0
   17.5794   19.6977   21.1312 C   0  0  0  0  0  0  0  0  0  0  0  0
   17.3165   19.7860   20.0678 H   0  0  0  0  0  0  0  0  0  0  0  0
   17.1579   18.7403   21.4679 H   0  0  0  0  0  0  0  0  0  0  0  0
   19.1244   19.6817   21.2588 C   0  0  0  0  0  0  0  0  0  0  0  0
   19.5424   19.3402   20.3017 H   0  0  0  0  0  0  0  0  0  0  0  0
   19.5047   20.7028   21.3993 H   0  0  0  0  0  0  0  0  0  0  0  0
   19.6781   18.7496   22.3674 C   0  0  0  0  0  0  0  0  0  0  0  0
   20.7737   18.7705   22.3051 H   0  0  0  0  0  0  0  0  0  0  0  0
   19.3794   17.7139   22.1545 H   0  0  0  0  0  0  0  0  0  0  0  0
   19.2298   19.1286   23.8004 C   0  0  0  0  0  0  0  0  0  0  0  0
   19.4476   20.1874   23.9927 H   0  0  0  0  0  0  0  0  0  0  0  0
   18.1408   19.0175   23.8772 H   0  0  0  0  0  0  0  0  0  0  0  0
   19.8740   18.2437   24.8986 C   0  0  0  0  0  0  0  0  0  0  0  0
   19.5746   17.2003   24.7322 H   0  0  0  0  0  0  0  0  0  0  0  0
   19.4591   18.5292   25.8744 H   0  0  0  0  0  0  0  0  0  0  0  0
   21.4162   18.3214   24.9598 C   0  0  2  0  0  0  0  0  0  0  0  0
   21.8172   18.0043   23.9928 H   0  0  0  0  0  0  0  0  0  0  0  0
   21.9571   17.3678   26.0368 C   0  0  0  0  0  0  0  0  0  0  0  0
   21.5905   17.6449   27.0331 H   0  0  0  0  0  0  0  0  0  0  0  0
   21.6472   16.3351   25.8337 H   0  0  0  0  0  0  0  0  0  0  0  0
   23.0537   17.3882   26.0581 H   0  0  0  0  0  0  0  0  0  0  0  0
   21.9111   19.7219   25.1953 N   0  3  0  0  0  0  0  0  0  0  0  0
   21.5876   20.3575   24.4609 H   0  0  0  0  0  0  0  0  0  0  0  0
   22.9343   19.7607   25.2080 H   0  0  0  0  0  0  0  0  0  0  0  0
   21.5783   20.0889   26.0908 H   0  0  0  0  0  0  0  0  0  0  0  0
  1  2  1  0  0  0  0
  1  3  1  0  0  0  0
  1  4  1  0  0  0  0
  1  5  1  0  0  0  0
  5  6  1  0  0  0  0
  5  7  1  0  0  0  0
  5  8  1  0  0  0  0
  8  9  1  0  0  0  0
  8 10  1  0  0  0  0
  8 11  1  0  0  0  0
 11 12  1  0  0  0  0
 11 13  1  0  0  0  0
 11 14  1  0  0  0  0
 14 15  1  0  0  0  0
 14 16  1  0  0  0  0
 14 17  1  0  0  0  0
 17 18  1  0  0  0  0
 17 19  1  0  0  0  0
 17 20  1  0  0  0  0
 20 21  1  0  0  0  0
 20 22  1  0  0  0  0
 22 23  1  0  0  0  0
 22 24  1  0  0  0  0
 22 25  1  0  0  0  0
 20 26  1  0  0  0  0
 26 27  1  0  0  0  0
 26 28  1  0  0  0  0
 26 29  1  0  0  0  0
M  END
> <VConfSearch Rank>
473

> <Conf_Id>
158

> <Delta U+W>
3.648

> <U+W>
-24.178

> <U>
28.057

> <W>
-52.235

> <W(PB)>
-54.696

> <W(SA)>
2.460

> <Valence>
6.543

> <Coulomb>
20.387

> <VdW>
1.127

> <VdW6>
-10.342

> <VdW12>
11.469

> <Bond>
0.308

> <Angle>
1.938

> <Pdih>
4.297

> <Idih>
0.000

> <Tether>
0.000

$$$$
VeraChem MOL file


 29 28  0  0  0  0  0  0  0  0999 V2000     
   18.0648   22.0160   22.2239 C   0  0  0  0  0  0  0  0  0  0  0  0
   19.0275   22.3680   21.8309 H   0  0  0  0  0  0  0  0  0  0  0  0
   17.8746   21.0132   21.8218 H   0  0  0  0  0  0  0  0  0  0  0  0
   17.2812   22.6802   21.8371 H   0  0  0  0  0  0  0  0  0  0  0  0
   18.0612   22.0186   23.7695 C   0  0  0  0  0  0  0  0  0  0  0  0
   17.1005   21.6322   24.1377 H   0  0  0  0  0  0  0  0  0  0  0  0
   18.1300   23.0574   24.1216 H   0  0  0  0  0  0  0  0  0  0  0  0
   19.2242   21.2068   24.3890 C   0  0  0  0  0  0  0  0  0  0  0  0
   20.1824   21.6086   24.0318 H   0  0  0  0  0  0  0  0  0  0  0  0
   19.2129   21.3561   25.4775 H   0  0  0  0  0  0  0  0  0  0  0  0
   19.1484   19.6914   24.0858 C   0  0  0  0  0  0  0  0  0  0  0  0
   19.2133   19.5280   23.0045 H   0  0  0  0  0  0  0  0  0  0  0  0
   18.1702   19.3050   24.4035 H   0  0  0  0  0  0  0  0  0  0  0  0
   20.2694   18.9066   24.8104 C   0  0  0  0  0  0  0  0  0  0  0  0
   21.2542   19.3274   24.5645 H   0  0  0  0  0  0  0  0  0  0  0  0
   20.1414   19.0484   25.8926 H   0  0  0  0  0  0  0  0  0  0  0  0
   20.2501   17.3846   24.5084 C   0  0  0  0  0  0  0  0  0  0  0  0
   19.2315   17.0582   24.2597 H   0  0  0  0  0  0  0  0  0  0  0  0
   20.5152   16.8564   25.4339 H   0  0  0  0  0  0  0  0  0  0  0  0
   21.2413   16.9263   23.4116 C   0  0  2  0  0  0  0  0  0  0  0  0
   22.2487   17.2247   23.7175 H   0  0  0  0  0  0  0  0  0  0  0  0
   20.9503   17.5584   22.0400 C   0  0  0  0  0  0  0  0  0  0  0  0
   19.9163   17.3690   21.7260 H   0  0  0  0  0  0  0  0  0  0  0  0
   21.1159   18.6417   22.0633 H   0  0  0  0  0  0  0  0  0  0  0  0
   21.6196   17.1469   21.2745 H   0  0  0  0  0  0  0  0  0  0  0  0
   21.2623   15.4273   23.2979 N   0  3  0  0  0  0  0  0  0  0  0  0
   21.5023   14.9846   24.1897 H   0  0  0  0  0  0  0  0  0  0  0  0
   21.9509   15.1143   22.6076 H   0  0  0  0  0  0  0  0  0  0  0  0
   20.3513   15.0616   23.0081 H   0  0  0  0  0  0  0  0  0  0  0  0
  1  2  1  0  0  0  0
  1  3  1  0  0  0  0
  1  4  1  0  0  0  0
  1  5  1  0  0  0  0
  5  6  1  0  0  0  0
  5  7  1  0  0  0  0
  5  8  1  0  0  0  0
  8  9  1  0  0  0  0
  8 10  1  0  0  0  0
  8 11  1  0  0  0  0
 11 12  1  0  0  0  0
 11 13  1  0  0  0  0
 11 14  1  0  0  0  0
 14 15  1  0  0  0  0
 14 16  1  0  0  0  0
 14 17  1  0  0  0  0
 17 18  1  0  0  0  0
 17 19  1  0  0  0  0
 17 20  1  0  0  0  0
 20 21  1  0  0  0  0
 20 22  1  0  0  0  0
 22 23  1  0  0  0  0
 22 24  1  0  0  0  0
 22 25  1  0  0  0  0
 20 26  1  0  0  0  0
 26 27  1  0  0  0  0
 26 28  1  0  0  0  0
 26 29  1  0  0  0  0
M  END
> <VConfSearch Rank>
474

> <Conf_Id>
156

> <Delta U+W>
3.393

> <U+W>
-24.433

> <U>
27.713

> <W>
-52.146

> <W(PB)>
-54.603

> <W(SA)>
2.458

> <Valence>
6.758

> <Coulomb>
19.720

> <VdW>
1.235

> <VdW6>
-9.782

> <VdW12>
11.017

> <Bond>
0.287

> <Angle>
1.880

> <Pdih>
4.591

> <Idih>
0.000

> <Tether>
0.000

$$$$
VeraChem MOL file


 29 28  0  0  0  0  0  0  0  0999 V2000     
   18.1326   16.3720   25.7105 C   0  0  0  0  0  0  0  0  0  0  0  0
   17.1681   16.8126   25.4264 H   0  0  0  0  0  0  0  0  0  0  0  0
   18.1051   15.3020   25.4666 H   0  0  0  0  0  0  0  0  0  0  0  0
   18.2391   16.4667   26.7989 H   0  0  0  0  0  0  0  0  0  0  0  0
   19.2986   17.0767   24.9857 C   0  0  0  0  0  0  0  0  0  0  0  0
   20.2509   16.6354   25.3113 H   0  0  0  0  0  0  0  0  0  0  0  0
   19.3173   18.1330   25.2851 H   0  0  0  0  0  0  0  0  0  0  0  0
   19.1680   16.9606   23.4488 C   0  0  0  0  0  0  0  0  0  0  0  0
   19.0735   15.8999   23.1786 H   0  0  0  0  0  0  0  0  0  0  0  0
   18.2363   17.4380   23.1179 H   0  0  0  0  0  0  0  0  0  0  0  0
   20.3741   17.5537   22.6752 C   0  0  0  0  0  0  0  0  0  0  0  0
   20.2089   17.4071   21.5990 H   0  0  0  0  0  0  0  0  0  0  0  0
   21.2733   16.9725   22.9220 H   0  0  0  0  0  0  0  0  0  0  0  0
   20.6653   19.0539   22.9393 C   0  0  0  0  0  0  0  0  0  0  0  0
   20.9515   19.1944   23.9891 H   0  0  0  0  0  0  0  0  0  0  0  0
   21.5452   19.3326   22.3455 H   0  0  0  0  0  0  0  0  0  0  0  0
   19.4769   19.9860   22.5768 C   0  0  0  0  0  0  0  0  0  0  0  0
   18.6062   19.7261   23.1911 H   0  0  0  0  0  0  0  0  0  0  0  0
   19.1787   19.8063   21.5355 H   0  0  0  0  0  0  0  0  0  0  0  0
   19.7544   21.4965   22.7625 C   0  0  2  0  0  0  0  0  0  0  0  0
   18.8273   22.0278   22.5259 H   0  0  0  0  0  0  0  0  0  0  0  0
   20.8407   22.0107   21.8018 C   0  0  0  0  0  0  0  0  0  0  0  0
   20.9131   23.1039   21.8558 H   0  0  0  0  0  0  0  0  0  0  0  0
   21.8271   21.5985   22.0448 H   0  0  0  0  0  0  0  0  0  0  0  0
   20.6020   21.7444   20.7646 H   0  0  0  0  0  0  0  0  0  0  0  0
   20.0843   21.8482   24.1870 N   0  3  0  0  0  0  0  0  0  0  0  0
   19.3429   21.5517   24.8281 H   0  0  0  0  0  0  0  0  0  0  0  0
   20.2050   22.8584   24.3041 H   0  0  0  0  0  0  0  0  0  0  0  0
   20.9522   21.3982   24.4881 H   0  0  0  0  0  0  0  0  0  0  0  0
  1  2  1  0  0  0  0
  1  3  1  0  0  0  0
  1  4  1  0  0  0  0
  1  5  1  0  0  0  0
  5  6  1  0  0  0  0
  5  7  1  0  0  0  0
  5  8  1  0  0  0  0
  8  9  1  0  0  0  0
  8 10  1  0  0  0  0
  8 11  1  0  0  0  0
 11 12  1  0  0  0  0
 11 13  1  0  0  0  0
 11 14  1  0  0  0  0
 14 15  1  0  0  0  0
 14 16  1  0  0  0  0
 14 17  1  0  0  0  0
 17 18  1  0  0  0  0
 17 19  1  0  0  0  0
 17 20  1  0  0  0  0
 20 21  1  0  0  0  0
 20 22  1  0  0  0  0
 22 23  1  0  0  0  0
 22 24  1  0  0  0  0
 22 25  1  0  0  0  0
 20 26  1  0  0  0  0
 26 27  1  0  0  0  0
 26 28  1  0  0  0  0
 26 29  1  0  0  0  0
M  END
> <VConfSearch Rank>
475

> <Conf_Id>
78

> <Delta U+W>
1.477

> <U+W>
-26.349

> <U>
26.385

> <W>
-52.734

> <W(PB)>
-55.179

> <W(SA)>
2.445

> <Valence>
4.726

> <Coulomb>
20.482

> <VdW>
1.177

> <VdW6>
-10.349

> <VdW12>
11.526

> <Bond>
0.319

> <Angle>
1.933

> <Pdih>
2.474

> <Idih>
0.000

> <Tether>
0.000

$$$$
VeraChem MOL file


 29 28  0  0  0  0  0  0  0  0999 V2000     
   22.7372   19.3505   25.7972 C   0  0  0  0  0  0  0  0  0  0  0  0
   23.5209   19.9294   25.2916 H   0  0  0  0  0  0  0  0  0  0  0  0
   21.8315   19.9662   25.8292 H   0  0  0  0  0  0  0  0  0  0  0  0
   23.0625   19.1827   26.8320 H   0  0  0  0  0  0  0  0  0  0  0  0
   22.4991   18.0014   25.0796 C   0  0  0  0  0  0  0  0  0  0  0  0
   21.7701   17.3958   25.6358 H   0  0  0  0  0  0  0  0  0  0  0  0
   23.4410   17.4356   25.1014 H   0  0  0  0  0  0  0  0  0  0  0  0
   22.0527   18.1618   23.6035 C   0  0  0  0  0  0  0  0  0  0  0  0
   22.4512   19.0964   23.1853 H   0  0  0  0  0  0  0  0  0  0  0  0
   22.5149   17.3555   23.0175 H   0  0  0  0  0  0  0  0  0  0  0  0
   20.5213   18.0861   23.3730 C   0  0  0  0  0  0  0  0  0  0  0  0
   20.1523   17.1031   23.6965 H   0  0  0  0  0  0  0  0  0  0  0  0
   20.3436   18.1393   22.2911 H   0  0  0  0  0  0  0  0  0  0  0  0
   19.7143   19.1984   24.0867 C   0  0  0  0  0  0  0  0  0  0  0  0
   19.8308   19.0870   25.1721 H   0  0  0  0  0  0  0  0  0  0  0  0
   20.1276   20.1831   23.8320 H   0  0  0  0  0  0  0  0  0  0  0  0
   18.1970   19.1564   23.7680 C   0  0  0  0  0  0  0  0  0  0  0  0
   17.6923   19.9460   24.3404 H   0  0  0  0  0  0  0  0  0  0  0  0
   17.7914   18.2058   24.1386 H   0  0  0  0  0  0  0  0  0  0  0  0
   17.8309   19.3019   22.2718 C   0  0  2  0  0  0  0  0  0  0  0  0
   18.3237   18.4998   21.7149 H   0  0  0  0  0  0  0  0  0  0  0  0
   18.2901   20.6511   21.6913 C   0  0  0  0  0  0  0  0  0  0  0  0
   17.9732   20.7502   20.6458 H   0  0  0  0  0  0  0  0  0  0  0  0
   17.8672   21.4908   22.2566 H   0  0  0  0  0  0  0  0  0  0  0  0
   19.3827   20.7398   21.7087 H   0  0  0  0  0  0  0  0  0  0  0  0
   16.3546   19.1171   22.0560 N   0  3  0  0  0  0  0  0  0  0  0  0
   15.8127   19.8359   22.5433 H   0  0  0  0  0  0  0  0  0  0  0  0
   16.0347   18.2061   22.3975 H   0  0  0  0  0  0  0  0  0  0  0  0
   16.1119   19.1725   21.0627 H   0  0  0  0  0  0  0  0  0  0  0  0
  1  2  1  0  0  0  0
  1  3  1  0  0  0  0
  1  4  1  0  0  0  0
  1  5  1  0  0  0  0
  5  6  1  0  0  0  0
  5  7  1  0  0  0  0
  5  8  1  0  0  0  0
  8  9  1  0  0  0  0
  8 10  1  0  0  0  0
  8 11  1  0  0  0  0
 11 12  1  0  0  0  0
 11 13  1  0  0  0  0
 11 14  1  0  0  0  0
 14 15  1  0  0  0  0
 14 16  1  0  0  0  0
 14 17  1  0  0  0  0
 17 18  1  0  0  0  0
 17 19  1  0  0  0  0
 17 20  1  0  0  0  0
 20 21  1  0  0  0  0
 20 22  1  0  0  0  0
 22 23  1  0  0  0  0
 22 24  1  0  0  0  0
 22 25  1  0  0  0  0
 20 26  1  0  0  0  0
 26 27  1  0  0  0  0
 26 28  1  0  0  0  0
 26 29  1  0  0  0  0
M  END
> <VConfSearch Rank>
476

> <Conf_Id>
145

> <Delta U+W>
3.784

> <U+W>
-24.042

> <U>
28.220

> <W>
-52.262

> <W(PB)>
-54.724

> <W(SA)>
2.462

> <Valence>
7.040

> <Coulomb>
19.984

> <VdW>
1.197

> <VdW6>
-10.566

> <VdW12>
11.763

> <Bond>
0.320

> <Angle>
2.280

> <Pdih>
4.439

> <Idih>
0.000

> <Tether>
0.000

$$$$
VeraChem MOL file


 29 28  0  0  0  0  0  0  0  0999 V2000     
   19.8278   17.3530   27.0336 C   0  0  0  0  0  0  0  0  0  0  0  0
   19.0948   17.5338   27.8307 H   0  0  0  0  0  0  0  0  0  0  0  0
   19.4570   16.5305   26.4081 H   0  0  0  0  0  0  0  0  0  0  0  0
   20.7631   17.0234   27.5042 H   0  0  0  0  0  0  0  0  0  0  0  0
   20.0596   18.6267   26.1936 C   0  0  0  0  0  0  0  0  0  0  0  0
   20.8268   18.4236   25.4369 H   0  0  0  0  0  0  0  0  0  0  0  0
   20.4622   19.4185   26.8407 H   0  0  0  0  0  0  0  0  0  0  0  0
   18.7507   19.1175   25.5292 C   0  0  0  0  0  0  0  0  0  0  0  0
   18.2983   18.3137   24.9323 H   0  0  0  0  0  0  0  0  0  0  0  0
   18.0289   19.3454   26.3257 H   0  0  0  0  0  0  0  0  0  0  0  0
   18.9396   20.3876   24.6593 C   0  0  0  0  0  0  0  0  0  0  0  0
   19.7834   20.9840   25.0326 H   0  0  0  0  0  0  0  0  0  0  0  0
   18.0515   21.0225   24.7847 H   0  0  0  0  0  0  0  0  0  0  0  0
   19.1081   20.1167   23.1419 C   0  0  0  0  0  0  0  0  0  0  0  0
   18.2060   19.6160   22.7662 H   0  0  0  0  0  0  0  0  0  0  0  0
   19.1557   21.0878   22.6331 H   0  0  0  0  0  0  0  0  0  0  0  0
   20.3632   19.2772   22.7829 C   0  0  0  0  0  0  0  0  0  0  0  0
   20.2657   18.2768   23.2219 H   0  0  0  0  0  0  0  0  0  0  0  0
   21.2508   19.7316   23.2421 H   0  0  0  0  0  0  0  0  0  0  0  0
   20.6191   19.1034   21.2671 C   0  0  2  0  0  0  0  0  0  0  0  0
   21.4794   18.4357   21.1583 H   0  0  0  0  0  0  0  0  0  0  0  0
   20.9774   20.4335   20.5814 C   0  0  0  0  0  0  0  0  0  0  0  0
   21.2925   20.2573   19.5456 H   0  0  0  0  0  0  0  0  0  0  0  0
   20.1251   21.1226   20.5581 H   0  0  0  0  0  0  0  0  0  0  0  0
   21.8068   20.9293   21.1009 H   0  0  0  0  0  0  0  0  0  0  0  0
   19.4744   18.4261   20.5653 N   0  3  0  0  0  0  0  0  0  0  0  0
   18.6247   18.9941   20.6099 H   0  0  0  0  0  0  0  0  0  0  0  0
   19.2611   17.5172   20.9860 H   0  0  0  0  0  0  0  0  0  0  0  0
   19.6848   18.2644   19.5763 H   0  0  0  0  0  0  0  0  0  0  0  0
  1  2  1  0  0  0  0
  1  3  1  0  0  0  0
  1  4  1  0  0  0  0
  1  5  1  0  0  0  0
  5  6  1  0  0  0  0
  5  7  1  0  0  0  0
  5  8  1  0  0  0  0
  8  9  1  0  0  0  0
  8 10  1  0  0  0  0
  8 11  1  0  0  0  0
 11 12  1  0  0  0  0
 11 13  1  0  0  0  0
 11 14  1  0  0  0  0
 14 15  1  0  0  0  0
 14 16  1  0  0  0  0
 14 17  1  0  0  0  0
 17 18  1  0  0  0  0
 17 19  1  0  0  0  0
 17 20  1  0  0  0  0
 20 21  1  0  0  0  0
 20 22  1  0  0  0  0
 22 23  1  0  0  0  0
 22 24  1  0  0  0  0
 22 25  1  0  0  0  0
 20 26  1  0  0  0  0
 26 27  1  0  0  0  0
 26 28  1  0  0  0  0
 26 29  1  0  0  0  0
M  END
> <VConfSearch Rank>
477

> <Conf_Id>
71

> <Delta U+W>
3.542

> <U+W>
-24.284

> <U>
28.217

> <W>
-52.501

> <W(PB)>
-54.947

> <W(SA)>
2.446

> <Valence>
6.821

> <Coulomb>
20.147

> <VdW>
1.249

> <VdW6>
-10.237

> <VdW12>
11.486

> <Bond>
0.317

> <Angle>
1.990

> <Pdih>
4.515

> <Idih>
0.000

> <Tether>
0.000

$$$$
VeraChem MOL file


 29 28  0  0  0  0  0  0  0  0999 V2000     
   22.6422   20.8737   21.3570 C   0  0  0  0  0  0  0  0  0  0  0  0
   22.1868   20.2529   20.5745 H   0  0  0  0  0  0  0  0  0  0  0  0
   22.6091   21.9200   21.0261 H   0  0  0  0  0  0  0  0  0  0  0  0
   23.6966   20.5822   21.4477 H   0  0  0  0  0  0  0  0  0  0  0  0
   21.9094   20.6941   22.7033 C   0  0  0  0  0  0  0  0  0  0  0  0
   22.4094   21.3009   23.4711 H   0  0  0  0  0  0  0  0  0  0  0  0
   21.9998   19.6495   23.0244 H   0  0  0  0  0  0  0  0  0  0  0  0
   20.4221   21.1100   22.6023 C   0  0  0  0  0  0  0  0  0  0  0  0
   20.3836   22.1686   22.3100 H   0  0  0  0  0  0  0  0  0  0  0  0
   19.9225   20.5553   21.7963 H   0  0  0  0  0  0  0  0  0  0  0  0
   19.6407   20.9399   23.9313 C   0  0  0  0  0  0  0  0  0  0  0  0
   18.9222   21.7673   24.0129 H   0  0  0  0  0  0  0  0  0  0  0  0
   20.3177   21.0515   24.7895 H   0  0  0  0  0  0  0  0  0  0  0  0
   18.8418   19.6163   24.0494 C   0  0  0  0  0  0  0  0  0  0  0  0
   18.2703   19.6489   24.9861 H   0  0  0  0  0  0  0  0  0  0  0  0
   18.1020   19.5745   23.2390 H   0  0  0  0  0  0  0  0  0  0  0  0
   19.7226   18.3390   24.0235 C   0  0  0  0  0  0  0  0  0  0  0  0
   20.5438   18.4499   24.7435 H   0  0  0  0  0  0  0  0  0  0  0  0
   20.1881   18.2384   23.0352 H   0  0  0  0  0  0  0  0  0  0  0  0
   18.9698   17.0244   24.3365 C   0  0  2  0  0  0  0  0  0  0  0  0
   19.7005   16.2113   24.2856 H   0  0  0  0  0  0  0  0  0  0  0  0
   17.8703   16.7284   23.3017 C   0  0  0  0  0  0  0  0  0  0  0  0
   18.2780   16.7479   22.2834 H   0  0  0  0  0  0  0  0  0  0  0  0
   17.4432   15.7322   23.4700 H   0  0  0  0  0  0  0  0  0  0  0  0
   17.0532   17.4574   23.3591 H   0  0  0  0  0  0  0  0  0  0  0  0
   18.4154   16.9979   25.7343 N   0  3  0  0  0  0  0  0  0  0  0  0
   19.1490   17.1516   26.4321 H   0  0  0  0  0  0  0  0  0  0  0  0
   17.9759   16.0974   25.9453 H   0  0  0  0  0  0  0  0  0  0  0  0
   17.7068   17.7237   25.8667 H   0  0  0  0  0  0  0  0  0  0  0  0
  1  2  1  0  0  0  0
  1  3  1  0  0  0  0
  1  4  1  0  0  0  0
  1  5  1  0  0  0  0
  5  6  1  0  0  0  0
  5  7  1  0  0  0  0
  5  8  1  0  0  0  0
  8  9  1  0  0  0  0
  8 10  1  0  0  0  0
  8 11  1  0  0  0  0
 11 12  1  0  0  0  0
 11 13  1  0  0  0  0
 11 14  1  0  0  0  0
 14 15  1  0  0  0  0
 14 16  1  0  0  0  0
 14 17  1  0  0  0  0
 17 18  1  0  0  0  0
 17 19  1  0  0  0  0
 17 20  1  0  0  0  0
 20 21  1  0  0  0  0
 20 22  1  0  0  0  0
 22 23  1  0  0  0  0
 22 24  1  0  0  0  0
 22 25  1  0  0  0  0
 20 26  1  0  0  0  0
 26 27  1  0  0  0  0
 26 28  1  0  0  0  0
 26 29  1  0  0  0  0
M  END
> <VConfSearch Rank>
478

> <Conf_Id>
163

> <Delta U+W>
3.309

> <U+W>
-24.517

> <U>
27.916

> <W>
-52.433

> <W(PB)>
-54.866

> <W(SA)>
2.433

> <Valence>
6.693

> <Coulomb>
20.015

> <VdW>
1.208

> <VdW6>
-10.294

> <VdW12>
11.503

> <Bond>
0.312

> <Angle>
1.939

> <Pdih>
4.441

> <Idih>
0.000

> <Tether>
0.000

$$$$
VeraChem MOL file


 29 28  0  0  0  0  0  0  0  0999 V2000     
   22.5216   22.0787   23.5283 C   0  0  0  0  0  0  0  0  0  0  0  0
   22.2134   22.7158   22.6891 H   0  0  0  0  0  0  0  0  0  0  0  0
   21.9137   22.3425   24.4024 H   0  0  0  0  0  0  0  0  0  0  0  0
   23.5650   22.3210   23.7679 H   0  0  0  0  0  0  0  0  0  0  0  0
   22.3834   20.5817   23.1695 C   0  0  0  0  0  0  0  0  0  0  0  0
   22.6635   19.9660   24.0356 H   0  0  0  0  0  0  0  0  0  0  0  0
   23.1047   20.3416   22.3759 H   0  0  0  0  0  0  0  0  0  0  0  0
   20.9663   20.1906   22.6851 C   0  0  0  0  0  0  0  0  0  0  0  0
   20.6923   20.8056   21.8169 H   0  0  0  0  0  0  0  0  0  0  0  0
   21.0050   19.1526   22.3305 H   0  0  0  0  0  0  0  0  0  0  0  0
   19.8810   20.3229   23.7834 C   0  0  0  0  0  0  0  0  0  0  0  0
   19.8450   21.3613   24.1371 H   0  0  0  0  0  0  0  0  0  0  0  0
   20.1610   19.7158   24.6542 H   0  0  0  0  0  0  0  0  0  0  0  0
   18.4592   19.9370   23.2985 C   0  0  0  0  0  0  0  0  0  0  0  0
   17.7467   20.1141   24.1153 H   0  0  0  0  0  0  0  0  0  0  0  0
   18.1593   20.6202   22.4919 H   0  0  0  0  0  0  0  0  0  0  0  0
   18.3098   18.4762   22.7955 C   0  0  0  0  0  0  0  0  0  0  0  0
   18.8698   18.3577   21.8592 H   0  0  0  0  0  0  0  0  0  0  0  0
   17.2577   18.2939   22.5392 H   0  0  0  0  0  0  0  0  0  0  0  0
   18.7810   17.4088   23.8076 C   0  0  2  0  0  0  0  0  0  0  0  0
   19.8304   17.6032   24.0488 H   0  0  0  0  0  0  0  0  0  0  0  0
   18.6828   16.0048   23.1907 C   0  0  0  0  0  0  0  0  0  0  0  0
   19.0515   15.2460   23.8920 H   0  0  0  0  0  0  0  0  0  0  0  0
   17.6458   15.7563   22.9321 H   0  0  0  0  0  0  0  0  0  0  0  0
   19.2882   15.9370   22.2783 H   0  0  0  0  0  0  0  0  0  0  0  0
   18.0186   17.4741   25.1024 N   0  3  0  0  0  0  0  0  0  0  0  0
   18.1032   18.3975   25.5359 H   0  0  0  0  0  0  0  0  0  0  0  0
   18.3628   16.7838   25.7757 H   0  0  0  0  0  0  0  0  0  0  0  0
   17.0221   17.2915   24.9571 H   0  0  0  0  0  0  0  0  0  0  0  0
  1  2  1  0  0  0  0
  1  3  1  0  0  0  0
  1  4  1  0  0  0  0
  1  5  1  0  0  0  0
  5  6  1  0  0  0  0
  5  7  1  0  0  0  0
  5  8  1  0  0  0  0
  8  9  1  0  0  0  0
  8 10  1  0  0  0  0
  8 11  1  0  0  0  0
 11 12  1  0  0  0  0
 11 13  1  0  0  0  0
 11 14  1  0  0  0  0
 14 15  1  0  0  0  0
 14 16  1  0  0  0  0
 14 17  1  0  0  0  0
 17 18  1  0  0  0  0
 17 19  1  0  0  0  0
 17 20  1  0  0  0  0
 20 21  1  0  0  0  0
 20 22  1  0  0  0  0
 22 23  1  0  0  0  0
 22 24  1  0  0  0  0
 22 25  1  0  0  0  0
 20 26  1  0  0  0  0
 26 27  1  0  0  0  0
 26 28  1  0  0  0  0
 26 29  1  0  0  0  0
M  END
> <VConfSearch Rank>
479

> <Conf_Id>
173

> <Delta U+W>
1.363

> <U+W>
-26.462

> <U>
25.816

> <W>
-52.279

> <W(PB)>
-54.727

> <W(SA)>
2.449

> <Valence>
4.504

> <Coulomb>
20.342

> <VdW>
0.971

> <VdW6>
-10.532

> <VdW12>
11.503

> <Bond>
0.307

> <Angle>
1.715

> <Pdih>
2.481

> <Idih>
0.000

> <Tether>
0.000

$$$$
VeraChem MOL file


 29 28  0  0  0  0  0  0  0  0999 V2000     
   22.9755   16.8653   23.1187 C   0  0  0  0  0  0  0  0  0  0  0  0
   23.5125   17.4837   22.3876 H   0  0  0  0  0  0  0  0  0  0  0  0
   23.6662   16.6271   23.9382 H   0  0  0  0  0  0  0  0  0  0  0  0
   22.7000   15.9237   22.6263 H   0  0  0  0  0  0  0  0  0  0  0  0
   21.7201   17.5929   23.6443 C   0  0  0  0  0  0  0  0  0  0  0  0
   21.1903   16.9404   24.3521 H   0  0  0  0  0  0  0  0  0  0  0  0
   21.0407   17.7787   22.8020 H   0  0  0  0  0  0  0  0  0  0  0  0
   22.0818   18.9284   24.3333 C   0  0  0  0  0  0  0  0  0  0  0  0
   22.8521   18.7403   25.0939 H   0  0  0  0  0  0  0  0  0  0  0  0
   22.5380   19.6056   23.5981 H   0  0  0  0  0  0  0  0  0  0  0  0
   20.8868   19.6415   25.0176 C   0  0  0  0  0  0  0  0  0  0  0  0
   21.2763   20.5486   25.5002 H   0  0  0  0  0  0  0  0  0  0  0  0
   20.4926   19.0195   25.8329 H   0  0  0  0  0  0  0  0  0  0  0  0
   19.7443   20.0581   24.0549 C   0  0  0  0  0  0  0  0  0  0  0  0
   19.3471   21.0240   24.3940 H   0  0  0  0  0  0  0  0  0  0  0  0
   20.1551   20.2324   23.0522 H   0  0  0  0  0  0  0  0  0  0  0  0
   18.5784   19.0315   24.0113 C   0  0  0  0  0  0  0  0  0  0  0  0
   18.1605   18.9255   25.0209 H   0  0  0  0  0  0  0  0  0  0  0  0
   18.9555   18.0387   23.7420 H   0  0  0  0  0  0  0  0  0  0  0  0
   17.4269   19.3964   23.0451 C   0  0  2  0  0  0  0  0  0  0  0  0
   16.6528   18.6312   23.1591 H   0  0  0  0  0  0  0  0  0  0  0  0
   17.8808   19.3812   21.5750 C   0  0  0  0  0  0  0  0  0  0  0  0
   18.3608   18.4270   21.3247 H   0  0  0  0  0  0  0  0  0  0  0  0
   17.0196   19.5051   20.9070 H   0  0  0  0  0  0  0  0  0  0  0  0
   18.5895   20.1895   21.3597 H   0  0  0  0  0  0  0  0  0  0  0  0
   16.7739   20.7051   23.3949 N   0  3  0  0  0  0  0  0  0  0  0  0
   16.4287   20.7065   24.3590 H   0  0  0  0  0  0  0  0  0  0  0  0
   15.9760   20.9003   22.7835 H   0  0  0  0  0  0  0  0  0  0  0  0
   17.4307   21.4838   23.3010 H   0  0  0  0  0  0  0  0  0  0  0  0
  1  2  1  0  0  0  0
  1  3  1  0  0  0  0
  1  4  1  0  0  0  0
  1  5  1  0  0  0  0
  5  6  1  0  0  0  0
  5  7  1  0  0  0  0
  5  8  1  0  0  0  0
  8  9  1  0  0  0  0
  8 10  1  0  0  0  0
  8 11  1  0  0  0  0
 11 12  1  0  0  0  0
 11 13  1  0  0  0  0
 11 14  1  0  0  0  0
 14 15  1  0  0  0  0
 14 16  1  0  0  0  0
 14 17  1  0  0  0  0
 17 18  1  0  0  0  0
 17 19  1  0  0  0  0
 17 20  1  0  0  0  0
 20 21  1  0  0  0  0
 20 22  1  0  0  0  0
 22 23  1  0  0  0  0
 22 24  1  0  0  0  0
 22 25  1  0  0  0  0
 20 26  1  0  0  0  0
 26 27  1  0  0  0  0
 26 28  1  0  0  0  0
 26 29  1  0  0  0  0
M  END
> <VConfSearch Rank>
480

> <Conf_Id>
117

> <Delta U+W>
3.377

> <U+W>
-24.449

> <U>
27.947

> <W>
-52.396

> <W(PB)>
-54.842

> <W(SA)>
2.447

> <Valence>
6.731

> <Coulomb>
20.067

> <VdW>
1.149

> <VdW6>
-10.427

> <VdW12>
11.575

> <Bond>
0.324

> <Angle>
1.943

> <Pdih>
4.465

> <Idih>
0.000

> <Tether>
0.000

$$$$
VeraChem MOL file


 29 28  0  0  0  0  0  0  0  0999 V2000     
   15.0686   18.0649   23.0737 C   0  0  0  0  0  0  0  0  0  0  0  0
   15.1700   17.1299   23.6401 H   0  0  0  0  0  0  0  0  0  0  0  0
   14.7256   18.8471   23.7635 H   0  0  0  0  0  0  0  0  0  0  0  0
   14.2879   17.9172   22.3163 H   0  0  0  0  0  0  0  0  0  0  0  0
   16.4049   18.4585   22.4093 C   0  0  0  0  0  0  0  0  0  0  0  0
   16.2639   19.3775   21.8233 H   0  0  0  0  0  0  0  0  0  0  0  0
   16.7049   17.6736   21.7009 H   0  0  0  0  0  0  0  0  0  0  0  0
   17.5220   18.6725   23.4544 C   0  0  0  0  0  0  0  0  0  0  0  0
   17.2166   19.4562   24.1615 H   0  0  0  0  0  0  0  0  0  0  0  0
   17.6575   17.7521   24.0391 H   0  0  0  0  0  0  0  0  0  0  0  0
   18.8616   19.0669   22.7927 C   0  0  0  0  0  0  0  0  0  0  0  0
   18.7242   19.9866   22.2074 H   0  0  0  0  0  0  0  0  0  0  0  0
   19.1665   18.2826   22.0860 H   0  0  0  0  0  0  0  0  0  0  0  0
   19.9788   19.2817   23.8387 C   0  0  0  0  0  0  0  0  0  0  0  0
   19.6747   20.0687   24.5429 H   0  0  0  0  0  0  0  0  0  0  0  0
   20.1056   18.3609   24.4235 H   0  0  0  0  0  0  0  0  0  0  0  0
   21.3199   19.6754   23.1732 C   0  0  0  0  0  0  0  0  0  0  0  0
   21.1591   20.5656   22.5505 H   0  0  0  0  0  0  0  0  0  0  0  0
   21.6481   18.8749   22.4968 H   0  0  0  0  0  0  0  0  0  0  0  0
   22.4344   19.9795   24.1975 C   0  0  2  0  0  0  0  0  0  0  0  0
   22.0750   20.7615   24.8734 H   0  0  0  0  0  0  0  0  0  0  0  0
   23.6907   20.5004   23.4814 C   0  0  0  0  0  0  0  0  0  0  0  0
   24.4743   20.7530   24.2064 H   0  0  0  0  0  0  0  0  0  0  0  0
   24.0937   19.7496   22.7902 H   0  0  0  0  0  0  0  0  0  0  0  0
   23.4643   21.4072   22.9069 H   0  0  0  0  0  0  0  0  0  0  0  0
   22.7709   18.7887   25.0528 N   0  3  0  0  0  0  0  0  0  0  0  0
   21.9526   18.4574   25.5708 H   0  0  0  0  0  0  0  0  0  0  0  0
   23.4972   19.0140   25.7386 H   0  0  0  0  0  0  0  0  0  0  0  0
   23.1149   18.0083   24.4868 H   0  0  0  0  0  0  0  0  0  0  0  0
  1  2  1  0  0  0  0
  1  3  1  0  0  0  0
  1  4  1  0  0  0  0
  1  5  1  0  0  0  0
  5  6  1  0  0  0  0
  5  7  1  0  0  0  0
  5  8  1  0  0  0  0
  8  9  1  0  0  0  0
  8 10  1  0  0  0  0
  8 11  1  0  0  0  0
 11 12  1  0  0  0  0
 11 13  1  0  0  0  0
 11 14  1  0  0  0  0
 14 15  1  0  0  0  0
 14 16  1  0  0  0  0
 14 17  1  0  0  0  0
 17 18  1  0  0  0  0
 17 19  1  0  0  0  0
 17 20  1  0  0  0  0
 20 21  1  0  0  0  0
 20 22  1  0  0  0  0
 22 23  1  0  0  0  0
 22 24  1  0  0  0  0
 22 25  1  0  0  0  0
 20 26  1  0  0  0  0
 26 27  1  0  0  0  0
 26 28  1  0  0  0  0
 26 29  1  0  0  0  0
M  END
> <VConfSearch Rank>
481

> <Conf_Id>
164

> <Delta U+W>
0.000

> <U+W>
-27.826

> <U>
23.963

> <W>
-51.789

> <W(PB)>
-54.342

> <W(SA)>
2.554

> <Valence>
3.166

> <Coulomb>
19.734

> <VdW>
1.062

> <VdW6>
-7.938

> <VdW12>
9.001

> <Bond>
0.188

> <Angle>
0.880

> <Pdih>
2.098

> <Idih>
0.000

> <Tether>
0.000

$$$$
VeraChem MOL file


 29 28  0  0  0  0  0  0  0  0999 V2000     
   24.3083   20.0222   21.9328 C   0  0  0  0  0  0  0  0  0  0  0  0
   24.7893   19.2709   22.5726 H   0  0  0  0  0  0  0  0  0  0  0  0
   24.1234   19.5674   20.9509 H   0  0  0  0  0  0  0  0  0  0  0  0
   25.0164   20.8493   21.7932 H   0  0  0  0  0  0  0  0  0  0  0  0
   22.9951   20.5301   22.5649 C   0  0  0  0  0  0  0  0  0  0  0  0
   22.5551   21.3034   21.9197 H   0  0  0  0  0  0  0  0  0  0  0  0
   23.2160   21.0093   23.5290 H   0  0  0  0  0  0  0  0  0  0  0  0
   21.9799   19.3845   22.7725 C   0  0  0  0  0  0  0  0  0  0  0  0
   21.7642   18.9071   21.8066 H   0  0  0  0  0  0  0  0  0  0  0  0
   22.4249   18.6130   23.4161 H   0  0  0  0  0  0  0  0  0  0  0  0
   20.6635   19.8893   23.4052 C   0  0  0  0  0  0  0  0  0  0  0  0
   20.2189   20.6605   22.7609 H   0  0  0  0  0  0  0  0  0  0  0  0
   20.8811   20.3676   24.3703 H   0  0  0  0  0  0  0  0  0  0  0  0
   19.6483   18.7427   23.6132 C   0  0  0  0  0  0  0  0  0  0  0  0
   19.4446   18.2665   22.6452 H   0  0  0  0  0  0  0  0  0  0  0  0
   20.0912   17.9740   24.2617 H   0  0  0  0  0  0  0  0  0  0  0  0
   18.3285   19.2519   24.2430 C   0  0  0  0  0  0  0  0  0  0  0  0
   17.8493   19.9724   23.5669 H   0  0  0  0  0  0  0  0  0  0  0  0
   18.5695   19.8010   25.1628 H   0  0  0  0  0  0  0  0  0  0  0  0
   17.3304   18.1250   24.5941 C   0  0  2  0  0  0  0  0  0  0  0  0
   17.8428   17.3993   25.2332 H   0  0  0  0  0  0  0  0  0  0  0  0
   16.8160   17.3936   23.3413 C   0  0  0  0  0  0  0  0  0  0  0  0
   16.3483   18.0932   22.6373 H   0  0  0  0  0  0  0  0  0  0  0  0
   17.6286   16.8736   22.8210 H   0  0  0  0  0  0  0  0  0  0  0  0
   16.0703   16.6369   23.6147 H   0  0  0  0  0  0  0  0  0  0  0  0
   16.1751   18.6554   25.3970 N   0  3  0  0  0  0  0  0  0  0  0  0
   15.5312   17.9059   25.6659 H   0  0  0  0  0  0  0  0  0  0  0  0
   15.6363   19.3452   24.8663 H   0  0  0  0  0  0  0  0  0  0  0  0
   16.4915   19.1089   26.2590 H   0  0  0  0  0  0  0  0  0  0  0  0
  1  2  1  0  0  0  0
  1  3  1  0  0  0  0
  1  4  1  0  0  0  0
  1  5  1  0  0  0  0
  5  6  1  0  0  0  0
  5  7  1  0  0  0  0
  5  8  1  0  0  0  0
  8  9  1  0  0  0  0
  8 10  1  0  0  0  0
  8 11  1  0  0  0  0
 11 12  1  0  0  0  0
 11 13  1  0  0  0  0
 11 14  1  0  0  0  0
 14 15  1  0  0  0  0
 14 16  1  0  0  0  0
 14 17  1  0  0  0  0
 17 18  1  0  0  0  0
 17 19  1  0  0  0  0
 17 20  1  0  0  0  0
 20 21  1  0  0  0  0
 20 22  1  0  0  0  0
 22 23  1  0  0  0  0
 22 24  1  0  0  0  0
 22 25  1  0  0  0  0
 20 26  1  0  0  0  0
 26 27  1  0  0  0  0
 26 28  1  0  0  0  0
 26 29  1  0  0  0  0
M  END
> <VConfSearch Rank>
482

> <Conf_Id>
58

> <Delta U+W>
0.412

> <U+W>
-27.414

> <U>
24.279

> <W>
-51.694

> <W(PB)>
-54.271

> <W(SA)>
2.577

> <Valence>
3.709

> <Coulomb>
19.380

> <VdW>
1.191

> <VdW6>
-8.093

> <VdW12>
9.284

> <Bond>
0.200

> <Angle>
1.161

> <Pdih>
2.348

> <Idih>
0.000

> <Tether>
0.000

$$$$
VeraChem MOL file


 29 28  0  0  0  0  0  0  0  0999 V2000     
   15.2316   18.0600   24.3518 C   0  0  0  0  0  0  0  0  0  0  0  0
   15.1914   17.3279   23.5347 H   0  0  0  0  0  0  0  0  0  0  0  0
   15.4847   17.5262   25.2772 H   0  0  0  0  0  0  0  0  0  0  0  0
   14.2271   18.4861   24.4724 H   0  0  0  0  0  0  0  0  0  0  0  0
   16.2617   19.1695   24.0522 C   0  0  0  0  0  0  0  0  0  0  0  0
   16.2549   19.9038   24.8699 H   0  0  0  0  0  0  0  0  0  0  0  0
   15.9639   19.7070   23.1409 H   0  0  0  0  0  0  0  0  0  0  0  0
   17.6853   18.5962   23.8779 C   0  0  0  0  0  0  0  0  0  0  0  0
   17.9776   18.0582   24.7903 H   0  0  0  0  0  0  0  0  0  0  0  0
   17.6865   17.8610   23.0612 H   0  0  0  0  0  0  0  0  0  0  0  0
   18.7196   19.7044   23.5773 C   0  0  0  0  0  0  0  0  0  0  0  0
   18.7170   20.4392   24.3944 H   0  0  0  0  0  0  0  0  0  0  0  0
   18.4261   20.2420   22.6650 H   0  0  0  0  0  0  0  0  0  0  0  0
   20.1438   19.1305   23.4028 C   0  0  0  0  0  0  0  0  0  0  0  0
   20.4302   18.5936   24.3168 H   0  0  0  0  0  0  0  0  0  0  0  0
   20.1350   18.3944   22.5882 H   0  0  0  0  0  0  0  0  0  0  0  0
   21.1764   20.2469   23.0981 C   0  0  0  0  0  0  0  0  0  0  0  0
   21.1385   21.0004   23.8958 H   0  0  0  0  0  0  0  0  0  0  0  0
   20.8857   20.7682   22.1764 H   0  0  0  0  0  0  0  0  0  0  0  0
   22.6381   19.7612   22.9543 C   0  0  2  0  0  0  0  0  0  0  0  0
   23.2579   20.6449   22.7735 H   0  0  0  0  0  0  0  0  0  0  0  0
   22.8180   18.8139   21.7553 C   0  0  0  0  0  0  0  0  0  0  0  0
   23.8810   18.5954   21.5957 H   0  0  0  0  0  0  0  0  0  0  0  0
   22.3001   17.8600   21.9105 H   0  0  0  0  0  0  0  0  0  0  0  0
   22.4308   19.2705   20.8360 H   0  0  0  0  0  0  0  0  0  0  0  0
   23.1620   19.1362   24.2178 N   0  3  0  0  0  0  0  0  0  0  0  0
   23.0869   19.7773   25.0129 H   0  0  0  0  0  0  0  0  0  0  0  0
   24.1484   18.8769   24.1257 H   0  0  0  0  0  0  0  0  0  0  0  0
   22.6422   18.2877   24.4553 H   0  0  0  0  0  0  0  0  0  0  0  0
  1  2  1  0  0  0  0
  1  3  1  0  0  0  0
  1  4  1  0  0  0  0
  1  5  1  0  0  0  0
  5  6  1  0  0  0  0
  5  7  1  0  0  0  0
  5  8  1  0  0  0  0
  8  9  1  0  0  0  0
  8 10  1  0  0  0  0
  8 11  1  0  0  0  0
 11 12  1  0  0  0  0
 11 13  1  0  0  0  0
 11 14  1  0  0  0  0
 14 15  1  0  0  0  0
 14 16  1  0  0  0  0
 14 17  1  0  0  0  0
 17 18  1  0  0  0  0
 17 19  1  0  0  0  0
 17 20  1  0  0  0  0
 20 21  1  0  0  0  0
 20 22  1  0  0  0  0
 22 23  1  0  0  0  0
 22 24  1  0  0  0  0
 22 25  1  0  0  0  0
 20 26  1  0  0  0  0
 26 27  1  0  0  0  0
 26 28  1  0  0  0  0
 26 29  1  0  0  0  0
M  END
> <VConfSearch Rank>
483

> <Conf_Id>
137

> <Delta U+W>
0.280

> <U+W>
-27.546

> <U>
24.513

> <W>
-52.059

> <W(PB)>
-54.556

> <W(SA)>
2.497

> <Valence>
3.677

> <Coulomb>
19.662

> <VdW>
1.174

> <VdW6>
-8.569

> <VdW12>
9.743

> <Bond>
0.224

> <Angle>
1.211

> <Pdih>
2.243

> <Idih>
0.000

> <Tether>
0.000

$$$$
VeraChem MOL file


 29 28  0  0  0  0  0  0  0  0999 V2000     
   19.9523   15.3792   21.1345 C   0  0  0  0  0  0  0  0  0  0  0  0
   20.3948   16.0520   20.3884 H   0  0  0  0  0  0  0  0  0  0  0  0
   20.7665   14.9458   21.7299 H   0  0  0  0  0  0  0  0  0  0  0  0
   19.4549   14.5610   20.5976 H   0  0  0  0  0  0  0  0  0  0  0  0
   18.9477   16.1311   22.0331 C   0  0  0  0  0  0  0  0  0  0  0  0
   18.4968   15.4254   22.7448 H   0  0  0  0  0  0  0  0  0  0  0  0
   18.1288   16.5247   21.4147 H   0  0  0  0  0  0  0  0  0  0  0  0
   19.6229   17.2885   22.8018 C   0  0  0  0  0  0  0  0  0  0  0  0
   20.4388   16.8896   23.4201 H   0  0  0  0  0  0  0  0  0  0  0  0
   20.0770   17.9788   22.0794 H   0  0  0  0  0  0  0  0  0  0  0  0
   18.6148   18.0455   23.6998 C   0  0  0  0  0  0  0  0  0  0  0  0
   18.1102   17.3221   24.3551 H   0  0  0  0  0  0  0  0  0  0  0  0
   17.8296   18.4972   23.0779 H   0  0  0  0  0  0  0  0  0  0  0  0
   19.2658   19.1354   24.5871 C   0  0  0  0  0  0  0  0  0  0  0  0
   18.5009   19.5008   25.2841 H   0  0  0  0  0  0  0  0  0  0  0  0
   20.0561   18.6844   25.2030 H   0  0  0  0  0  0  0  0  0  0  0  0
   19.8458   20.3266   23.7807 C   0  0  0  0  0  0  0  0  0  0  0  0
   19.0536   20.7840   23.1734 H   0  0  0  0  0  0  0  0  0  0  0  0
   20.5991   19.9500   23.0785 H   0  0  0  0  0  0  0  0  0  0  0  0
   20.5149   21.4073   24.6611 C   0  0  2  0  0  0  0  0  0  0  0  0
   21.2568   20.9186   25.3002 H   0  0  0  0  0  0  0  0  0  0  0  0
   19.5009   22.1374   25.5603 C   0  0  0  0  0  0  0  0  0  0  0  0
   18.6958   22.5877   24.9663 H   0  0  0  0  0  0  0  0  0  0  0  0
   19.0501   21.4560   26.2906 H   0  0  0  0  0  0  0  0  0  0  0  0
   19.9934   22.9375   26.1266 H   0  0  0  0  0  0  0  0  0  0  0  0
   21.2687   22.3999   23.8201 N   0  3  0  0  0  0  0  0  0  0  0  0
   21.9819   21.9424   23.2448 H   0  0  0  0  0  0  0  0  0  0  0  0
   21.7460   23.0955   24.4006 H   0  0  0  0  0  0  0  0  0  0  0  0
   20.6424   22.9068   23.1887 H   0  0  0  0  0  0  0  0  0  0  0  0
  1  2  1  0  0  0  0
  1  3  1  0  0  0  0
  1  4  1  0  0  0  0
  1  5  1  0  0  0  0
  5  6  1  0  0  0  0
  5  7  1  0  0  0  0
  5  8  1  0  0  0  0
  8  9  1  0  0  0  0
  8 10  1  0  0  0  0
  8 11  1  0  0  0  0
 11 12  1  0  0  0  0
 11 13  1  0  0  0  0
 11 14  1  0  0  0  0
 14 15  1  0  0  0  0
 14 16  1  0  0  0  0
 14 17  1  0  0  0  0
 17 18  1  0  0  0  0
 17 19  1  0  0  0  0
 17 20  1  0  0  0  0
 20 21  1  0  0  0  0
 20 22  1  0  0  0  0
 22 23  1  0  0  0  0
 22 24  1  0  0  0  0
 22 25  1  0  0  0  0
 20 26  1  0  0  0  0
 26 27  1  0  0  0  0
 26 28  1  0  0  0  0
 26 29  1  0  0  0  0
M  END
> <VConfSearch Rank>
484

> <Conf_Id>
40

> <Delta U+W>
1.128

> <U+W>
-26.698

> <U>
25.442

> <W>
-52.140

> <W(PB)>
-54.658

> <W(SA)>
2.519

> <Valence>
4.343

> <Coulomb>
19.740

> <VdW>
1.360

> <VdW6>
-8.739

> <VdW12>
10.099

> <Bond>
0.251

> <Angle>
1.483

> <Pdih>
2.608

> <Idih>
0.000

> <Tether>
0.000

$$$$
VeraChem MOL file


 29 28  0  0  0  0  0  0  0  0999 V2000     
   20.6802   23.1398   22.1134 C   0  0  0  0  0  0  0  0  0  0  0  0
   21.6421   22.8330   22.5422 H   0  0  0  0  0  0  0  0  0  0  0  0
   20.6637   22.8433   21.0566 H   0  0  0  0  0  0  0  0  0  0  0  0
   20.6361   24.2358   22.1551 H   0  0  0  0  0  0  0  0  0  0  0  0
   19.4906   22.5218   22.8827 C   0  0  0  0  0  0  0  0  0  0  0  0
   18.5582   22.9595   22.4995 H   0  0  0  0  0  0  0  0  0  0  0  0
   19.5490   22.8035   23.9433 H   0  0  0  0  0  0  0  0  0  0  0  0
   19.4037   20.9816   22.7538 C   0  0  0  0  0  0  0  0  0  0  0  0
   18.4602   20.6577   23.2106 H   0  0  0  0  0  0  0  0  0  0  0  0
   19.3456   20.7057   21.6919 H   0  0  0  0  0  0  0  0  0  0  0  0
   20.5881   20.2391   23.4237 C   0  0  0  0  0  0  0  0  0  0  0  0
   20.6431   20.5104   24.4869 H   0  0  0  0  0  0  0  0  0  0  0  0
   21.5298   20.5745   22.9706 H   0  0  0  0  0  0  0  0  0  0  0  0
   20.5152   18.6983   23.2838 C   0  0  0  0  0  0  0  0  0  0  0  0
   20.4405   18.4291   22.2211 H   0  0  0  0  0  0  0  0  0  0  0  0
   21.4658   18.2817   23.6417 H   0  0  0  0  0  0  0  0  0  0  0  0
   19.3426   18.0572   24.0703 C   0  0  0  0  0  0  0  0  0  0  0  0
   18.3919   18.4530   23.6930 H   0  0  0  0  0  0  0  0  0  0  0  0
   19.4048   18.3428   25.1288 H   0  0  0  0  0  0  0  0  0  0  0  0
   19.3079   16.5180   23.9499 C   0  0  2  0  0  0  0  0  0  0  0  0
   19.2836   16.2575   22.8872 H   0  0  0  0  0  0  0  0  0  0  0  0
   18.0389   15.9587   24.6129 C   0  0  0  0  0  0  0  0  0  0  0  0
   17.9903   14.8686   24.5006 H   0  0  0  0  0  0  0  0  0  0  0  0
   18.0144   16.1936   25.6844 H   0  0  0  0  0  0  0  0  0  0  0  0
   17.1383   16.3810   24.1499 H   0  0  0  0  0  0  0  0  0  0  0  0
   20.5336   15.8653   24.5285 N   0  3  0  0  0  0  0  0  0  0  0  0
   20.6277   16.0680   25.5273 H   0  0  0  0  0  0  0  0  0  0  0  0
   21.3857   16.1925   24.0654 H   0  0  0  0  0  0  0  0  0  0  0  0
   20.4999   14.8472   24.4238 H   0  0  0  0  0  0  0  0  0  0  0  0
  1  2  1  0  0  0  0
  1  3  1  0  0  0  0
  1  4  1  0  0  0  0
  1  5  1  0  0  0  0
  5  6  1  0  0  0  0
  5  7  1  0  0  0  0
  5  8  1  0  0  0  0
  8  9  1  0  0  0  0
  8 10  1  0  0  0  0
  8 11  1  0  0  0  0
 11 12  1  0  0  0  0
 11 13  1  0  0  0  0
 11 14  1  0  0  0  0
 14 15  1  0  0  0  0
 14 16  1  0  0  0  0
 14 17  1  0  0  0  0
 17 18  1  0  0  0  0
 17 19  1  0  0  0  0
 17 20  1  0  0  0  0
 20 21  1  0  0  0  0
 20 22  1  0  0  0  0
 22 23  1  0  0  0  0
 22 24  1  0  0  0  0
 22 25  1  0  0  0  0
 20 26  1  0  0  0  0
 26 27  1  0  0  0  0
 26 28  1  0  0  0  0
 26 29  1  0  0  0  0
M  END
> <VConfSearch Rank>
485

> <Conf_Id>
134

> <Delta U+W>
1.228

> <U+W>
-26.598

> <U>
25.451

> <W>
-52.048

> <W(PB)>
-54.539

> <W(SA)>
2.490

> <Valence>
4.319

> <Coulomb>
19.732

> <VdW>
1.400

> <VdW6>
-9.173

> <VdW12>
10.573

> <Bond>
0.281

> <Angle>
1.459

> <Pdih>
2.580

> <Idih>
0.000

> <Tether>
0.000

$$$$
VeraChem MOL file


 29 28  0  0  0  0  0  0  0  0999 V2000     
   23.5534   21.0461   22.6938 C   0  0  0  0  0  0  0  0  0  0  0  0
   23.3828   20.5788   21.7162 H   0  0  0  0  0  0  0  0  0  0  0  0
   23.0664   22.0298   22.6954 H   0  0  0  0  0  0  0  0  0  0  0  0
   24.6344   21.2066   22.7975 H   0  0  0  0  0  0  0  0  0  0  0  0
   23.0255   20.1627   23.8470 C   0  0  0  0  0  0  0  0  0  0  0  0
   23.3337   20.6097   24.8025 H   0  0  0  0  0  0  0  0  0  0  0  0
   23.5015   19.1731   23.8032 H   0  0  0  0  0  0  0  0  0  0  0  0
   21.4858   20.0038   23.8488 C   0  0  0  0  0  0  0  0  0  0  0  0
   21.2004   19.4817   24.7710 H   0  0  0  0  0  0  0  0  0  0  0  0
   21.0150   20.9954   23.8949 H   0  0  0  0  0  0  0  0  0  0  0  0
   20.9450   19.2239   22.6235 C   0  0  0  0  0  0  0  0  0  0  0  0
   21.4147   18.2318   22.5785 H   0  0  0  0  0  0  0  0  0  0  0  0
   21.2346   19.7448   21.7019 H   0  0  0  0  0  0  0  0  0  0  0  0
   19.4040   19.0698   22.6213 C   0  0  0  0  0  0  0  0  0  0  0  0
   18.9444   20.0666   22.6506 H   0  0  0  0  0  0  0  0  0  0  0  0
   19.1016   18.6158   21.6675 H   0  0  0  0  0  0  0  0  0  0  0  0
   18.8676   18.1977   23.7859 C   0  0  0  0  0  0  0  0  0  0  0  0
   19.0308   18.7057   24.7447 H   0  0  0  0  0  0  0  0  0  0  0  0
   19.4470   17.2658   23.8215 H   0  0  0  0  0  0  0  0  0  0  0  0
   17.3705   17.8387   23.6495 C   0  0  2  0  0  0  0  0  0  0  0  0
   17.2186   17.3646   22.6749 H   0  0  0  0  0  0  0  0  0  0  0  0
   16.4674   19.0823   23.7324 C   0  0  0  0  0  0  0  0  0  0  0  0
   16.6271   19.6268   24.6714 H   0  0  0  0  0  0  0  0  0  0  0  0
   16.6581   19.7694   22.8999 H   0  0  0  0  0  0  0  0  0  0  0  0
   15.4098   18.7959   23.6809 H   0  0  0  0  0  0  0  0  0  0  0  0
   16.9588   16.8265   24.6821 N   0  3  0  0  0  0  0  0  0  0  0  0
   17.5194   15.9718   24.6168 H   0  0  0  0  0  0  0  0  0  0  0  0
   15.9775   16.5562   24.5702 H   0  0  0  0  0  0  0  0  0  0  0  0
   17.0680   17.1945   25.6310 H   0  0  0  0  0  0  0  0  0  0  0  0
  1  2  1  0  0  0  0
  1  3  1  0  0  0  0
  1  4  1  0  0  0  0
  1  5  1  0  0  0  0
  5  6  1  0  0  0  0
  5  7  1  0  0  0  0
  5  8  1  0  0  0  0
  8  9  1  0  0  0  0
  8 10  1  0  0  0  0
  8 11  1  0  0  0  0
 11 12  1  0  0  0  0
 11 13  1  0  0  0  0
 11 14  1  0  0  0  0
 14 15  1  0  0  0  0
 14 16  1  0  0  0  0
 14 17  1  0  0  0  0
 17 18  1  0  0  0  0
 17 19  1  0  0  0  0
 17 20  1  0  0  0  0
 20 21  1  0  0  0  0
 20 22  1  0  0  0  0
 22 23  1  0  0  0  0
 22 24  1  0  0  0  0
 22 25  1  0  0  0  0
 20 26  1  0  0  0  0
 26 27  1  0  0  0  0
 26 28  1  0  0  0  0
 26 29  1  0  0  0  0
M  END
> <VConfSearch Rank>
486

> <Conf_Id>
73

> <Delta U+W>
1.580

> <U+W>
-26.246

> <U>
25.821

> <W>
-52.067

> <W(PB)>
-54.581

> <W(SA)>
2.514

> <Valence>
4.779

> <Coulomb>
19.614

> <VdW>
1.428

> <VdW6>
-9.390

> <VdW12>
10.818

> <Bond>
0.283

> <Angle>
1.640

> <Pdih>
2.856

> <Idih>
0.000

> <Tether>
0.000

$$$$
VeraChem MOL file


 29 28  0  0  0  0  0  0  0  0999 V2000     
   17.2076   22.2439   21.7692 C   0  0  0  0  0  0  0  0  0  0  0  0
   16.9350   22.3914   22.8224 H   0  0  0  0  0  0  0  0  0  0  0  0
   17.0882   23.2050   21.2524 H   0  0  0  0  0  0  0  0  0  0  0  0
   16.4963   21.5334   21.3281 H   0  0  0  0  0  0  0  0  0  0  0  0
   18.6573   21.7311   21.6380 C   0  0  0  0  0  0  0  0  0  0  0  0
   19.3473   22.4765   22.0576 H   0  0  0  0  0  0  0  0  0  0  0  0
   18.9117   21.6269   20.5739 H   0  0  0  0  0  0  0  0  0  0  0  0
   18.8525   20.3777   22.3566 C   0  0  0  0  0  0  0  0  0  0  0  0
   18.5853   20.4941   23.4148 H   0  0  0  0  0  0  0  0  0  0  0  0
   18.1626   19.6355   21.9318 H   0  0  0  0  0  0  0  0  0  0  0  0
   20.3074   19.8652   22.2294 C   0  0  0  0  0  0  0  0  0  0  0  0
   20.9948   20.5776   22.7062 H   0  0  0  0  0  0  0  0  0  0  0  0
   20.5828   19.8363   21.1660 H   0  0  0  0  0  0  0  0  0  0  0  0
   20.5249   18.4538   22.8284 C   0  0  0  0  0  0  0  0  0  0  0  0
   19.8391   17.7417   22.3488 H   0  0  0  0  0  0  0  0  0  0  0  0
   21.5404   18.1282   22.5678 H   0  0  0  0  0  0  0  0  0  0  0  0
   20.3423   18.3994   24.3672 C   0  0  0  0  0  0  0  0  0  0  0  0
   19.3188   18.7004   24.6221 H   0  0  0  0  0  0  0  0  0  0  0  0
   21.0128   19.1247   24.8470 H   0  0  0  0  0  0  0  0  0  0  0  0
   20.5944   16.9932   24.9537 C   0  0  2  0  0  0  0  0  0  0  0  0
   19.9423   16.2834   24.4354 H   0  0  0  0  0  0  0  0  0  0  0  0
   20.2430   16.9676   26.4499 C   0  0  0  0  0  0  0  0  0  0  0  0
   19.1938   17.2463   26.6090 H   0  0  0  0  0  0  0  0  0  0  0  0
   20.3865   15.9625   26.8653 H   0  0  0  0  0  0  0  0  0  0  0  0
   20.8717   17.6652   27.0173 H   0  0  0  0  0  0  0  0  0  0  0  0
   22.0066   16.5219   24.7380 N   0  3  0  0  0  0  0  0  0  0  0  0
   22.1493   15.5817   25.1179 H   0  0  0  0  0  0  0  0  0  0  0  0
   22.6807   17.1426   25.1941 H   0  0  0  0  0  0  0  0  0  0  0  0
   22.2420   16.4887   23.7424 H   0  0  0  0  0  0  0  0  0  0  0  0
  1  2  1  0  0  0  0
  1  3  1  0  0  0  0
  1  4  1  0  0  0  0
  1  5  1  0  0  0  0
  5  6  1  0  0  0  0
  5  7  1  0  0  0  0
  5  8  1  0  0  0  0
  8  9  1  0  0  0  0
  8 10  1  0  0  0  0
  8 11  1  0  0  0  0
 11 12  1  0  0  0  0
 11 13  1  0  0  0  0
 11 14  1  0  0  0  0
 14 15  1  0  0  0  0
 14 16  1  0  0  0  0
 14 17  1  0  0  0  0
 17 18  1  0  0  0  0
 17 19  1  0  0  0  0
 17 20  1  0  0  0  0
 20 21  1  0  0  0  0
 20 22  1  0  0  0  0
 22 23  1  0  0  0  0
 22 24  1  0  0  0  0
 22 25  1  0  0  0  0
 20 26  1  0  0  0  0
 26 27  1  0  0  0  0
 26 28  1  0  0  0  0
 26 29  1  0  0  0  0
M  END
> <VConfSearch Rank>
487

> <Conf_Id>
111

> <Delta U+W>
0.580

> <U+W>
-27.246

> <U>
24.710

> <W>
-51.957

> <W(PB)>
-54.511

> <W(SA)>
2.555

> <Valence>
3.735

> <Coulomb>
19.760

> <VdW>
1.216

> <VdW6>
-8.624

> <VdW12>
9.840

> <Bond>
0.236

> <Angle>
1.168

> <Pdih>
2.330

> <Idih>
0.000

> <Tether>
0.000

$$$$
VeraChem MOL file


 29 28  0  0  0  0  0  0  0  0999 V2000     
   17.8279   22.9929   22.8895 C   0  0  0  0  0  0  0  0  0  0  0  0
   17.0711   22.7998   23.6610 H   0  0  0  0  0  0  0  0  0  0  0  0
   18.7440   23.3363   23.3875 H   0  0  0  0  0  0  0  0  0  0  0  0
   17.4619   23.8110   22.2556 H   0  0  0  0  0  0  0  0  0  0  0  0
   18.0954   21.7282   22.0463 C   0  0  0  0  0  0  0  0  0  0  0  0
   18.8308   21.9607   21.2633 H   0  0  0  0  0  0  0  0  0  0  0  0
   17.1701   21.4297   21.5338 H   0  0  0  0  0  0  0  0  0  0  0  0
   18.6112   20.5600   22.9153 C   0  0  0  0  0  0  0  0  0  0  0  0
   19.5298   20.8738   23.4282 H   0  0  0  0  0  0  0  0  0  0  0  0
   17.8721   20.3301   23.6951 H   0  0  0  0  0  0  0  0  0  0  0  0
   18.8837   19.2926   22.0702 C   0  0  0  0  0  0  0  0  0  0  0  0
   19.6605   19.5054   21.3229 H   0  0  0  0  0  0  0  0  0  0  0  0
   17.9760   19.0359   21.5067 H   0  0  0  0  0  0  0  0  0  0  0  0
   19.2995   18.0643   22.9163 C   0  0  0  0  0  0  0  0  0  0  0  0
   18.5030   17.8407   23.6383 H   0  0  0  0  0  0  0  0  0  0  0  0
   19.3718   17.1918   22.2523 H   0  0  0  0  0  0  0  0  0  0  0  0
   20.6515   18.2523   23.6518 C   0  0  0  0  0  0  0  0  0  0  0  0
   20.5578   19.0302   24.4201 H   0  0  0  0  0  0  0  0  0  0  0  0
   21.3959   18.6125   22.9296 H   0  0  0  0  0  0  0  0  0  0  0  0
   21.1868   16.9564   24.3020 C   0  0  2  0  0  0  0  0  0  0  0  0
   21.2406   16.1821   23.5305 H   0  0  0  0  0  0  0  0  0  0  0  0
   20.2705   16.4549   25.4325 C   0  0  0  0  0  0  0  0  0  0  0  0
   20.1373   17.2223   26.2052 H   0  0  0  0  0  0  0  0  0  0  0  0
   19.2816   16.1768   25.0501 H   0  0  0  0  0  0  0  0  0  0  0  0
   20.6967   15.5633   25.9085 H   0  0  0  0  0  0  0  0  0  0  0  0
   22.5883   17.1442   24.8126 N   0  3  0  0  0  0  0  0  0  0  0  0
   23.2256   17.4368   24.0661 H   0  0  0  0  0  0  0  0  0  0  0  0
   22.9613   16.2766   25.2086 H   0  0  0  0  0  0  0  0  0  0  0  0
   22.6267   17.8564   25.5469 H   0  0  0  0  0  0  0  0  0  0  0  0
  1  2  1  0  0  0  0
  1  3  1  0  0  0  0
  1  4  1  0  0  0  0
  1  5  1  0  0  0  0
  5  6  1  0  0  0  0
  5  7  1  0  0  0  0
  5  8  1  0  0  0  0
  8  9  1  0  0  0  0
  8 10  1  0  0  0  0
  8 11  1  0  0  0  0
 11 12  1  0  0  0  0
 11 13  1  0  0  0  0
 11 14  1  0  0  0  0
 14 15  1  0  0  0  0
 14 16  1  0  0  0  0
 14 17  1  0  0  0  0
 17 18  1  0  0  0  0
 17 19  1  0  0  0  0
 17 20  1  0  0  0  0
 20 21  1  0  0  0  0
 20 22  1  0  0  0  0
 22 23  1  0  0  0  0
 22 24  1  0  0  0  0
 22 25  1  0  0  0  0
 20 26  1  0  0  0  0
 26 27  1  0  0  0  0
 26 28  1  0  0  0  0
 26 29  1  0  0  0  0
M  END
> <VConfSearch Rank>
488

> <Conf_Id>
39

> <Delta U+W>
0.965

> <U+W>
-26.861

> <U>
25.129

> <W>
-51.990

> <W(PB)>
-54.526

> <W(SA)>
2.536

> <Valence>
4.206

> <Coulomb>
19.678

> <VdW>
1.245

> <VdW6>
-8.834

> <VdW12>
10.079

> <Bond>
0.240

> <Angle>
1.353

> <Pdih>
2.613

> <Idih>
0.000

> <Tether>
0.000

$$$$
VeraChem MOL file


 29 28  0  0  0  0  0  0  0  0999 V2000     
   20.4193   14.9015   23.1756 C   0  0  0  0  0  0  0  0  0  0  0  0
   20.8988   14.8877   24.1630 H   0  0  0  0  0  0  0  0  0  0  0  0
   19.3335   14.9586   23.3207 H   0  0  0  0  0  0  0  0  0  0  0  0
   20.6357   13.9441   22.6842 H   0  0  0  0  0  0  0  0  0  0  0  0
   20.9421   16.0779   22.3203 C   0  0  0  0  0  0  0  0  0  0  0  0
   20.4226   16.0913   21.3520 H   0  0  0  0  0  0  0  0  0  0  0  0
   22.0043   15.9059   22.0967 H   0  0  0  0  0  0  0  0  0  0  0  0
   20.7986   17.4559   23.0107 C   0  0  0  0  0  0  0  0  0  0  0  0
   21.3202   17.4375   23.9775 H   0  0  0  0  0  0  0  0  0  0  0  0
   21.3174   18.1994   22.3923 H   0  0  0  0  0  0  0  0  0  0  0  0
   19.3256   17.8910   23.2186 C   0  0  0  0  0  0  0  0  0  0  0  0
   18.8072   17.1417   23.8304 H   0  0  0  0  0  0  0  0  0  0  0  0
   18.8053   17.9138   22.2513 H   0  0  0  0  0  0  0  0  0  0  0  0
   19.1785   19.2639   23.9202 C   0  0  0  0  0  0  0  0  0  0  0  0
   18.1154   19.4179   24.1463 H   0  0  0  0  0  0  0  0  0  0  0  0
   19.6995   19.2303   24.8863 H   0  0  0  0  0  0  0  0  0  0  0  0
   19.7040   20.4525   23.0695 C   0  0  0  0  0  0  0  0  0  0  0  0
   19.2584   20.4050   22.0673 H   0  0  0  0  0  0  0  0  0  0  0  0
   20.7871   20.3550   22.9256 H   0  0  0  0  0  0  0  0  0  0  0  0
   19.4207   21.8517   23.6654 C   0  0  2  0  0  0  0  0  0  0  0  0
   19.8317   22.5904   22.9703 H   0  0  0  0  0  0  0  0  0  0  0  0
   20.1160   22.0524   25.0232 C   0  0  0  0  0  0  0  0  0  0  0  0
   19.6875   21.4047   25.7974 H   0  0  0  0  0  0  0  0  0  0  0  0
   21.1887   21.8353   24.9478 H   0  0  0  0  0  0  0  0  0  0  0  0
   20.0097   23.0913   25.3588 H   0  0  0  0  0  0  0  0  0  0  0  0
   17.9495   22.1479   23.7645 N   0  3  0  0  0  0  0  0  0  0  0  0
   17.4866   22.0582   22.8554 H   0  0  0  0  0  0  0  0  0  0  0  0
   17.7816   23.1003   24.1010 H   0  0  0  0  0  0  0  0  0  0  0  0
   17.4844   21.5070   24.4120 H   0  0  0  0  0  0  0  0  0  0  0  0
  1  2  1  0  0  0  0
  1  3  1  0  0  0  0
  1  4  1  0  0  0  0
  1  5  1  0  0  0  0
  5  6  1  0  0  0  0
  5  7  1  0  0  0  0
  5  8  1  0  0  0  0
  8  9  1  0  0  0  0
  8 10  1  0  0  0  0
  8 11  1  0  0  0  0
 11 12  1  0  0  0  0
 11 13  1  0  0  0  0
 11 14  1  0  0  0  0
 14 15  1  0  0  0  0
 14 16  1  0  0  0  0
 14 17  1  0  0  0  0
 17 18  1  0  0  0  0
 17 19  1  0  0  0  0
 17 20  1  0  0  0  0
 20 21  1  0  0  0  0
 20 22  1  0  0  0  0
 22 23  1  0  0  0  0
 22 24  1  0  0  0  0
 22 25  1  0  0  0  0
 20 26  1  0  0  0  0
 26 27  1  0  0  0  0
 26 28  1  0  0  0  0
 26 29  1  0  0  0  0
M  END
> <VConfSearch Rank>
489

> <Conf_Id>
155

> <Delta U+W>
1.624

> <U+W>
-26.202

> <U>
25.894

> <W>
-52.096

> <W(PB)>
-54.602

> <W(SA)>
2.506

> <Valence>
4.779

> <Coulomb>
19.659

> <VdW>
1.456

> <VdW6>
-9.843

> <VdW12>
11.299

> <Bond>
0.315

> <Angle>
1.725

> <Pdih>
2.740

> <Idih>
0.000

> <Tether>
0.000

$$$$
VeraChem MOL file


 29 28  0  0  0  0  0  0  0  0999 V2000     
   16.0627   18.4470   25.1575 C   0  0  0  0  0  0  0  0  0  0  0  0
   16.6504   18.8628   25.9853 H   0  0  0  0  0  0  0  0  0  0  0  0
   15.8342   19.2594   24.4554 H   0  0  0  0  0  0  0  0  0  0  0  0
   15.1135   18.0867   25.5747 H   0  0  0  0  0  0  0  0  0  0  0  0
   16.8143   17.2966   24.4503 C   0  0  0  0  0  0  0  0  0  0  0  0
   16.1445   16.8376   23.7098 H   0  0  0  0  0  0  0  0  0  0  0  0
   17.0535   16.5090   25.1784 H   0  0  0  0  0  0  0  0  0  0  0  0
   18.1063   17.7578   23.7340 C   0  0  0  0  0  0  0  0  0  0  0  0
   18.5207   16.9054   23.1783 H   0  0  0  0  0  0  0  0  0  0  0  0
   17.8480   18.5205   22.9881 H   0  0  0  0  0  0  0  0  0  0  0  0
   19.1840   18.3027   24.7054 C   0  0  0  0  0  0  0  0  0  0  0  0
   19.3273   17.5794   25.5198 H   0  0  0  0  0  0  0  0  0  0  0  0
   18.8337   19.2317   25.1745 H   0  0  0  0  0  0  0  0  0  0  0  0
   20.5548   18.5581   24.0313 C   0  0  0  0  0  0  0  0  0  0  0  0
   21.2758   18.8060   24.8207 H   0  0  0  0  0  0  0  0  0  0  0  0
   20.9135   17.6306   23.5640 H   0  0  0  0  0  0  0  0  0  0  0  0
   20.5233   19.6966   22.9786 C   0  0  0  0  0  0  0  0  0  0  0  0
   20.1762   20.6264   23.4483 H   0  0  0  0  0  0  0  0  0  0  0  0
   19.7892   19.4459   22.2034 H   0  0  0  0  0  0  0  0  0  0  0  0
   21.8833   19.9409   22.2849 C   0  0  2  0  0  0  0  0  0  0  0  0
   22.2370   18.9888   21.8776 H   0  0  0  0  0  0  0  0  0  0  0  0
   22.9463   20.4805   23.2588 C   0  0  0  0  0  0  0  0  0  0  0  0
   22.6064   21.4029   23.7461 H   0  0  0  0  0  0  0  0  0  0  0  0
   23.1844   19.7473   24.0378 H   0  0  0  0  0  0  0  0  0  0  0  0
   23.8801   20.7015   22.7272 H   0  0  0  0  0  0  0  0  0  0  0  0
   21.7339   20.8727   21.1143 N   0  3  0  0  0  0  0  0  0  0  0  0
   21.0639   20.5127   20.4286 H   0  0  0  0  0  0  0  0  0  0  0  0
   22.6249   21.0073   20.6277 H   0  0  0  0  0  0  0  0  0  0  0  0
   21.4053   21.7957   21.4107 H   0  0  0  0  0  0  0  0  0  0  0  0
  1  2  1  0  0  0  0
  1  3  1  0  0  0  0
  1  4  1  0  0  0  0
  1  5  1  0  0  0  0
  5  6  1  0  0  0  0
  5  7  1  0  0  0  0
  5  8  1  0  0  0  0
  8  9  1  0  0  0  0
  8 10  1  0  0  0  0
  8 11  1  0  0  0  0
 11 12  1  0  0  0  0
 11 13  1  0  0  0  0
 11 14  1  0  0  0  0
 14 15  1  0  0  0  0
 14 16  1  0  0  0  0
 14 17  1  0  0  0  0
 17 18  1  0  0  0  0
 17 19  1  0  0  0  0
 17 20  1  0  0  0  0
 20 21  1  0  0  0  0
 20 22  1  0  0  0  0
 22 23  1  0  0  0  0
 22 24  1  0  0  0  0
 22 25  1  0  0  0  0
 20 26  1  0  0  0  0
 26 27  1  0  0  0  0
 26 28  1  0  0  0  0
 26 29  1  0  0  0  0
M  END
> <VConfSearch Rank>
490

> <Conf_Id>
135

> <Delta U+W>
1.581

> <U+W>
-26.245

> <U>
25.974

> <W>
-52.219

> <W(PB)>
-54.709

> <W(SA)>
2.490

> <Valence>
4.811

> <Coulomb>
19.700

> <VdW>
1.463

> <VdW6>
-9.391

> <VdW12>
10.854

> <Bond>
0.285

> <Angle>
1.671

> <Pdih>
2.855

> <Idih>
0.000

> <Tether>
0.000

$$$$
VeraChem MOL file


 29 28  0  0  0  0  0  0  0  0999 V2000     
   22.7802   21.8413   23.4753 C   0  0  0  0  0  0  0  0  0  0  0  0
   22.6449   21.6989   24.5553 H   0  0  0  0  0  0  0  0  0  0  0  0
   23.2811   20.9530   23.0710 H   0  0  0  0  0  0  0  0  0  0  0  0
   23.4547   22.6952   23.3309 H   0  0  0  0  0  0  0  0  0  0  0  0
   21.4265   22.0969   22.7748 C   0  0  0  0  0  0  0  0  0  0  0  0
   21.5855   22.2098   21.6933 H   0  0  0  0  0  0  0  0  0  0  0  0
   21.0199   23.0551   23.1275 H   0  0  0  0  0  0  0  0  0  0  0  0
   20.3811   20.9864   23.0373 C   0  0  0  0  0  0  0  0  0  0  0  0
   20.2094   20.9038   24.1186 H   0  0  0  0  0  0  0  0  0  0  0  0
   19.4249   21.2946   22.5927 H   0  0  0  0  0  0  0  0  0  0  0  0
   20.7898   19.6093   22.4563 C   0  0  0  0  0  0  0  0  0  0  0  0
   21.6803   19.2309   22.9753 H   0  0  0  0  0  0  0  0  0  0  0  0
   21.0748   19.7350   21.4027 H   0  0  0  0  0  0  0  0  0  0  0  0
   19.6638   18.5499   22.5385 C   0  0  0  0  0  0  0  0  0  0  0  0
   18.7885   18.9136   21.9842 H   0  0  0  0  0  0  0  0  0  0  0  0
   20.0022   17.6399   22.0239 H   0  0  0  0  0  0  0  0  0  0  0  0
   19.2650   18.1897   23.9929 C   0  0  0  0  0  0  0  0  0  0  0  0
   18.7990   19.0551   24.4811 H   0  0  0  0  0  0  0  0  0  0  0  0
   20.1775   17.9635   24.5601 H   0  0  0  0  0  0  0  0  0  0  0  0
   18.3136   16.9757   24.0906 C   0  0  2  0  0  0  0  0  0  0  0  0
   18.7774   16.1332   23.5684 H   0  0  0  0  0  0  0  0  0  0  0  0
   16.9466   17.2581   23.4420 C   0  0  0  0  0  0  0  0  0  0  0  0
   16.4665   18.1350   23.8940 H   0  0  0  0  0  0  0  0  0  0  0  0
   17.0458   17.4373   22.3651 H   0  0  0  0  0  0  0  0  0  0  0  0
   16.2748   16.4000   23.5674 H   0  0  0  0  0  0  0  0  0  0  0  0
   18.1324   16.5417   25.5186 N   0  3  0  0  0  0  0  0  0  0  0  0
   17.5342   15.7131   25.5844 H   0  0  0  0  0  0  0  0  0  0  0  0
   17.6973   17.2780   26.0810 H   0  0  0  0  0  0  0  0  0  0  0  0
   19.0273   16.3068   25.9577 H   0  0  0  0  0  0  0  0  0  0  0  0
  1  2  1  0  0  0  0
  1  3  1  0  0  0  0
  1  4  1  0  0  0  0
  1  5  1  0  0  0  0
  5  6  1  0  0  0  0
  5  7  1  0  0  0  0
  5  8  1  0  0  0  0
  8  9  1  0  0  0  0
  8 10  1  0  0  0  0
  8 11  1  0  0  0  0
 11 12  1  0  0  0  0
 11 13  1  0  0  0  0
 11 14  1  0  0  0  0
 14 15  1  0  0  0  0
 14 16  1  0  0  0  0
 14 17  1  0  0  0  0
 17 18  1  0  0  0  0
 17 19  1  0  0  0  0
 17 20  1  0  0  0  0
 20 21  1  0  0  0  0
 20 22  1  0  0  0  0
 22 23  1  0  0  0  0
 22 24  1  0  0  0  0
 22 25  1  0  0  0  0
 20 26  1  0  0  0  0
 26 27  1  0  0  0  0
 26 28  1  0  0  0  0
 26 29  1  0  0  0  0
M  END
> <VConfSearch Rank>
491

> <Conf_Id>
130

> <Delta U+W>
1.359

> <U+W>
-26.467

> <U>
25.687

> <W>
-52.154

> <W(PB)>
-54.643

> <W(SA)>
2.489

> <Valence>
4.682

> <Coulomb>
19.653

> <VdW>
1.352

> <VdW6>
-9.477

> <VdW12>
10.829

> <Bond>
0.274

> <Angle>
1.550

> <Pdih>
2.858

> <Idih>
0.000

> <Tether>
0.000

$$$$
VeraChem MOL file


 29 28  0  0  0  0  0  0  0  0999 V2000     
   22.1581   16.7151   21.1481 C   0  0  0  0  0  0  0  0  0  0  0  0
   22.7399   16.6742   20.2181 H   0  0  0  0  0  0  0  0  0  0  0  0
   22.5499   15.9435   21.8234 H   0  0  0  0  0  0  0  0  0  0  0  0
   21.1206   16.4603   20.8989 H   0  0  0  0  0  0  0  0  0  0  0  0
   22.2606   18.1180   21.7883 C   0  0  0  0  0  0  0  0  0  0  0  0
   21.8323   18.8671   21.1078 H   0  0  0  0  0  0  0  0  0  0  0  0
   23.3224   18.3777   21.9020 H   0  0  0  0  0  0  0  0  0  0  0  0
   21.5754   18.2163   23.1727 C   0  0  0  0  0  0  0  0  0  0  0  0
   22.0203   17.4777   23.8536 H   0  0  0  0  0  0  0  0  0  0  0  0
   21.8043   19.2015   23.5979 H   0  0  0  0  0  0  0  0  0  0  0  0
   20.0396   18.0127   23.1152 C   0  0  0  0  0  0  0  0  0  0  0  0
   19.8264   16.9989   22.7522 H   0  0  0  0  0  0  0  0  0  0  0  0
   19.6036   18.7006   22.3808 H   0  0  0  0  0  0  0  0  0  0  0  0
   19.3510   18.1822   24.4944 C   0  0  0  0  0  0  0  0  0  0  0  0
   18.3435   17.7451   24.4585 H   0  0  0  0  0  0  0  0  0  0  0  0
   19.9026   17.5833   25.2322 H   0  0  0  0  0  0  0  0  0  0  0  0
   19.2591   19.6486   25.0006 C   0  0  0  0  0  0  0  0  0  0  0  0
   20.0727   20.2578   24.5892 H   0  0  0  0  0  0  0  0  0  0  0  0
   19.4153   19.6368   26.0874 H   0  0  0  0  0  0  0  0  0  0  0  0
   17.9005   20.3392   24.7324 C   0  0  2  0  0  0  0  0  0  0  0  0
   17.1132   19.7310   25.1883 H   0  0  0  0  0  0  0  0  0  0  0  0
   17.5914   20.4798   23.2324 C   0  0  0  0  0  0  0  0  0  0  0  0
   17.4564   19.4977   22.7648 H   0  0  0  0  0  0  0  0  0  0  0  0
   16.6609   21.0403   23.0798 H   0  0  0  0  0  0  0  0  0  0  0  0
   18.3975   21.0080   22.7082 H   0  0  0  0  0  0  0  0  0  0  0  0
   17.8370   21.6831   25.4036 N   0  3  0  0  0  0  0  0  0  0  0  0
   17.9933   21.6084   26.4130 H   0  0  0  0  0  0  0  0  0  0  0  0
   16.9233   22.1254   25.2688 H   0  0  0  0  0  0  0  0  0  0  0  0
   18.5438   22.3217   25.0290 H   0  0  0  0  0  0  0  0  0  0  0  0
  1  2  1  0  0  0  0
  1  3  1  0  0  0  0
  1  4  1  0  0  0  0
  1  5  1  0  0  0  0
  5  6  1  0  0  0  0
  5  7  1  0  0  0  0
  5  8  1  0  0  0  0
  8  9  1  0  0  0  0
  8 10  1  0  0  0  0
  8 11  1  0  0  0  0
 11 12  1  0  0  0  0
 11 13  1  0  0  0  0
 11 14  1  0  0  0  0
 14 15  1  0  0  0  0
 14 16  1  0  0  0  0
 14 17  1  0  0  0  0
 17 18  1  0  0  0  0
 17 19  1  0  0  0  0
 17 20  1  0  0  0  0
 20 21  1  0  0  0  0
 20 22  1  0  0  0  0
 22 23  1  0  0  0  0
 22 24  1  0  0  0  0
 22 25  1  0  0  0  0
 20 26  1  0  0  0  0
 26 27  1  0  0  0  0
 26 28  1  0  0  0  0
 26 29  1  0  0  0  0
M  END
> <VConfSearch Rank>
492

> <Conf_Id>
157

> <Delta U+W>
4.354

> <U+W>
-23.472

> <U>
28.780

> <W>
-52.252

> <W(PB)>
-54.715

> <W(SA)>
2.462

> <Valence>
7.566

> <Coulomb>
19.822

> <VdW>
1.392

> <VdW6>
-10.248

> <VdW12>
11.641

> <Bond>
0.340

> <Angle>
2.096

> <Pdih>
5.129

> <Idih>
0.000

> <Tether>
0.000

$$$$
VeraChem MOL file


 29 28  0  0  0  0  0  0  0  0999 V2000     
   19.9802   21.7736   20.9490 C   0  0  0  0  0  0  0  0  0  0  0  0
   20.6831   22.4588   20.4578 H   0  0  0  0  0  0  0  0  0  0  0  0
   20.4041   20.7650   20.8912 H   0  0  0  0  0  0  0  0  0  0  0  0
   19.0480   21.7813   20.3693 H   0  0  0  0  0  0  0  0  0  0  0  0
   19.7250   22.2153   22.4089 C   0  0  0  0  0  0  0  0  0  0  0  0
   19.3194   23.2365   22.3874 H   0  0  0  0  0  0  0  0  0  0  0  0
   20.6732   22.2787   22.9606 H   0  0  0  0  0  0  0  0  0  0  0  0
   18.7233   21.3015   23.1608 C   0  0  0  0  0  0  0  0  0  0  0  0
   18.1152   21.9335   23.8226 H   0  0  0  0  0  0  0  0  0  0  0  0
   18.0156   20.8496   22.4523 H   0  0  0  0  0  0  0  0  0  0  0  0
   19.3752   20.2013   24.0377 C   0  0  0  0  0  0  0  0  0  0  0  0
   18.5705   19.6776   24.5696 H   0  0  0  0  0  0  0  0  0  0  0  0
   19.9964   20.6733   24.8113 H   0  0  0  0  0  0  0  0  0  0  0  0
   20.2288   19.1795   23.2469 C   0  0  0  0  0  0  0  0  0  0  0  0
   19.6417   18.7641   22.4173 H   0  0  0  0  0  0  0  0  0  0  0  0
   21.0819   19.6994   22.7927 H   0  0  0  0  0  0  0  0  0  0  0  0
   20.7886   18.0345   24.1300 C   0  0  0  0  0  0  0  0  0  0  0  0
   21.4380   18.4688   24.9017 H   0  0  0  0  0  0  0  0  0  0  0  0
   21.4324   17.3925   23.5141 H   0  0  0  0  0  0  0  0  0  0  0  0
   19.7077   17.1657   24.8118 C   0  0  2  0  0  0  0  0  0  0  0  0
   19.0941   17.8117   25.4463 H   0  0  0  0  0  0  0  0  0  0  0  0
   20.3632   16.1016   25.7063 C   0  0  0  0  0  0  0  0  0  0  0  0
   20.9881   15.4181   25.1179 H   0  0  0  0  0  0  0  0  0  0  0  0
   20.9957   16.5709   26.4701 H   0  0  0  0  0  0  0  0  0  0  0  0
   19.6009   15.5071   26.2247 H   0  0  0  0  0  0  0  0  0  0  0  0
   18.7775   16.5238   23.8196 N   0  3  0  0  0  0  0  0  0  0  0  0
   18.3065   17.2276   23.2445 H   0  0  0  0  0  0  0  0  0  0  0  0
   18.0526   15.9725   24.2877 H   0  0  0  0  0  0  0  0  0  0  0  0
   19.2820   15.8956   23.1884 H   0  0  0  0  0  0  0  0  0  0  0  0
  1  2  1  0  0  0  0
  1  3  1  0  0  0  0
  1  4  1  0  0  0  0
  1  5  1  0  0  0  0
  5  6  1  0  0  0  0
  5  7  1  0  0  0  0
  5  8  1  0  0  0  0
  8  9  1  0  0  0  0
  8 10  1  0  0  0  0
  8 11  1  0  0  0  0
 11 12  1  0  0  0  0
 11 13  1  0  0  0  0
 11 14  1  0  0  0  0
 14 15  1  0  0  0  0
 14 16  1  0  0  0  0
 14 17  1  0  0  0  0
 17 18  1  0  0  0  0
 17 19  1  0  0  0  0
 17 20  1  0  0  0  0
 20 21  1  0  0  0  0
 20 22  1  0  0  0  0
 22 23  1  0  0  0  0
 22 24  1  0  0  0  0
 22 25  1  0  0  0  0
 20 26  1  0  0  0  0
 26 27  1  0  0  0  0
 26 28  1  0  0  0  0
 26 29  1  0  0  0  0
M  END
> <VConfSearch Rank>
493

> <Conf_Id>
158

> <Delta U+W>
3.648

> <U+W>
-24.178

> <U>
28.057

> <W>
-52.235

> <W(PB)>
-54.696

> <W(SA)>
2.460

> <Valence>
6.543

> <Coulomb>
20.387

> <VdW>
1.127

> <VdW6>
-10.342

> <VdW12>
11.469

> <Bond>
0.308

> <Angle>
1.938

> <Pdih>
4.297

> <Idih>
0.000

> <Tether>
0.000

$$$$
VeraChem MOL file


 29 28  0  0  0  0  0  0  0  0999 V2000     
   17.2154   20.4411   21.2920 C   0  0  0  0  0  0  0  0  0  0  0  0
   17.5395   21.4414   21.6069 H   0  0  0  0  0  0  0  0  0  0  0  0
   18.0877   19.9041   20.8993 H   0  0  0  0  0  0  0  0  0  0  0  0
   16.5041   20.5636   20.4649 H   0  0  0  0  0  0  0  0  0  0  0  0
   16.5567   19.6762   22.4624 C   0  0  0  0  0  0  0  0  0  0  0  0
   16.2710   18.6680   22.1311 H   0  0  0  0  0  0  0  0  0  0  0  0
   15.6226   20.1859   22.7369 H   0  0  0  0  0  0  0  0  0  0  0  0
   17.4565   19.5794   23.7180 C   0  0  0  0  0  0  0  0  0  0  0  0
   17.7244   20.5901   24.0555 H   0  0  0  0  0  0  0  0  0  0  0  0
   16.8729   19.1264   24.5313 H   0  0  0  0  0  0  0  0  0  0  0  0
   18.7412   18.7468   23.4932 C   0  0  0  0  0  0  0  0  0  0  0  0
   19.3569   19.2203   22.7208 H   0  0  0  0  0  0  0  0  0  0  0  0
   18.4689   17.7530   23.1123 H   0  0  0  0  0  0  0  0  0  0  0  0
   19.5562   18.5890   24.8004 C   0  0  0  0  0  0  0  0  0  0  0  0
   19.7740   19.5727   25.2390 H   0  0  0  0  0  0  0  0  0  0  0  0
   18.9286   18.0633   25.5333 H   0  0  0  0  0  0  0  0  0  0  0  0
   20.8710   17.7863   24.6135 C   0  0  0  0  0  0  0  0  0  0  0  0
   20.7734   17.0849   23.7742 H   0  0  0  0  0  0  0  0  0  0  0  0
   21.0133   17.1645   25.5072 H   0  0  0  0  0  0  0  0  0  0  0  0
   22.1428   18.6516   24.4421 C   0  0  2  0  0  0  0  0  0  0  0  0
   22.2331   19.3007   25.3186 H   0  0  0  0  0  0  0  0  0  0  0  0
   22.0962   19.5424   23.1892 C   0  0  0  0  0  0  0  0  0  0  0  0
   21.9117   18.9486   22.2854 H   0  0  0  0  0  0  0  0  0  0  0  0
   21.3101   20.3014   23.2755 H   0  0  0  0  0  0  0  0  0  0  0  0
   23.0457   20.0760   23.0583 H   0  0  0  0  0  0  0  0  0  0  0  0
   23.3780   17.7946   24.4235 N   0  3  0  0  0  0  0  0  0  0  0  0
   23.4561   17.2269   25.2723 H   0  0  0  0  0  0  0  0  0  0  0  0
   24.2269   18.3637   24.3586 H   0  0  0  0  0  0  0  0  0  0  0  0
   23.3771   17.1551   23.6244 H   0  0  0  0  0  0  0  0  0  0  0  0
  1  2  1  0  0  0  0
  1  3  1  0  0  0  0
  1  4  1  0  0  0  0
  1  5  1  0  0  0  0
  5  6  1  0  0  0  0
  5  7  1  0  0  0  0
  5  8  1  0  0  0  0
  8  9  1  0  0  0  0
  8 10  1  0  0  0  0
  8 11  1  0  0  0  0
 11 12  1  0  0  0  0
 11 13  1  0  0  0  0
 11 14  1  0  0  0  0
 14 15  1  0  0  0  0
 14 16  1  0  0  0  0
 14 17  1  0  0  0  0
 17 18  1  0  0  0  0
 17 19  1  0  0  0  0
 17 20  1  0  0  0  0
 20 21  1  0  0  0  0
 20 22  1  0  0  0  0
 22 23  1  0  0  0  0
 22 24  1  0  0  0  0
 22 25  1  0  0  0  0
 20 26  1  0  0  0  0
 26 27  1  0  0  0  0
 26 28  1  0  0  0  0
 26 29  1  0  0  0  0
M  END
> <VConfSearch Rank>
494

> <Conf_Id>
156

> <Delta U+W>
3.393

> <U+W>
-24.433

> <U>
27.713

> <W>
-52.146

> <W(PB)>
-54.603

> <W(SA)>
2.458

> <Valence>
6.758

> <Coulomb>
19.720

> <VdW>
1.235

> <VdW6>
-9.782

> <VdW12>
11.017

> <Bond>
0.287

> <Angle>
1.880

> <Pdih>
4.591

> <Idih>
0.000

> <Tether>
0.000

$$$$
VeraChem MOL file


 29 28  0  0  0  0  0  0  0  0999 V2000     
   19.6000   21.1120   26.8937 C   0  0  0  0  0  0  0  0  0  0  0  0
   18.6014   20.6727   27.0161 H   0  0  0  0  0  0  0  0  0  0  0  0
   20.1874   20.8819   27.7921 H   0  0  0  0  0  0  0  0  0  0  0  0
   19.4842   22.2021   26.8370 H   0  0  0  0  0  0  0  0  0  0  0  0
   20.2915   20.5708   25.6246 C   0  0  0  0  0  0  0  0  0  0  0  0
   21.2745   21.0491   25.5124 H   0  0  0  0  0  0  0  0  0  0  0  0
   19.6963   20.8544   24.7467 H   0  0  0  0  0  0  0  0  0  0  0  0
   20.4619   19.0344   25.6794 C   0  0  0  0  0  0  0  0  0  0  0  0
   20.9925   18.7676   26.6038 H   0  0  0  0  0  0  0  0  0  0  0  0
   19.4775   18.5536   25.7498 H   0  0  0  0  0  0  0  0  0  0  0  0
   21.2538   18.4531   24.4794 C   0  0  0  0  0  0  0  0  0  0  0  0
   21.3470   17.3664   24.6120 H   0  0  0  0  0  0  0  0  0  0  0  0
   22.2790   18.8472   24.5075 H   0  0  0  0  0  0  0  0  0  0  0  0
   20.6509   18.7386   23.0794 C   0  0  0  0  0  0  0  0  0  0  0  0
   20.6653   19.8184   22.8853 H   0  0  0  0  0  0  0  0  0  0  0  0
   21.3156   18.2876   22.3315 H   0  0  0  0  0  0  0  0  0  0  0  0
   19.2129   18.1795   22.9013 C   0  0  0  0  0  0  0  0  0  0  0  0
   18.5427   18.6520   23.6299 H   0  0  0  0  0  0  0  0  0  0  0  0
   19.2084   17.1068   23.1354 H   0  0  0  0  0  0  0  0  0  0  0  0
   18.6041   18.3855   21.4941 C   0  0  2  0  0  0  0  0  0  0  0  0
   17.5811   17.9977   21.5236 H   0  0  0  0  0  0  0  0  0  0  0  0
   19.3652   17.6015   20.4108 C   0  0  0  0  0  0  0  0  0  0  0  0
   18.8292   17.6508   19.4550 H   0  0  0  0  0  0  0  0  0  0  0  0
   20.3724   18.0033   20.2497 H   0  0  0  0  0  0  0  0  0  0  0  0
   19.4563   16.5435   20.6864 H   0  0  0  0  0  0  0  0  0  0  0  0
   18.4882   19.8391   21.1263 N   0  3  0  0  0  0  0  0  0  0  0  0
   17.9415   20.3590   21.8187 H   0  0  0  0  0  0  0  0  0  0  0  0
   18.0282   19.9595   20.2194 H   0  0  0  0  0  0  0  0  0  0  0  0
   19.4092   20.2800   21.0646 H   0  0  0  0  0  0  0  0  0  0  0  0
  1  2  1  0  0  0  0
  1  3  1  0  0  0  0
  1  4  1  0  0  0  0
  1  5  1  0  0  0  0
  5  6  1  0  0  0  0
  5  7  1  0  0  0  0
  5  8  1  0  0  0  0
  8  9  1  0  0  0  0
  8 10  1  0  0  0  0
  8 11  1  0  0  0  0
 11 12  1  0  0  0  0
 11 13  1  0  0  0  0
 11 14  1  0  0  0  0
 14 15  1  0  0  0  0
 14 16  1  0  0  0  0
 14 17  1  0  0  0  0
 17 18  1  0  0  0  0
 17 19  1  0  0  0  0
 17 20  1  0  0  0  0
 20 21  1  0  0  0  0
 20 22  1  0  0  0  0
 22 23  1  0  0  0  0
 22 24  1  0  0  0  0
 22 25  1  0  0  0  0
 20 26  1  0  0  0  0
 26 27  1  0  0  0  0
 26 28  1  0  0  0  0
 26 29  1  0  0  0  0
M  END
> <VConfSearch Rank>
495

> <Conf_Id>
78

> <Delta U+W>
1.477

> <U+W>
-26.349

> <U>
26.385

> <W>
-52.734

> <W(PB)>
-55.179

> <W(SA)>
2.445

> <Valence>
4.726

> <Coulomb>
20.482

> <VdW>
1.177

> <VdW6>
-10.349

> <VdW12>
11.526

> <Bond>
0.319

> <Angle>
1.933

> <Pdih>
2.474

> <Idih>
0.000

> <Tether>
0.000

$$$$
VeraChem MOL file


 29 28  0  0  0  0  0  0  0  0999 V2000     
   22.1898   21.1499   25.4720 C   0  0  0  0  0  0  0  0  0  0  0  0
   21.8515   22.1939   25.4462 H   0  0  0  0  0  0  0  0  0  0  0  0
   21.3769   20.5429   25.8855 H   0  0  0  0  0  0  0  0  0  0  0  0
   23.0364   21.0915   26.1682 H   0  0  0  0  0  0  0  0  0  0  0  0
   22.6139   20.6731   24.0633 C   0  0  0  0  0  0  0  0  0  0  0  0
   23.0237   19.6547   24.1115 H   0  0  0  0  0  0  0  0  0  0  0  0
   23.4387   21.3147   23.7229 H   0  0  0  0  0  0  0  0  0  0  0  0
   21.4689   20.7451   23.0204 C   0  0  0  0  0  0  0  0  0  0  0  0
   20.7615   21.5425   23.2869 H   0  0  0  0  0  0  0  0  0  0  0  0
   21.9030   21.0456   22.0568 H   0  0  0  0  0  0  0  0  0  0  0  0
   20.7083   19.4132   22.7934 C   0  0  0  0  0  0  0  0  0  0  0  0
   21.4089   18.6522   22.4229 H   0  0  0  0  0  0  0  0  0  0  0  0
   19.9804   19.5775   21.9884 H   0  0  0  0  0  0  0  0  0  0  0  0
   19.9803   18.8737   24.0491 C   0  0  0  0  0  0  0  0  0  0  0  0
   20.7234   18.6335   24.8201 H   0  0  0  0  0  0  0  0  0  0  0  0
   19.3374   19.6556   24.4741 H   0  0  0  0  0  0  0  0  0  0  0  0
   19.1529   17.5909   23.7752 C   0  0  0  0  0  0  0  0  0  0  0  0
   18.7037   17.2504   24.7175 H   0  0  0  0  0  0  0  0  0  0  0  0
   19.8412   16.7950   23.4615 H   0  0  0  0  0  0  0  0  0  0  0  0
   18.0426   17.7352   22.7073 C   0  0  2  0  0  0  0  0  0  0  0  0
   18.5039   18.0563   21.7690 H   0  0  0  0  0  0  0  0  0  0  0  0
   16.9829   18.7759   23.1100 C   0  0  0  0  0  0  0  0  0  0  0  0
   16.1816   18.8211   22.3623 H   0  0  0  0  0  0  0  0  0  0  0  0
   16.5313   18.5280   24.0787 H   0  0  0  0  0  0  0  0  0  0  0  0
   17.4182   19.7796   23.1800 H   0  0  0  0  0  0  0  0  0  0  0  0
   17.3906   16.4108   22.4228 N   0  3  0  0  0  0  0  0  0  0  0  0
   16.9258   16.0366   23.2545 H   0  0  0  0  0  0  0  0  0  0  0  0
   18.0732   15.7135   22.1118 H   0  0  0  0  0  0  0  0  0  0  0  0
   16.6823   16.4927   21.6878 H   0  0  0  0  0  0  0  0  0  0  0  0
  1  2  1  0  0  0  0
  1  3  1  0  0  0  0
  1  4  1  0  0  0  0
  1  5  1  0  0  0  0
  5  6  1  0  0  0  0
  5  7  1  0  0  0  0
  5  8  1  0  0  0  0
  8  9  1  0  0  0  0
  8 10  1  0  0  0  0
  8 11  1  0  0  0  0
 11 12  1  0  0  0  0
 11 13  1  0  0  0  0
 11 14  1  0  0  0  0
 14 15  1  0  0  0  0
 14 16  1  0  0  0  0
 14 17  1  0  0  0  0
 17 18  1  0  0  0  0
 17 19  1  0  0  0  0
 17 20  1  0  0  0  0
 20 21  1  0  0  0  0
 20 22  1  0  0  0  0
 22 23  1  0  0  0  0
 22 24  1  0  0  0  0
 22 25  1  0  0  0  0
 20 26  1  0  0  0  0
 26 27  1  0  0  0  0
 26 28  1  0  0  0  0
 26 29  1  0  0  0  0
M  END
> <VConfSearch Rank>
496

> <Conf_Id>
145

> <Delta U+W>
3.784

> <U+W>
-24.042

> <U>
28.220

> <W>
-52.262

> <W(PB)>
-54.724

> <W(SA)>
2.462

> <Valence>
7.040

> <Coulomb>
19.984

> <VdW>
1.197

> <VdW6>
-10.566

> <VdW12>
11.763

> <Bond>
0.320

> <Angle>
2.280

> <Pdih>
4.439

> <Idih>
0.000

> <Tether>
0.000

$$$$
VeraChem MOL file


 29 28  0  0  0  0  0  0  0  0999 V2000     
   19.7103   19.4388   19.5901 C   0  0  0  0  0  0  0  0  0  0  0  0
   20.3847   18.8947   18.9161 H   0  0  0  0  0  0  0  0  0  0  0  0
   18.8152   18.8232   19.7485 H   0  0  0  0  0  0  0  0  0  0  0  0
   19.3994   20.3615   19.0830 H   0  0  0  0  0  0  0  0  0  0  0  0
   20.4055   19.7608   20.9297 C   0  0  0  0  0  0  0  0  0  0  0  0
   19.7205   20.3407   21.5599 H   0  0  0  0  0  0  0  0  0  0  0  0
   21.2753   20.4052   20.7401 H   0  0  0  0  0  0  0  0  0  0  0  0
   20.8638   18.4742   21.6578 C   0  0  0  0  0  0  0  0  0  0  0  0
   20.0169   17.7877   21.7940 H   0  0  0  0  0  0  0  0  0  0  0  0
   21.5764   17.9495   21.0065 H   0  0  0  0  0  0  0  0  0  0  0  0
   21.5534   18.7490   23.0196 C   0  0  0  0  0  0  0  0  0  0  0  0
   22.0299   19.7390   23.0134 H   0  0  0  0  0  0  0  0  0  0  0  0
   22.3738   18.0277   23.1386 H   0  0  0  0  0  0  0  0  0  0  0  0
   20.6282   18.6103   24.2561 C   0  0  0  0  0  0  0  0  0  0  0  0
   20.2480   17.5813   24.3041 H   0  0  0  0  0  0  0  0  0  0  0  0
   21.2455   18.7525   25.1521 H   0  0  0  0  0  0  0  0  0  0  0  0
   19.4413   19.6103   24.2757 C   0  0  0  0  0  0  0  0  0  0  0  0
   18.7806   19.4028   23.4253 H   0  0  0  0  0  0  0  0  0  0  0  0
   19.8203   20.6306   24.1316 H   0  0  0  0  0  0  0  0  0  0  0  0
   18.5803   19.5746   25.5606 C   0  0  2  0  0  0  0  0  0  0  0  0
   17.7452   20.2657   25.4102 H   0  0  0  0  0  0  0  0  0  0  0  0
   19.3604   20.0551   26.7970 C   0  0  0  0  0  0  0  0  0  0  0  0
   18.6883   20.1558   27.6580 H   0  0  0  0  0  0  0  0  0  0  0  0
   20.1557   19.3538   27.0750 H   0  0  0  0  0  0  0  0  0  0  0  0
   19.8151   21.0366   26.6142 H   0  0  0  0  0  0  0  0  0  0  0  0
   17.9654   18.2237   25.8024 N   0  3  0  0  0  0  0  0  0  0  0  0
   18.6837   17.5137   25.9653 H   0  0  0  0  0  0  0  0  0  0  0  0
   17.4044   17.9179   25.0022 H   0  0  0  0  0  0  0  0  0  0  0  0
   17.3511   18.2335   26.6217 H   0  0  0  0  0  0  0  0  0  0  0  0
  1  2  1  0  0  0  0
  1  3  1  0  0  0  0
  1  4  1  0  0  0  0
  1  5  1  0  0  0  0
  5  6  1  0  0  0  0
  5  7  1  0  0  0  0
  5  8  1  0  0  0  0
  8  9  1  0  0  0  0
  8 10  1  0  0  0  0
  8 11  1  0  0  0  0
 11 12  1  0  0  0  0
 11 13  1  0  0  0  0
 11 14  1  0  0  0  0
 14 15  1  0  0  0  0
 14 16  1  0  0  0  0
 14 17  1  0  0  0  0
 17 18  1  0  0  0  0
 17 19  1  0  0  0  0
 17 20  1  0  0  0  0
 20 21  1  0  0  0  0
 20 22  1  0  0  0  0
 22 23  1  0  0  0  0
 22 24  1  0  0  0  0
 22 25  1  0  0  0  0
 20 26  1  0  0  0  0
 26 27  1  0  0  0  0
 26 28  1  0  0  0  0
 26 29  1  0  0  0  0
M  END
> <VConfSearch Rank>
497

> <Conf_Id>
71

> <Delta U+W>
3.542

> <U+W>
-24.284

> <U>
28.217

> <W>
-52.501

> <W(PB)>
-54.947

> <W(SA)>
2.446

> <Valence>
6.821

> <Coulomb>
20.147

> <VdW>
1.249

> <VdW6>
-10.237

> <VdW12>
11.486

> <Bond>
0.317

> <Angle>
1.990

> <Pdih>
4.515

> <Idih>
0.000

> <Tether>
0.000

$$$$
VeraChem MOL file


 29 28  0  0  0  0  0  0  0  0999 V2000     
   20.8398   22.9435   23.3732 C   0  0  0  0  0  0  0  0  0  0  0  0
   20.6351   22.8640   24.4489 H   0  0  0  0  0  0  0  0  0  0  0  0
   21.8663   23.3118   23.2468 H   0  0  0  0  0  0  0  0  0  0  0  0
   20.1581   23.6955   22.9551 H   0  0  0  0  0  0  0  0  0  0  0  0
   20.6478   21.5830   22.6705 C   0  0  0  0  0  0  0  0  0  0  0  0
   20.8264   21.7040   21.5930 H   0  0  0  0  0  0  0  0  0  0  0  0
   19.6034   21.2672   22.7794 H   0  0  0  0  0  0  0  0  0  0  0  0
   21.6075   20.5088   23.2368 C   0  0  0  0  0  0  0  0  0  0  0  0
   22.6381   20.8545   23.0766 H   0  0  0  0  0  0  0  0  0  0  0  0
   21.4841   20.4196   24.3249 H   0  0  0  0  0  0  0  0  0  0  0  0
   21.4463   19.1199   22.5655 C   0  0  0  0  0  0  0  0  0  0  0  0
   22.4417   18.6609   22.4883 H   0  0  0  0  0  0  0  0  0  0  0  0
   21.0932   19.2341   21.5314 H   0  0  0  0  0  0  0  0  0  0  0  0
   20.5353   18.1291   23.3351 C   0  0  0  0  0  0  0  0  0  0  0  0
   20.5664   17.1648   22.8114 H   0  0  0  0  0  0  0  0  0  0  0  0
   20.9638   17.9524   24.3305 H   0  0  0  0  0  0  0  0  0  0  0  0
   19.0623   18.5974   23.4725 C   0  0  0  0  0  0  0  0  0  0  0  0
   18.6855   18.9036   22.4880 H   0  0  0  0  0  0  0  0  0  0  0  0
   19.0222   19.4887   24.1108 H   0  0  0  0  0  0  0  0  0  0  0  0
   18.0971   17.5411   24.0605 C   0  0  2  0  0  0  0  0  0  0  0  0
   17.1028   17.9965   24.1019 H   0  0  0  0  0  0  0  0  0  0  0  0
   18.4854   17.1387   25.4938 C   0  0  0  0  0  0  0  0  0  0  0  0
   18.5818   18.0239   26.1346 H   0  0  0  0  0  0  0  0  0  0  0  0
   17.7155   16.4924   25.9329 H   0  0  0  0  0  0  0  0  0  0  0  0
   19.4355   16.5917   25.5176 H   0  0  0  0  0  0  0  0  0  0  0  0
   17.9630   16.3303   23.1785 N   0  3  0  0  0  0  0  0  0  0  0  0
   17.6629   16.5858   22.2333 H   0  0  0  0  0  0  0  0  0  0  0  0
   17.2737   15.6709   23.5508 H   0  0  0  0  0  0  0  0  0  0  0  0
   18.8519   15.8309   23.0954 H   0  0  0  0  0  0  0  0  0  0  0  0
  1  2  1  0  0  0  0
  1  3  1  0  0  0  0
  1  4  1  0  0  0  0
  1  5  1  0  0  0  0
  5  6  1  0  0  0  0
  5  7  1  0  0  0  0
  5  8  1  0  0  0  0
  8  9  1  0  0  0  0
  8 10  1  0  0  0  0
  8 11  1  0  0  0  0
 11 12  1  0  0  0  0
 11 13  1  0  0  0  0
 11 14  1  0  0  0  0
 14 15  1  0  0  0  0
 14 16  1  0  0  0  0
 14 17  1  0  0  0  0
 17 18  1  0  0  0  0
 17 19  1  0  0  0  0
 17 20  1  0  0  0  0
 20 21  1  0  0  0  0
 20 22  1  0  0  0  0
 22 23  1  0  0  0  0
 22 24  1  0  0  0  0
 22 25  1  0  0  0  0
 20 26  1  0  0  0  0
 26 27  1  0  0  0  0
 26 28  1  0  0  0  0
 26 29  1  0  0  0  0
M  END
> <VConfSearch Rank>
498

> <Conf_Id>
163

> <Delta U+W>
3.309

> <U+W>
-24.517

> <U>
27.916

> <W>
-52.433

> <W(PB)>
-54.866

> <W(SA)>
2.433

> <Valence>
6.693

> <Coulomb>
20.015

> <VdW>
1.208

> <VdW6>
-10.294

> <VdW12>
11.503

> <Bond>
0.312

> <Angle>
1.939

> <Pdih>
4.441

> <Idih>
0.000

> <Tether>
0.000

$$$$
VeraChem MOL file


 29 28  0  0  0  0  0  0  0  0999 V2000     
   23.4671   19.1644   25.1002 C   0  0  0  0  0  0  0  0  0  0  0  0
   23.5661   20.1783   25.5092 H   0  0  0  0  0  0  0  0  0  0  0  0
   22.9167   18.5526   25.8255 H   0  0  0  0  0  0  0  0  0  0  0  0
   24.4751   18.7394   25.0091 H   0  0  0  0  0  0  0  0  0  0  0  0
   22.7638   19.1864   23.7241 C   0  0  0  0  0  0  0  0  0  0  0  0
   22.6450   18.1591   23.3526 H   0  0  0  0  0  0  0  0  0  0  0  0
   23.4156   19.7002   23.0037 H   0  0  0  0  0  0  0  0  0  0  0  0
   21.3898   19.8987   23.7437 C   0  0  0  0  0  0  0  0  0  0  0  0
   21.5141   20.9263   24.1118 H   0  0  0  0  0  0  0  0  0  0  0  0
   21.0369   19.9805   22.7076 H   0  0  0  0  0  0  0  0  0  0  0  0
   20.3259   19.1625   24.5969 C   0  0  0  0  0  0  0  0  0  0  0  0
   20.6815   19.0809   25.6320 H   0  0  0  0  0  0  0  0  0  0  0  0
   20.2099   18.1327   24.2343 H   0  0  0  0  0  0  0  0  0  0  0  0
   18.9499   19.8775   24.6226 C   0  0  0  0  0  0  0  0  0  0  0  0
   18.2766   19.3252   25.2918 H   0  0  0  0  0  0  0  0  0  0  0  0
   19.0713   20.8695   25.0792 H   0  0  0  0  0  0  0  0  0  0  0  0
   18.2704   20.0465   23.2373 C   0  0  0  0  0  0  0  0  0  0  0  0
   18.8467   20.7624   22.6375 H   0  0  0  0  0  0  0  0  0  0  0  0
   17.2820   20.5032   23.3790 H   0  0  0  0  0  0  0  0  0  0  0  0
   18.1155   18.7294   22.4454 C   0  0  2  0  0  0  0  0  0  0  0  0
   19.1085   18.2904   22.3106 H   0  0  0  0  0  0  0  0  0  0  0  0
   17.5207   19.0063   21.0558 C   0  0  0  0  0  0  0  0  0  0  0  0
   17.4432   18.0789   20.4749 H   0  0  0  0  0  0  0  0  0  0  0  0
   16.5184   19.4460   21.1332 H   0  0  0  0  0  0  0  0  0  0  0  0
   18.1559   19.7004   20.4915 H   0  0  0  0  0  0  0  0  0  0  0  0
   17.2882   17.7135   23.1840 N   0  3  0  0  0  0  0  0  0  0  0  0
   17.6937   17.5003   24.0993 H   0  0  0  0  0  0  0  0  0  0  0  0
   17.2209   16.8344   22.6633 H   0  0  0  0  0  0  0  0  0  0  0  0
   16.3351   18.0521   23.3399 H   0  0  0  0  0  0  0  0  0  0  0  0
  1  2  1  0  0  0  0
  1  3  1  0  0  0  0
  1  4  1  0  0  0  0
  1  5  1  0  0  0  0
  5  6  1  0  0  0  0
  5  7  1  0  0  0  0
  5  8  1  0  0  0  0
  8  9  1  0  0  0  0
  8 10  1  0  0  0  0
  8 11  1  0  0  0  0
 11 12  1  0  0  0  0
 11 13  1  0  0  0  0
 11 14  1  0  0  0  0
 14 15  1  0  0  0  0
 14 16  1  0  0  0  0
 14 17  1  0  0  0  0
 17 18  1  0  0  0  0
 17 19  1  0  0  0  0
 17 20  1  0  0  0  0
 20 21  1  0  0  0  0
 20 22  1  0  0  0  0
 22 23  1  0  0  0  0
 22 24  1  0  0  0  0
 22 25  1  0  0  0  0
 20 26  1  0  0  0  0
 26 27  1  0  0  0  0
 26 28  1  0  0  0  0
 26 29  1  0  0  0  0
M  END
> <VConfSearch Rank>
499

> <Conf_Id>
173

> <Delta U+W>
1.363

> <U+W>
-26.462

> <U>
25.816

> <W>
-52.279

> <W(PB)>
-54.727

> <W(SA)>
2.449

> <Valence>
4.504

> <Coulomb>
20.342

> <VdW>
0.971

> <VdW6>
-10.532

> <VdW12>
11.503

> <Bond>
0.307

> <Angle>
1.715

> <Pdih>
2.481

> <Idih>
0.000

> <Tether>
0.000

$$$$
VeraChem MOL file


 29 28  0  0  0  0  0  0  0  0999 V2000     
   21.2426   18.0017   20.0737 C   0  0  0  0  0  0  0  0  0  0  0  0
   22.1257   18.6538   20.0590 H   0  0  0  0  0  0  0  0  0  0  0  0
   21.5656   16.9829   19.8230 H   0  0  0  0  0  0  0  0  0  0  0  0
   20.5590   18.3419   19.2851 H   0  0  0  0  0  0  0  0  0  0  0  0
   20.5478   18.0409   21.4512 C   0  0  0  0  0  0  0  0  0  0  0  0
   19.6548   17.4010   21.4271 H   0  0  0  0  0  0  0  0  0  0  0  0
   20.2080   19.0665   21.6466 H   0  0  0  0  0  0  0  0  0  0  0  0
   21.4948   17.5759   22.5809 C   0  0  0  0  0  0  0  0  0  0  0  0
   21.9188   16.5987   22.3113 H   0  0  0  0  0  0  0  0  0  0  0  0
   22.3449   18.2683   22.6514 H   0  0  0  0  0  0  0  0  0  0  0  0
   20.8200   17.4462   23.9710 C   0  0  0  0  0  0  0  0  0  0  0  0
   21.5792   17.0740   24.6728 H   0  0  0  0  0  0  0  0  0  0  0  0
   20.0406   16.6724   23.9416 H   0  0  0  0  0  0  0  0  0  0  0  0
   20.2454   18.7707   24.5376 C   0  0  0  0  0  0  0  0  0  0  0  0
   20.4118   18.7788   25.6229 H   0  0  0  0  0  0  0  0  0  0  0  0
   20.8144   19.6188   24.1356 H   0  0  0  0  0  0  0  0  0  0  0  0
   18.7241   18.9401   24.2690 C   0  0  0  0  0  0  0  0  0  0  0  0
   18.1863   18.1022   24.7316 H   0  0  0  0  0  0  0  0  0  0  0  0
   18.5167   18.8674   23.1956 H   0  0  0  0  0  0  0  0  0  0  0  0
   18.1137   20.2596   24.7972 C   0  0  2  0  0  0  0  0  0  0  0  0
   17.0378   20.2212   24.6004 H   0  0  0  0  0  0  0  0  0  0  0  0
   18.6757   21.4896   24.0631 C   0  0  0  0  0  0  0  0  0  0  0  0
   18.5716   21.3768   22.9768 H   0  0  0  0  0  0  0  0  0  0  0  0
   18.1289   22.3939   24.3571 H   0  0  0  0  0  0  0  0  0  0  0  0
   19.7357   21.6509   24.2920 H   0  0  0  0  0  0  0  0  0  0  0  0
   18.2599   20.4066   26.2867 N   0  3  0  0  0  0  0  0  0  0  0  0
   17.8477   19.6123   26.7845 H   0  0  0  0  0  0  0  0  0  0  0  0
   17.7970   21.2546   26.6261 H   0  0  0  0  0  0  0  0  0  0  0  0
   19.2444   20.4641   26.5586 H   0  0  0  0  0  0  0  0  0  0  0  0
  1  2  1  0  0  0  0
  1  3  1  0  0  0  0
  1  4  1  0  0  0  0
  1  5  1  0  0  0  0
  5  6  1  0  0  0  0
  5  7  1  0  0  0  0
  5  8  1  0  0  0  0
  8  9  1  0  0  0  0
  8 10  1  0  0  0  0
  8 11  1  0  0  0  0
 11 12  1  0  0  0  0
 11 13  1  0  0  0  0
 11 14  1  0  0  0  0
 14 15  1  0  0  0  0
 14 16  1  0  0  0  0
 14 17  1  0  0  0  0
 17 18  1  0  0  0  0
 17 19  1  0  0  0  0
 17 20  1  0  0  0  0
 20 21  1  0  0  0  0
 20 22  1  0  0  0  0
 22 23  1  0  0  0  0
 22 24  1  0  0  0  0
 22 25  1  0  0  0  0
 20 26  1  0  0  0  0
 26 27  1  0  0  0  0
 26 28  1  0  0  0  0
 26 29  1  0  0  0  0
M  END
> <VConfSearch Rank>
500

> <Conf_Id>
117

> <Delta U+W>
3.377

> <U+W>
-24.449

> <U>
27.947

> <W>
-52.396

> <W(PB)>
-54.842

> <W(SA)>
2.447

> <Valence>
6.731

> <Coulomb>
20.067

> <VdW>
1.149

> <VdW6>
-10.427

> <VdW12>
11.575

> <Bond>
0.324

> <Angle>
1.943

> <Pdih>
4.465

> <Idih>
0.000

> <Tether>
0.000

$$$$
VeraChem MOL file


 29 28  0  0  0  0  0  0  0  0999 V2000     
   21.9601   21.6034   27.0465 C   0  0  0  0  0  0  0  0  0  0  0  0
   21.5145   20.9825   27.8347 H   0  0  0  0  0  0  0  0  0  0  0  0
   22.9633   21.2135   26.8301 H   0  0  0  0  0  0  0  0  0  0  0  0
   22.0721   22.6212   27.4422 H   0  0  0  0  0  0  0  0  0  0  0  0
   21.0804   21.6055   25.7784 C   0  0  0  0  0  0  0  0  0  0  0  0
   21.5337   22.2607   25.0214 H   0  0  0  0  0  0  0  0  0  0  0  0
   20.0961   22.0315   26.0182 H   0  0  0  0  0  0  0  0  0  0  0  0
   20.9066   20.1835   25.2007 C   0  0  0  0  0  0  0  0  0  0  0  0
   21.8931   19.7610   24.9647 H   0  0  0  0  0  0  0  0  0  0  0  0
   20.4554   19.5319   25.9618 H   0  0  0  0  0  0  0  0  0  0  0  0
   20.0263   20.1816   23.9306 C   0  0  0  0  0  0  0  0  0  0  0  0
   20.4779   20.8348   23.1711 H   0  0  0  0  0  0  0  0  0  0  0  0
   19.0399   20.6040   24.1675 H   0  0  0  0  0  0  0  0  0  0  0  0
   19.8532   18.7590   23.3526 C   0  0  0  0  0  0  0  0  0  0  0  0
   20.8398   18.3387   23.1126 H   0  0  0  0  0  0  0  0  0  0  0  0
   19.4075   18.1112   24.1192 H   0  0  0  0  0  0  0  0  0  0  0  0
   18.9700   18.7598   22.0812 C   0  0  0  0  0  0  0  0  0  0  0  0
   19.4029   19.4543   21.3489 H   0  0  0  0  0  0  0  0  0  0  0  0
   17.9699   19.1432   22.3238 H   0  0  0  0  0  0  0  0  0  0  0  0
   18.8478   17.3644   21.4316 C   0  0  2  0  0  0  0  0  0  0  0  0
   19.8560   16.9942   21.2217 H   0  0  0  0  0  0  0  0  0  0  0  0
   18.0819   17.4590   20.1023 C   0  0  0  0  0  0  0  0  0  0  0  0
   18.0231   16.4768   19.6174 H   0  0  0  0  0  0  0  0  0  0  0  0
   17.0594   17.8252   20.2584 H   0  0  0  0  0  0  0  0  0  0  0  0
   18.5875   18.1426   19.4089 H   0  0  0  0  0  0  0  0  0  0  0  0
   18.1984   16.3597   22.3435 N   0  3  0  0  0  0  0  0  0  0  0  0
   18.7229   16.2531   23.2160 H   0  0  0  0  0  0  0  0  0  0  0  0
   18.1436   15.4363   21.9041 H   0  0  0  0  0  0  0  0  0  0  0  0
   17.2450   16.6399   22.5885 H   0  0  0  0  0  0  0  0  0  0  0  0
  1  2  1  0  0  0  0
  1  3  1  0  0  0  0
  1  4  1  0  0  0  0
  1  5  1  0  0  0  0
  5  6  1  0  0  0  0
  5  7  1  0  0  0  0
  5  8  1  0  0  0  0
  8  9  1  0  0  0  0
  8 10  1  0  0  0  0
  8 11  1  0  0  0  0
 11 12  1  0  0  0  0
 11 13  1  0  0  0  0
 11 14  1  0  0  0  0
 14 15  1  0  0  0  0
 14 16  1  0  0  0  0
 14 17  1  0  0  0  0
 17 18  1  0  0  0  0
 17 19  1  0  0  0  0
 17 20  1  0  0  0  0
 20 21  1  0  0  0  0
 20 22  1  0  0  0  0
 22 23  1  0  0  0  0
 22 24  1  0  0  0  0
 22 25  1  0  0  0  0
 20 26  1  0  0  0  0
 26 27  1  0  0  0  0
 26 28  1  0  0  0  0
 26 29  1  0  0  0  0
M  END
> <VConfSearch Rank>
501

> <Conf_Id>
164

> <Delta U+W>
0.000

> <U+W>
-27.826

> <U>
23.963

> <W>
-51.789

> <W(PB)>
-54.342

> <W(SA)>
2.554

> <Valence>
3.166

> <Coulomb>
19.734

> <VdW>
1.062

> <VdW6>
-7.938

> <VdW12>
9.001

> <Bond>
0.188

> <Angle>
0.880

> <Pdih>
2.098

> <Idih>
0.000

> <Tether>
0.000

$$$$
VeraChem MOL file


 29 28  0  0  0  0  0  0  0  0999 V2000     
   16.5675   22.6645   23.0425 C   0  0  0  0  0  0  0  0  0  0  0  0
   16.0204   22.4143   23.9608 H   0  0  0  0  0  0  0  0  0  0  0  0
   17.2994   23.4468   23.2828 H   0  0  0  0  0  0  0  0  0  0  0  0
   15.8493   23.0835   22.3258 H   0  0  0  0  0  0  0  0  0  0  0  0
   17.2613   21.4182   22.4532 C   0  0  0  0  0  0  0  0  0  0  0  0
   17.7712   21.6923   21.5190 H   0  0  0  0  0  0  0  0  0  0  0  0
   16.5020   20.6678   22.1918 H   0  0  0  0  0  0  0  0  0  0  0  0
   18.2783   20.8082   23.4430 C   0  0  0  0  0  0  0  0  0  0  0  0
   19.0335   21.5627   23.7032 H   0  0  0  0  0  0  0  0  0  0  0  0
   17.7644   20.5379   24.3759 H   0  0  0  0  0  0  0  0  0  0  0  0
   18.9751   19.5599   22.8563 C   0  0  0  0  0  0  0  0  0  0  0  0
   19.4890   19.8310   21.9237 H   0  0  0  0  0  0  0  0  0  0  0  0
   18.2184   18.8070   22.5954 H   0  0  0  0  0  0  0  0  0  0  0  0
   19.9922   18.9496   23.8472 C   0  0  0  0  0  0  0  0  0  0  0  0
   20.7380   19.7120   24.1077 H   0  0  0  0  0  0  0  0  0  0  0  0
   19.4771   18.6739   24.7778 H   0  0  0  0  0  0  0  0  0  0  0  0
   20.6924   17.7018   23.2551 C   0  0  0  0  0  0  0  0  0  0  0  0
   21.2623   17.9863   22.3606 H   0  0  0  0  0  0  0  0  0  0  0  0
   19.9218   16.9945   22.9211 H   0  0  0  0  0  0  0  0  0  0  0  0
   21.6215   16.9759   24.2546 C   0  0  2  0  0  0  0  0  0  0  0  0
   21.0424   16.7404   25.1528 H   0  0  0  0  0  0  0  0  0  0  0  0
   22.8251   17.8437   24.6642 C   0  0  0  0  0  0  0  0  0  0  0  0
   23.4034   18.1595   23.7869 H   0  0  0  0  0  0  0  0  0  0  0  0
   22.5042   18.7408   25.2060 H   0  0  0  0  0  0  0  0  0  0  0  0
   23.4948   17.2856   25.3300 H   0  0  0  0  0  0  0  0  0  0  0  0
   22.0942   15.6615   23.6983 N   0  3  0  0  0  0  0  0  0  0  0  0
   22.6782   15.1584   24.3725 H   0  0  0  0  0  0  0  0  0  0  0  0
   22.6514   15.7932   22.8498 H   0  0  0  0  0  0  0  0  0  0  0  0
   21.3090   15.0490   23.4590 H   0  0  0  0  0  0  0  0  0  0  0  0
  1  2  1  0  0  0  0
  1  3  1  0  0  0  0
  1  4  1  0  0  0  0
  1  5  1  0  0  0  0
  5  6  1  0  0  0  0
  5  7  1  0  0  0  0
  5  8  1  0  0  0  0
  8  9  1  0  0  0  0
  8 10  1  0  0  0  0
  8 11  1  0  0  0  0
 11 12  1  0  0  0  0
 11 13  1  0  0  0  0
 11 14  1  0  0  0  0
 14 15  1  0  0  0  0
 14 16  1  0  0  0  0
 14 17  1  0  0  0  0
 17 18  1  0  0  0  0
 17 19  1  0  0  0  0
 17 20  1  0  0  0  0
 20 21  1  0  0  0  0
 20 22  1  0  0  0  0
 22 23  1  0  0  0  0
 22 24  1  0  0  0  0
 22 25  1  0  0  0  0
 20 26  1  0  0  0  0
 26 27  1  0  0  0  0
 26 28  1  0  0  0  0
 26 29  1  0  0  0  0
M  END
> <VConfSearch Rank>
502

> <Conf_Id>
58

> <Delta U+W>
0.412

> <U+W>
-27.414

> <U>
24.279

> <W>
-51.694

> <W(PB)>
-54.271

> <W(SA)>
2.577

> <Valence>
3.709

> <Coulomb>
19.380

> <VdW>
1.191

> <VdW6>
-8.093

> <VdW12>
9.284

> <Bond>
0.200

> <Angle>
1.161

> <Pdih>
2.348

> <Idih>
0.000

> <Tether>
0.000

$$$$
VeraChem MOL file


 29 28  0  0  0  0  0  0  0  0999 V2000     
   21.0758   14.6331   23.9251 C   0  0  0  0  0  0  0  0  0  0  0  0
   21.4237   14.5818   22.8851 H   0  0  0  0  0  0  0  0  0  0  0  0
   21.9308   14.9027   24.5588 H   0  0  0  0  0  0  0  0  0  0  0  0
   20.7417   13.6295   24.2187 H   0  0  0  0  0  0  0  0  0  0  0  0
   19.9293   15.6551   24.0765 C   0  0  0  0  0  0  0  0  0  0  0  0
   19.5801   15.6596   25.1185 H   0  0  0  0  0  0  0  0  0  0  0  0
   19.0770   15.3412   23.4577 H   0  0  0  0  0  0  0  0  0  0  0  0
   20.3735   17.0774   23.6692 C   0  0  0  0  0  0  0  0  0  0  0  0
   21.2269   17.3859   24.2889 H   0  0  0  0  0  0  0  0  0  0  0  0
   20.7240   17.0673   22.6279 H   0  0  0  0  0  0  0  0  0  0  0  0
   19.2279   18.1036   23.8193 C   0  0  0  0  0  0  0  0  0  0  0  0
   18.8779   18.1121   24.8608 H   0  0  0  0  0  0  0  0  0  0  0  0
   18.3749   17.7938   23.1996 H   0  0  0  0  0  0  0  0  0  0  0  0
   19.6725   19.5264   23.4116 C   0  0  0  0  0  0  0  0  0  0  0  0
   20.5255   19.8290   24.0333 H   0  0  0  0  0  0  0  0  0  0  0  0
   20.0247   19.5064   22.3719 H   0  0  0  0  0  0  0  0  0  0  0  0
   18.5176   20.5507   23.5611 C   0  0  0  0  0  0  0  0  0  0  0  0
   18.1431   20.5236   24.5928 H   0  0  0  0  0  0  0  0  0  0  0  0
   17.6759   20.2437   22.9262 H   0  0  0  0  0  0  0  0  0  0  0  0
   18.8932   22.0112   23.2162 C   0  0  2  0  0  0  0  0  0  0  0  0
   18.0048   22.6256   23.3927 H   0  0  0  0  0  0  0  0  0  0  0  0
   19.2851   22.1744   21.7373 C   0  0  0  0  0  0  0  0  0  0  0  0
   19.4127   23.2353   21.4894 H   0  0  0  0  0  0  0  0  0  0  0  0
   20.2267   21.6617   21.5080 H   0  0  0  0  0  0  0  0  0  0  0  0
   18.5045   21.7710   21.0803 H   0  0  0  0  0  0  0  0  0  0  0  0
   19.9637   22.5573   24.1203 N   0  3  0  0  0  0  0  0  0  0  0  0
   19.6916   22.4933   25.1055 H   0  0  0  0  0  0  0  0  0  0  0  0
   20.1563   23.5428   23.9193 H   0  0  0  0  0  0  0  0  0  0  0  0
   20.8414   22.0438   24.0085 H   0  0  0  0  0  0  0  0  0  0  0  0
  1  2  1  0  0  0  0
  1  3  1  0  0  0  0
  1  4  1  0  0  0  0
  1  5  1  0  0  0  0
  5  6  1  0  0  0  0
  5  7  1  0  0  0  0
  5  8  1  0  0  0  0
  8  9  1  0  0  0  0
  8 10  1  0  0  0  0
  8 11  1  0  0  0  0
 11 12  1  0  0  0  0
 11 13  1  0  0  0  0
 11 14  1  0  0  0  0
 14 15  1  0  0  0  0
 14 16  1  0  0  0  0
 14 17  1  0  0  0  0
 17 18  1  0  0  0  0
 17 19  1  0  0  0  0
 17 20  1  0  0  0  0
 20 21  1  0  0  0  0
 20 22  1  0  0  0  0
 22 23  1  0  0  0  0
 22 24  1  0  0  0  0
 22 25  1  0  0  0  0
 20 26  1  0  0  0  0
 26 27  1  0  0  0  0
 26 28  1  0  0  0  0
 26 29  1  0  0  0  0
M  END
> <VConfSearch Rank>
503

> <Conf_Id>
137

> <Delta U+W>
0.280

> <U+W>
-27.546

> <U>
24.513

> <W>
-52.059

> <W(PB)>
-54.556

> <W(SA)>
2.497

> <Valence>
3.677

> <Coulomb>
19.662

> <VdW>
1.174

> <VdW6>
-8.569

> <VdW12>
9.743

> <Bond>
0.224

> <Angle>
1.211

> <Pdih>
2.243

> <Idih>
0.000

> <Tether>
0.000

$$$$
VeraChem MOL file


 29 28  0  0  0  0  0  0  0  0999 V2000     
   19.4145   22.4436   26.5106 C   0  0  0  0  0  0  0  0  0  0  0  0
   18.5550   21.8493   26.8474 H   0  0  0  0  0  0  0  0  0  0  0  0
   20.2952   22.1271   27.0845 H   0  0  0  0  0  0  0  0  0  0  0  0
   19.2134   23.4949   26.7543 H   0  0  0  0  0  0  0  0  0  0  0  0
   19.6488   22.2708   24.9950 C   0  0  0  0  0  0  0  0  0  0  0  0
   20.4914   22.9034   24.6824 H   0  0  0  0  0  0  0  0  0  0  0  0
   18.7650   22.6258   24.4465 H   0  0  0  0  0  0  0  0  0  0  0  0
   19.9352   20.7987   24.6247 C   0  0  0  0  0  0  0  0  0  0  0  0
   20.8207   20.4495   25.1735 H   0  0  0  0  0  0  0  0  0  0  0  0
   19.0909   20.1784   24.9517 H   0  0  0  0  0  0  0  0  0  0  0  0
   20.1660   20.6243   23.1041 C   0  0  0  0  0  0  0  0  0  0  0  0
   20.9565   21.3168   22.7833 H   0  0  0  0  0  0  0  0  0  0  0  0
   19.2601   20.9159   22.5550 H   0  0  0  0  0  0  0  0  0  0  0  0
   20.5809   19.1888   22.6966 C   0  0  0  0  0  0  0  0  0  0  0  0
   20.8637   19.2101   21.6365 H   0  0  0  0  0  0  0  0  0  0  0  0
   21.4824   18.8951   23.2519 H   0  0  0  0  0  0  0  0  0  0  0  0
   19.4642   18.1349   22.9157 C   0  0  0  0  0  0  0  0  0  0  0  0
   18.5668   18.4229   22.3522 H   0  0  0  0  0  0  0  0  0  0  0  0
   19.1795   18.1304   23.9746 H   0  0  0  0  0  0  0  0  0  0  0  0
   19.8810   16.6970   22.5295 C   0  0  2  0  0  0  0  0  0  0  0  0
   20.8095   16.4555   23.0558 H   0  0  0  0  0  0  0  0  0  0  0  0
   20.1237   16.5461   21.0168 C   0  0  0  0  0  0  0  0  0  0  0  0
   19.2385   16.8441   20.4412 H   0  0  0  0  0  0  0  0  0  0  0  0
   20.9716   17.1559   20.6847 H   0  0  0  0  0  0  0  0  0  0  0  0
   20.3573   15.5042   20.7654 H   0  0  0  0  0  0  0  0  0  0  0  0
   18.8595   15.6950   22.9916 N   0  3  0  0  0  0  0  0  0  0  0  0
   18.7132   15.7448   24.0040 H   0  0  0  0  0  0  0  0  0  0  0  0
   19.1494   14.7376   22.7726 H   0  0  0  0  0  0  0  0  0  0  0  0
   17.9533   15.8502   22.5415 H   0  0  0  0  0  0  0  0  0  0  0  0
  1  2  1  0  0  0  0
  1  3  1  0  0  0  0
  1  4  1  0  0  0  0
  1  5  1  0  0  0  0
  5  6  1  0  0  0  0
  5  7  1  0  0  0  0
  5  8  1  0  0  0  0
  8  9  1  0  0  0  0
  8 10  1  0  0  0  0
  8 11  1  0  0  0  0
 11 12  1  0  0  0  0
 11 13  1  0  0  0  0
 11 14  1  0  0  0  0
 14 15  1  0  0  0  0
 14 16  1  0  0  0  0
 14 17  1  0  0  0  0
 17 18  1  0  0  0  0
 17 19  1  0  0  0  0
 17 20  1  0  0  0  0
 20 21  1  0  0  0  0
 20 22  1  0  0  0  0
 22 23  1  0  0  0  0
 22 24  1  0  0  0  0
 22 25  1  0  0  0  0
 20 26  1  0  0  0  0
 26 27  1  0  0  0  0
 26 28  1  0  0  0  0
 26 29  1  0  0  0  0
M  END
> <VConfSearch Rank>
504

> <Conf_Id>
40

> <Delta U+W>
1.128

> <U+W>
-26.698

> <U>
25.442

> <W>
-52.140

> <W(PB)>
-54.658

> <W(SA)>
2.519

> <Valence>
4.343

> <Coulomb>
19.740

> <VdW>
1.360

> <VdW6>
-8.739

> <VdW12>
10.099

> <Bond>
0.251

> <Angle>
1.483

> <Pdih>
2.608

> <Idih>
0.000

> <Tether>
0.000

$$$$
VeraChem MOL file


 29 28  0  0  0  0  0  0  0  0999 V2000     
   18.6053   23.3073   23.7260 C   0  0  0  0  0  0  0  0  0  0  0  0
   19.1717   23.1887   24.6578 H   0  0  0  0  0  0  0  0  0  0  0  0
   19.3034   23.6084   22.9342 H   0  0  0  0  0  0  0  0  0  0  0  0
   17.8934   24.1293   23.8761 H   0  0  0  0  0  0  0  0  0  0  0  0
   17.8583   22.0091   23.3444 C   0  0  0  0  0  0  0  0  0  0  0  0
   17.2080   22.2174   22.4832 H   0  0  0  0  0  0  0  0  0  0  0  0
   17.1931   21.7093   24.1662 H   0  0  0  0  0  0  0  0  0  0  0  0
   18.8017   20.8371   22.9799 C   0  0  0  0  0  0  0  0  0  0  0  0
   18.1853   20.0160   22.5930 H   0  0  0  0  0  0  0  0  0  0  0  0
   19.4641   21.1421   22.1582 H   0  0  0  0  0  0  0  0  0  0  0  0
   19.6490   20.3329   24.1760 C   0  0  0  0  0  0  0  0  0  0  0  0
   18.9868   20.0223   24.9958 H   0  0  0  0  0  0  0  0  0  0  0  0
   20.2554   21.1604   24.5658 H   0  0  0  0  0  0  0  0  0  0  0  0
   20.6069   19.1709   23.8136 C   0  0  0  0  0  0  0  0  0  0  0  0
   21.2554   19.4758   22.9805 H   0  0  0  0  0  0  0  0  0  0  0  0
   21.2683   18.9985   24.6727 H   0  0  0  0  0  0  0  0  0  0  0  0
   19.8759   17.8519   23.4526 C   0  0  0  0  0  0  0  0  0  0  0  0
   19.2367   18.0178   22.5770 H   0  0  0  0  0  0  0  0  0  0  0  0
   19.2118   17.5575   24.2761 H   0  0  0  0  0  0  0  0  0  0  0  0
   20.8467   16.6948   23.1308 C   0  0  2  0  0  0  0  0  0  0  0  0
   21.5211   17.0243   22.3344 H   0  0  0  0  0  0  0  0  0  0  0  0
   20.0683   15.4687   22.6273 C   0  0  0  0  0  0  0  0  0  0  0  0
   20.7545   14.6544   22.3636 H   0  0  0  0  0  0  0  0  0  0  0  0
   19.3748   15.0973   23.3921 H   0  0  0  0  0  0  0  0  0  0  0  0
   19.4870   15.7169   21.7305 H   0  0  0  0  0  0  0  0  0  0  0  0
   21.7109   16.3221   24.3045 N   0  3  0  0  0  0  0  0  0  0  0  0
   21.1466   16.0046   25.0971 H   0  0  0  0  0  0  0  0  0  0  0  0
   22.2718   17.1167   24.6233 H   0  0  0  0  0  0  0  0  0  0  0  0
   22.3590   15.5658   24.0665 H   0  0  0  0  0  0  0  0  0  0  0  0
  1  2  1  0  0  0  0
  1  3  1  0  0  0  0
  1  4  1  0  0  0  0
  1  5  1  0  0  0  0
  5  6  1  0  0  0  0
  5  7  1  0  0  0  0
  5  8  1  0  0  0  0
  8  9  1  0  0  0  0
  8 10  1  0  0  0  0
  8 11  1  0  0  0  0
 11 12  1  0  0  0  0
 11 13  1  0  0  0  0
 11 14  1  0  0  0  0
 14 15  1  0  0  0  0
 14 16  1  0  0  0  0
 14 17  1  0  0  0  0
 17 18  1  0  0  0  0
 17 19  1  0  0  0  0
 17 20  1  0  0  0  0
 20 21  1  0  0  0  0
 20 22  1  0  0  0  0
 22 23  1  0  0  0  0
 22 24  1  0  0  0  0
 22 25  1  0  0  0  0
 20 26  1  0  0  0  0
 26 27  1  0  0  0  0
 26 28  1  0  0  0  0
 26 29  1  0  0  0  0
M  END
> <VConfSearch Rank>
505

> <Conf_Id>
134

> <Delta U+W>
1.228

> <U+W>
-26.598

> <U>
25.451

> <W>
-52.048

> <W(PB)>
-54.539

> <W(SA)>
2.490

> <Valence>
4.319

> <Coulomb>
19.732

> <VdW>
1.400

> <VdW6>
-9.173

> <VdW12>
10.573

> <Bond>
0.281

> <Angle>
1.459

> <Pdih>
2.580

> <Idih>
0.000

> <Tether>
0.000

$$$$
VeraChem MOL file


 29 28  0  0  0  0  0  0  0  0999 V2000     
   18.2612   22.7072   21.7140 C   0  0  0  0  0  0  0  0  0  0  0  0
   17.3224   22.1472   21.8048 H   0  0  0  0  0  0  0  0  0  0  0  0
   18.4220   23.2641   22.6462 H   0  0  0  0  0  0  0  0  0  0  0  0
   18.1317   23.4376   20.9049 H   0  0  0  0  0  0  0  0  0  0  0  0
   19.4547   21.7727   21.4120 C   0  0  0  0  0  0  0  0  0  0  0  0
   20.3405   22.3888   21.2034 H   0  0  0  0  0  0  0  0  0  0  0  0
   19.2549   21.2015   20.4946 H   0  0  0  0  0  0  0  0  0  0  0  0
   19.7885   20.8023   22.5708 C   0  0  0  0  0  0  0  0  0  0  0  0
   20.7223   20.2833   22.3195 H   0  0  0  0  0  0  0  0  0  0  0  0
   19.9894   21.3781   23.4847 H   0  0  0  0  0  0  0  0  0  0  0  0
   18.6739   19.7603   22.8430 C   0  0  0  0  0  0  0  0  0  0  0  0
   18.4742   19.1836   21.9295 H   0  0  0  0  0  0  0  0  0  0  0  0
   17.7396   20.2806   23.0902 H   0  0  0  0  0  0  0  0  0  0  0  0
   19.0044   18.7930   24.0064 C   0  0  0  0  0  0  0  0  0  0  0  0
   19.1868   19.3779   24.9176 H   0  0  0  0  0  0  0  0  0  0  0  0
   18.1186   18.1742   24.2060 H   0  0  0  0  0  0  0  0  0  0  0  0
   20.2113   17.8641   23.7150 C   0  0  0  0  0  0  0  0  0  0  0  0
   21.1356   18.4525   23.6564 H   0  0  0  0  0  0  0  0  0  0  0  0
   20.0690   17.4037   22.7285 H   0  0  0  0  0  0  0  0  0  0  0  0
   20.3906   16.7389   24.7593 C   0  0  2  0  0  0  0  0  0  0  0  0
   19.4503   16.1837   24.8306 H   0  0  0  0  0  0  0  0  0  0  0  0
   20.7363   17.2929   26.1531 C   0  0  0  0  0  0  0  0  0  0  0  0
   21.6440   17.9084   26.1216 H   0  0  0  0  0  0  0  0  0  0  0  0
   19.9194   17.9052   26.5523 H   0  0  0  0  0  0  0  0  0  0  0  0
   20.9050   16.4741   26.8634 H   0  0  0  0  0  0  0  0  0  0  0  0
   21.4342   15.7505   24.3184 N   0  3  0  0  0  0  0  0  0  0  0  0
   21.2019   15.3364   23.4110 H   0  0  0  0  0  0  0  0  0  0  0  0
   21.5280   14.9819   24.9886 H   0  0  0  0  0  0  0  0  0  0  0  0
   22.3534   16.1918   24.2291 H   0  0  0  0  0  0  0  0  0  0  0  0
  1  2  1  0  0  0  0
  1  3  1  0  0  0  0
  1  4  1  0  0  0  0
  1  5  1  0  0  0  0
  5  6  1  0  0  0  0
  5  7  1  0  0  0  0
  5  8  1  0  0  0  0
  8  9  1  0  0  0  0
  8 10  1  0  0  0  0
  8 11  1  0  0  0  0
 11 12  1  0  0  0  0
 11 13  1  0  0  0  0
 11 14  1  0  0  0  0
 14 15  1  0  0  0  0
 14 16  1  0  0  0  0
 14 17  1  0  0  0  0
 17 18  1  0  0  0  0
 17 19  1  0  0  0  0
 17 20  1  0  0  0  0
 20 21  1  0  0  0  0
 20 22  1  0  0  0  0
 22 23  1  0  0  0  0
 22 24  1  0  0  0  0
 22 25  1  0  0  0  0
 20 26  1  0  0  0  0
 26 27  1  0  0  0  0
 26 28  1  0  0  0  0
 26 29  1  0  0  0  0
M  END
> <VConfSearch Rank>
506

> <Conf_Id>
73

> <Delta U+W>
1.580

> <U+W>
-26.246

> <U>
25.821

> <W>
-52.067

> <W(PB)>
-54.581

> <W(SA)>
2.514

> <Valence>
4.779

> <Coulomb>
19.614

> <VdW>
1.428

> <VdW6>
-9.390

> <VdW12>
10.818

> <Bond>
0.283

> <Angle>
1.640

> <Pdih>
2.856

> <Idih>
0.000

> <Tether>
0.000

$$$$
VeraChem MOL file


 29 28  0  0  0  0  0  0  0  0999 V2000     
   18.1227   23.2057   23.5668 C   0  0  0  0  0  0  0  0  0  0  0  0
   18.7216   23.2823   24.4837 H   0  0  0  0  0  0  0  0  0  0  0  0
   18.0437   24.2101   23.1309 H   0  0  0  0  0  0  0  0  0  0  0  0
   17.1123   22.8784   23.8446 H   0  0  0  0  0  0  0  0  0  0  0  0
   18.7669   22.2256   22.5636 C   0  0  0  0  0  0  0  0  0  0  0  0
   19.7619   22.5960   22.2795 H   0  0  0  0  0  0  0  0  0  0  0  0
   18.1647   22.1971   21.6447 H   0  0  0  0  0  0  0  0  0  0  0  0
   18.8891   20.8027   23.1524 C   0  0  0  0  0  0  0  0  0  0  0  0
   19.4836   20.8480   24.0740 H   0  0  0  0  0  0  0  0  0  0  0  0
   17.8919   20.4360   23.4322 H   0  0  0  0  0  0  0  0  0  0  0  0
   19.5394   19.8204   22.1485 C   0  0  0  0  0  0  0  0  0  0  0  0
   20.5597   20.1527   21.9122 H   0  0  0  0  0  0  0  0  0  0  0  0
   18.9785   19.8533   21.2043 H   0  0  0  0  0  0  0  0  0  0  0  0
   19.5732   18.3540   22.6454 C   0  0  0  0  0  0  0  0  0  0  0  0
   18.5520   18.0218   22.8786 H   0  0  0  0  0  0  0  0  0  0  0  0
   19.9216   17.7237   21.8169 H   0  0  0  0  0  0  0  0  0  0  0  0
   20.4871   18.1393   23.8794 C   0  0  0  0  0  0  0  0  0  0  0  0
   20.1207   18.7508   24.7131 H   0  0  0  0  0  0  0  0  0  0  0  0
   21.5034   18.4892   23.6548 H   0  0  0  0  0  0  0  0  0  0  0  0
   20.5361   16.6670   24.3430 C   0  0  2  0  0  0  0  0  0  0  0  0
   19.5108   16.3304   24.5253 H   0  0  0  0  0  0  0  0  0  0  0  0
   21.3242   16.5467   25.6572 C   0  0  0  0  0  0  0  0  0  0  0  0
   20.8682   17.1614   26.4433 H   0  0  0  0  0  0  0  0  0  0  0  0
   21.3334   15.5083   26.0108 H   0  0  0  0  0  0  0  0  0  0  0  0
   22.3638   16.8732   25.5279 H   0  0  0  0  0  0  0  0  0  0  0  0
   21.1140   15.7514   23.2986 N   0  3  0  0  0  0  0  0  0  0  0  0
   21.1220   14.7783   23.6174 H   0  0  0  0  0  0  0  0  0  0  0  0
   22.0784   16.0075   23.0706 H   0  0  0  0  0  0  0  0  0  0  0  0
   20.5723   15.7847   22.4308 H   0  0  0  0  0  0  0  0  0  0  0  0
  1  2  1  0  0  0  0
  1  3  1  0  0  0  0
  1  4  1  0  0  0  0
  1  5  1  0  0  0  0
  5  6  1  0  0  0  0
  5  7  1  0  0  0  0
  5  8  1  0  0  0  0
  8  9  1  0  0  0  0
  8 10  1  0  0  0  0
  8 11  1  0  0  0  0
 11 12  1  0  0  0  0
 11 13  1  0  0  0  0
 11 14  1  0  0  0  0
 14 15  1  0  0  0  0
 14 16  1  0  0  0  0
 14 17  1  0  0  0  0
 17 18  1  0  0  0  0
 17 19  1  0  0  0  0
 17 20  1  0  0  0  0
 20 21  1  0  0  0  0
 20 22  1  0  0  0  0
 22 23  1  0  0  0  0
 22 24  1  0  0  0  0
 22 25  1  0  0  0  0
 20 26  1  0  0  0  0
 26 27  1  0  0  0  0
 26 28  1  0  0  0  0
 26 29  1  0  0  0  0
M  END
> <VConfSearch Rank>
507

> <Conf_Id>
111

> <Delta U+W>
0.580

> <U+W>
-27.246

> <U>
24.710

> <W>
-51.957

> <W(PB)>
-54.511

> <W(SA)>
2.555

> <Valence>
3.735

> <Coulomb>
19.760

> <VdW>
1.216

> <VdW6>
-8.624

> <VdW12>
9.840

> <Bond>
0.236

> <Angle>
1.168

> <Pdih>
2.330

> <Idih>
0.000

> <Tether>
0.000

$$$$
VeraChem MOL file


 29 28  0  0  0  0  0  0  0  0999 V2000     
   17.1712   16.6322   20.9557 C   0  0  0  0  0  0  0  0  0  0  0  0
   17.6925   16.9576   20.0460 H   0  0  0  0  0  0  0  0  0  0  0  0
   17.7601   15.8300   21.4190 H   0  0  0  0  0  0  0  0  0  0  0  0
   16.2030   16.2100   20.6566 H   0  0  0  0  0  0  0  0  0  0  0  0
   16.9732   17.8103   21.9328 C   0  0  0  0  0  0  0  0  0  0  0  0
   16.4209   17.4621   22.8169 H   0  0  0  0  0  0  0  0  0  0  0  0
   16.3523   18.5804   21.4538 H   0  0  0  0  0  0  0  0  0  0  0  0
   18.3218   18.4241   22.3693 C   0  0  0  0  0  0  0  0  0  0  0  0
   18.9354   17.6434   22.8377 H   0  0  0  0  0  0  0  0  0  0  0  0
   18.8693   18.7723   21.4827 H   0  0  0  0  0  0  0  0  0  0  0  0
   18.1247   19.6029   23.3523 C   0  0  0  0  0  0  0  0  0  0  0  0
   17.6234   19.2465   24.2628 H   0  0  0  0  0  0  0  0  0  0  0  0
   17.4489   20.3398   22.8968 H   0  0  0  0  0  0  0  0  0  0  0  0
   19.4450   20.3172   23.7321 C   0  0  0  0  0  0  0  0  0  0  0  0
   19.9219   20.6971   22.8190 H   0  0  0  0  0  0  0  0  0  0  0  0
   19.2021   21.1960   24.3453 H   0  0  0  0  0  0  0  0  0  0  0  0
   20.4315   19.4125   24.5148 C   0  0  0  0  0  0  0  0  0  0  0  0
   20.7943   18.6030   23.8689 H   0  0  0  0  0  0  0  0  0  0  0  0
   19.8885   18.9352   25.3411 H   0  0  0  0  0  0  0  0  0  0  0  0
   21.6402   20.1776   25.1000 C   0  0  2  0  0  0  0  0  0  0  0  0
   21.2611   21.0017   25.7122 H   0  0  0  0  0  0  0  0  0  0  0  0
   22.5423   20.7634   23.9990 C   0  0  0  0  0  0  0  0  0  0  0  0
   22.9010   19.9791   23.3209 H   0  0  0  0  0  0  0  0  0  0  0  0
   22.0093   21.5145   23.4047 H   0  0  0  0  0  0  0  0  0  0  0  0
   23.4167   21.2587   24.4390 H   0  0  0  0  0  0  0  0  0  0  0  0
   22.4437   19.3009   26.0198 N   0  3  0  0  0  0  0  0  0  0  0  0
   21.8719   18.9342   26.7862 H   0  0  0  0  0  0  0  0  0  0  0  0
   23.2228   19.8154   26.4406 H   0  0  0  0  0  0  0  0  0  0  0  0
   22.8406   18.4999   25.5212 H   0  0  0  0  0  0  0  0  0  0  0  0
  1  2  1  0  0  0  0
  1  3  1  0  0  0  0
  1  4  1  0  0  0  0
  1  5  1  0  0  0  0
  5  6  1  0  0  0  0
  5  7  1  0  0  0  0
  5  8  1  0  0  0  0
  8  9  1  0  0  0  0
  8 10  1  0  0  0  0
  8 11  1  0  0  0  0
 11 12  1  0  0  0  0
 11 13  1  0  0  0  0
 11 14  1  0  0  0  0
 14 15  1  0  0  0  0
 14 16  1  0  0  0  0
 14 17  1  0  0  0  0
 17 18  1  0  0  0  0
 17 19  1  0  0  0  0
 17 20  1  0  0  0  0
 20 21  1  0  0  0  0
 20 22  1  0  0  0  0
 22 23  1  0  0  0  0
 22 24  1  0  0  0  0
 22 25  1  0  0  0  0
 20 26  1  0  0  0  0
 26 27  1  0  0  0  0
 26 28  1  0  0  0  0
 26 29  1  0  0  0  0
M  END
> <VConfSearch Rank>
508

> <Conf_Id>
39

> <Delta U+W>
0.965

> <U+W>
-26.861

> <U>
25.129

> <W>
-51.990

> <W(PB)>
-54.526

> <W(SA)>
2.536

> <Valence>
4.206

> <Coulomb>
19.678

> <VdW>
1.245

> <VdW6>
-8.834

> <VdW12>
10.079

> <Bond>
0.240

> <Angle>
1.353

> <Pdih>
2.613

> <Idih>
0.000

> <Tether>
0.000

$$$$
VeraChem MOL file


 29 28  0  0  0  0  0  0  0  0999 V2000     
   23.6703   19.6581   25.0538 C   0  0  0  0  0  0  0  0  0  0  0  0
   23.9680   18.6630   24.6988 H   0  0  0  0  0  0  0  0  0  0  0  0
   23.6517   20.3392   24.1942 H   0  0  0  0  0  0  0  0  0  0  0  0
   24.4483   20.0161   25.7404 H   0  0  0  0  0  0  0  0  0  0  0  0
   22.3010   19.6064   25.7689 C   0  0  0  0  0  0  0  0  0  0  0  0
   22.0089   20.6181   26.0833 H   0  0  0  0  0  0  0  0  0  0  0  0
   22.4072   19.0170   26.6905 H   0  0  0  0  0  0  0  0  0  0  0  0
   21.1772   18.9804   24.9080 C   0  0  0  0  0  0  0  0  0  0  0  0
   21.4737   17.9692   24.5973 H   0  0  0  0  0  0  0  0  0  0  0  0
   20.2906   18.8621   25.5438 H   0  0  0  0  0  0  0  0  0  0  0  0
   20.8124   19.8256   23.6610 C   0  0  0  0  0  0  0  0  0  0  0  0
   21.7028   19.9490   23.0313 H   0  0  0  0  0  0  0  0  0  0  0  0
   20.5115   20.8353   23.9721 H   0  0  0  0  0  0  0  0  0  0  0  0
   19.6967   19.1959   22.7909 C   0  0  0  0  0  0  0  0  0  0  0  0
   19.6085   19.7878   21.8706 H   0  0  0  0  0  0  0  0  0  0  0  0
   20.0075   18.1887   22.4833 H   0  0  0  0  0  0  0  0  0  0  0  0
   18.3170   19.1367   23.5021 C   0  0  0  0  0  0  0  0  0  0  0  0
   18.0740   20.1293   23.9033 H   0  0  0  0  0  0  0  0  0  0  0  0
   18.3747   18.4648   24.3673 H   0  0  0  0  0  0  0  0  0  0  0  0
   17.1452   18.6701   22.6065 C   0  0  2  0  0  0  0  0  0  0  0  0
   16.2406   18.6816   23.2225 H   0  0  0  0  0  0  0  0  0  0  0  0
   17.3443   17.2317   22.0981 C   0  0  0  0  0  0  0  0  0  0  0  0
   18.1842   17.1626   21.3965 H   0  0  0  0  0  0  0  0  0  0  0  0
   17.5361   16.5462   22.9329 H   0  0  0  0  0  0  0  0  0  0  0  0
   16.4442   16.8801   21.5791 H   0  0  0  0  0  0  0  0  0  0  0  0
   16.8824   19.6134   21.4650 N   0  3  0  0  0  0  0  0  0  0  0  0
   16.7063   20.5657   21.7980 H   0  0  0  0  0  0  0  0  0  0  0  0
   16.0651   19.3233   20.9205 H   0  0  0  0  0  0  0  0  0  0  0  0
   17.6794   19.6530   20.8248 H   0  0  0  0  0  0  0  0  0  0  0  0
  1  2  1  0  0  0  0
  1  3  1  0  0  0  0
  1  4  1  0  0  0  0
  1  5  1  0  0  0  0
  5  6  1  0  0  0  0
  5  7  1  0  0  0  0
  5  8  1  0  0  0  0
  8  9  1  0  0  0  0
  8 10  1  0  0  0  0
  8 11  1  0  0  0  0
 11 12  1  0  0  0  0
 11 13  1  0  0  0  0
 11 14  1  0  0  0  0
 14 15  1  0  0  0  0
 14 16  1  0  0  0  0
 14 17  1  0  0  0  0
 17 18  1  0  0  0  0
 17 19  1  0  0  0  0
 17 20  1  0  0  0  0
 20 21  1  0  0  0  0
 20 22  1  0  0  0  0
 22 23  1  0  0  0  0
 22 24  1  0  0  0  0
 22 25  1  0  0  0  0
 20 26  1  0  0  0  0
 26 27  1  0  0  0  0
 26 28  1  0  0  0  0
 26 29  1  0  0  0  0
M  END
> <VConfSearch Rank>
509

> <Conf_Id>
155

> <Delta U+W>
1.624

> <U+W>
-26.202

> <U>
25.894

> <W>
-52.096

> <W(PB)>
-54.602

> <W(SA)>
2.506

> <Valence>
4.779

> <Coulomb>
19.659

> <VdW>
1.456

> <VdW6>
-9.843

> <VdW12>
11.299

> <Bond>
0.315

> <Angle>
1.725

> <Pdih>
2.740

> <Idih>
0.000

> <Tether>
0.000

$$$$
VeraChem MOL file


 29 28  0  0  0  0  0  0  0  0999 V2000     
   18.2903   22.8839   23.8829 C   0  0  0  0  0  0  0  0  0  0  0  0
   17.4118   22.2481   24.0488 H   0  0  0  0  0  0  0  0  0  0  0  0
   18.9305   22.8255   24.7727 H   0  0  0  0  0  0  0  0  0  0  0  0
   17.9363   23.9189   23.7911 H   0  0  0  0  0  0  0  0  0  0  0  0
   19.0638   22.4620   22.6133 C   0  0  0  0  0  0  0  0  0  0  0  0
   19.8617   23.1937   22.4244 H   0  0  0  0  0  0  0  0  0  0  0  0
   18.3953   22.5044   21.7421 H   0  0  0  0  0  0  0  0  0  0  0  0
   19.6959   21.0534   22.7205 C   0  0  0  0  0  0  0  0  0  0  0  0
   20.3055   20.8751   21.8240 H   0  0  0  0  0  0  0  0  0  0  0  0
   20.3849   21.0356   23.5748 H   0  0  0  0  0  0  0  0  0  0  0  0
   18.6473   19.9202   22.8550 C   0  0  0  0  0  0  0  0  0  0  0  0
   17.8907   20.0403   22.0674 H   0  0  0  0  0  0  0  0  0  0  0  0
   18.1155   20.0101   23.8114 H   0  0  0  0  0  0  0  0  0  0  0  0
   19.2515   18.4988   22.7399 C   0  0  0  0  0  0  0  0  0  0  0  0
   18.4207   17.7825   22.7091 H   0  0  0  0  0  0  0  0  0  0  0  0
   19.7811   18.4006   21.7822 H   0  0  0  0  0  0  0  0  0  0  0  0
   20.2076   18.1374   23.9064 C   0  0  0  0  0  0  0  0  0  0  0  0
   19.6750   18.2241   24.8627 H   0  0  0  0  0  0  0  0  0  0  0  0
   21.0250   18.8678   23.9374 H   0  0  0  0  0  0  0  0  0  0  0  0
   20.8327   16.7285   23.7854 C   0  0  2  0  0  0  0  0  0  0  0  0
   21.3047   16.6456   22.8015 H   0  0  0  0  0  0  0  0  0  0  0  0
   19.7825   15.6109   23.9189 C   0  0  0  0  0  0  0  0  0  0  0  0
   19.2328   15.6938   24.8648 H   0  0  0  0  0  0  0  0  0  0  0  0
   19.0588   15.6414   23.0965 H   0  0  0  0  0  0  0  0  0  0  0  0
   20.2624   14.6249   23.8903 H   0  0  0  0  0  0  0  0  0  0  0  0
   21.9271   16.5333   24.7978 N   0  3  0  0  0  0  0  0  0  0  0  0
   22.6623   17.2395   24.6996 H   0  0  0  0  0  0  0  0  0  0  0  0
   22.3708   15.6159   24.6965 H   0  0  0  0  0  0  0  0  0  0  0  0
   21.5671   16.5945   25.7540 H   0  0  0  0  0  0  0  0  0  0  0  0
  1  2  1  0  0  0  0
  1  3  1  0  0  0  0
  1  4  1  0  0  0  0
  1  5  1  0  0  0  0
  5  6  1  0  0  0  0
  5  7  1  0  0  0  0
  5  8  1  0  0  0  0
  8  9  1  0  0  0  0
  8 10  1  0  0  0  0
  8 11  1  0  0  0  0
 11 12  1  0  0  0  0
 11 13  1  0  0  0  0
 11 14  1  0  0  0  0
 14 15  1  0  0  0  0
 14 16  1  0  0  0  0
 14 17  1  0  0  0  0
 17 18  1  0  0  0  0
 17 19  1  0  0  0  0
 17 20  1  0  0  0  0
 20 21  1  0  0  0  0
 20 22  1  0  0  0  0
 22 23  1  0  0  0  0
 22 24  1  0  0  0  0
 22 25  1  0  0  0  0
 20 26  1  0  0  0  0
 26 27  1  0  0  0  0
 26 28  1  0  0  0  0
 26 29  1  0  0  0  0
M  END
> <VConfSearch Rank>
510

> <Conf_Id>
135

> <Delta U+W>
1.581

> <U+W>
-26.245

> <U>
25.974

> <W>
-52.219

> <W(PB)>
-54.709

> <W(SA)>
2.490

> <Valence>
4.811

> <Coulomb>
19.700

> <VdW>
1.463

> <VdW6>
-9.391

> <VdW12>
10.854

> <Bond>
0.285

> <Angle>
1.671

> <Pdih>
2.855

> <Idih>
0.000

> <Tether>
0.000

$$$$
VeraChem MOL file


 29 28  0  0  0  0  0  0  0  0999 V2000     
   19.2584   20.6487   19.7838 C   0  0  0  0  0  0  0  0  0  0  0  0
   18.8435   21.4608   20.3948 H   0  0  0  0  0  0  0  0  0  0  0  0
   20.3510   20.6685   19.8810 H   0  0  0  0  0  0  0  0  0  0  0  0
   19.0164   20.8605   18.7343 H   0  0  0  0  0  0  0  0  0  0  0  0
   18.6762   19.2813   20.2078 C   0  0  0  0  0  0  0  0  0  0  0  0
   19.1261   18.4837   19.6003 H   0  0  0  0  0  0  0  0  0  0  0  0
   17.6004   19.2690   19.9837 H   0  0  0  0  0  0  0  0  0  0  0  0
   18.8746   18.9700   21.7107 C   0  0  0  0  0  0  0  0  0  0  0  0
   18.3956   19.7581   22.3065 H   0  0  0  0  0  0  0  0  0  0  0  0
   18.3460   18.0362   21.9468 H   0  0  0  0  0  0  0  0  0  0  0  0
   20.3632   18.8262   22.1161 C   0  0  0  0  0  0  0  0  0  0  0  0
   20.8803   19.7876   21.9979 H   0  0  0  0  0  0  0  0  0  0  0  0
   20.8554   18.1230   21.4304 H   0  0  0  0  0  0  0  0  0  0  0  0
   20.5581   18.3181   23.5656 C   0  0  0  0  0  0  0  0  0  0  0  0
   20.0747   17.3377   23.6696 H   0  0  0  0  0  0  0  0  0  0  0  0
   21.6312   18.1559   23.7375 H   0  0  0  0  0  0  0  0  0  0  0  0
   20.0168   19.2987   24.6377 C   0  0  0  0  0  0  0  0  0  0  0  0
   18.9240   19.3689   24.5665 H   0  0  0  0  0  0  0  0  0  0  0  0
   20.4100   20.3015   24.4251 H   0  0  0  0  0  0  0  0  0  0  0  0
   20.4100   18.9142   26.0821 C   0  0  2  0  0  0  0  0  0  0  0  0
   21.4988   18.8134   26.1262 H   0  0  0  0  0  0  0  0  0  0  0  0
   19.7790   17.5796   26.5178 C   0  0  0  0  0  0  0  0  0  0  0  0
   18.6856   17.6115   26.4338 H   0  0  0  0  0  0  0  0  0  0  0  0
   20.1467   16.7468   25.9072 H   0  0  0  0  0  0  0  0  0  0  0  0
   20.0336   17.3542   27.5608 H   0  0  0  0  0  0  0  0  0  0  0  0
   20.0454   20.0035   27.0520 N   0  3  0  0  0  0  0  0  0  0  0  0
   20.3399   19.7699   28.0046 H   0  0  0  0  0  0  0  0  0  0  0  0
   19.0342   20.1610   27.0749 H   0  0  0  0  0  0  0  0  0  0  0  0
   20.4900   20.8925   26.8053 H   0  0  0  0  0  0  0  0  0  0  0  0
  1  2  1  0  0  0  0
  1  3  1  0  0  0  0
  1  4  1  0  0  0  0
  1  5  1  0  0  0  0
  5  6  1  0  0  0  0
  5  7  1  0  0  0  0
  5  8  1  0  0  0  0
  8  9  1  0  0  0  0
  8 10  1  0  0  0  0
  8 11  1  0  0  0  0
 11 12  1  0  0  0  0
 11 13  1  0  0  0  0
 11 14  1  0  0  0  0
 14 15  1  0  0  0  0
 14 16  1  0  0  0  0
 14 17  1  0  0  0  0
 17 18  1  0  0  0  0
 17 19  1  0  0  0  0
 17 20  1  0  0  0  0
 20 21  1  0  0  0  0
 20 22  1  0  0  0  0
 22 23  1  0  0  0  0
 22 24  1  0  0  0  0
 22 25  1  0  0  0  0
 20 26  1  0  0  0  0
 26 27  1  0  0  0  0
 26 28  1  0  0  0  0
 26 29  1  0  0  0  0
M  END
> <VConfSearch Rank>
511

> <Conf_Id>
130

> <Delta U+W>
1.359

> <U+W>
-26.467

> <U>
25.687

> <W>
-52.154

> <W(PB)>
-54.643

> <W(SA)>
2.489

> <Valence>
4.682

> <Coulomb>
19.653

> <VdW>
1.352

> <VdW6>
-9.477

> <VdW12>
10.829

> <Bond>
0.274

> <Angle>
1.550

> <Pdih>
2.858

> <Idih>
0.000

> <Tether>
0.000

$$$$
VeraChem MOL file


 29 28  0  0  0  0  0  0  0  0999 V2000     
   19.8439   16.5150   20.3047 C   0  0  0  0  0  0  0  0  0  0  0  0
   19.2960   15.7251   19.7749 H   0  0  0  0  0  0  0  0  0  0  0  0
   20.5444   16.9724   19.5940 H   0  0  0  0  0  0  0  0  0  0  0  0
   20.4257   16.0348   21.1011 H   0  0  0  0  0  0  0  0  0  0  0  0
   18.8629   17.5658   20.8722 C   0  0  0  0  0  0  0  0  0  0  0  0
   18.1954   17.0907   21.6046 H   0  0  0  0  0  0  0  0  0  0  0  0
   18.2190   17.9245   20.0571 H   0  0  0  0  0  0  0  0  0  0  0  0
   19.5679   18.7825   21.5190 C   0  0  0  0  0  0  0  0  0  0  0  0
   20.2195   19.2639   20.7770 H   0  0  0  0  0  0  0  0  0  0  0  0
   18.8011   19.5229   21.7792 H   0  0  0  0  0  0  0  0  0  0  0  0
   20.3944   18.4171   22.7787 C   0  0  0  0  0  0  0  0  0  0  0  0
   21.1995   17.7286   22.4910 H   0  0  0  0  0  0  0  0  0  0  0  0
   19.7619   17.8713   23.4892 H   0  0  0  0  0  0  0  0  0  0  0  0
   21.0401   19.6505   23.4620 C   0  0  0  0  0  0  0  0  0  0  0  0
   21.8338   19.3185   24.1455 H   0  0  0  0  0  0  0  0  0  0  0  0
   21.5491   20.2457   22.6912 H   0  0  0  0  0  0  0  0  0  0  0  0
   20.0457   20.5638   24.2313 C   0  0  0  0  0  0  0  0  0  0  0  0
   19.0393   20.4985   23.8012 H   0  0  0  0  0  0  0  0  0  0  0  0
   20.3661   21.6037   24.0847 H   0  0  0  0  0  0  0  0  0  0  0  0
   19.9814   20.3064   25.7558 C   0  0  2  0  0  0  0  0  0  0  0  0
   20.9910   20.4179   26.1632 H   0  0  0  0  0  0  0  0  0  0  0  0
   19.4778   18.8944   26.0993 C   0  0  0  0  0  0  0  0  0  0  0  0
   20.1858   18.1304   25.7578 H   0  0  0  0  0  0  0  0  0  0  0  0
   19.3723   18.7744   27.1845 H   0  0  0  0  0  0  0  0  0  0  0  0
   18.5022   18.6971   25.6379 H   0  0  0  0  0  0  0  0  0  0  0  0
   19.1333   21.3410   26.4420 N   0  3  0  0  0  0  0  0  0  0  0  0
   19.4785   22.2890   26.2660 H   0  0  0  0  0  0  0  0  0  0  0  0
   19.1243   21.2038   27.4568 H   0  0  0  0  0  0  0  0  0  0  0  0
   18.1625   21.3020   26.1199 H   0  0  0  0  0  0  0  0  0  0  0  0
  1  2  1  0  0  0  0
  1  3  1  0  0  0  0
  1  4  1  0  0  0  0
  1  5  1  0  0  0  0
  5  6  1  0  0  0  0
  5  7  1  0  0  0  0
  5  8  1  0  0  0  0
  8  9  1  0  0  0  0
  8 10  1  0  0  0  0
  8 11  1  0  0  0  0
 11 12  1  0  0  0  0
 11 13  1  0  0  0  0
 11 14  1  0  0  0  0
 14 15  1  0  0  0  0
 14 16  1  0  0  0  0
 14 17  1  0  0  0  0
 17 18  1  0  0  0  0
 17 19  1  0  0  0  0
 17 20  1  0  0  0  0
 20 21  1  0  0  0  0
 20 22  1  0  0  0  0
 22 23  1  0  0  0  0
 22 24  1  0  0  0  0
 22 25  1  0  0  0  0
 20 26  1  0  0  0  0
 26 27  1  0  0  0  0
 26 28  1  0  0  0  0
 26 29  1  0  0  0  0
M  END
> <VConfSearch Rank>
512

> <Conf_Id>
157

> <Delta U+W>
4.354

> <U+W>
-23.472

> <U>
28.780

> <W>
-52.252

> <W(PB)>
-54.715

> <W(SA)>
2.462

> <Valence>
7.566

> <Coulomb>
19.822

> <VdW>
1.392

> <VdW6>
-10.248

> <VdW12>
11.641

> <Bond>
0.340

> <Angle>
2.096

> <Pdih>
5.129

> <Idih>
0.000

> <Tether>
0.000

$$$$
VeraChem MOL file


 29 28  0  0  0  0  0  0  0  0999 V2000     
   17.4765   16.3256   22.6846 C   0  0  0  0  0  0  0  0  0  0  0  0
   17.0526   15.3911   23.0744 H   0  0  0  0  0  0  0  0  0  0  0  0
   17.2883   17.1103   23.4256 H   0  0  0  0  0  0  0  0  0  0  0  0
   16.9259   16.5853   21.7711 H   0  0  0  0  0  0  0  0  0  0  0  0
   18.9846   16.1534   22.3889 C   0  0  0  0  0  0  0  0  0  0  0  0
   19.0951   15.3424   21.6555 H   0  0  0  0  0  0  0  0  0  0  0  0
   19.5155   15.8190   23.2910 H   0  0  0  0  0  0  0  0  0  0  0  0
   19.6478   17.4321   21.8153 C   0  0  0  0  0  0  0  0  0  0  0  0
   20.3954   17.1244   21.0712 H   0  0  0  0  0  0  0  0  0  0  0  0
   18.9088   18.0279   21.2621 H   0  0  0  0  0  0  0  0  0  0  0  0
   20.3706   18.3182   22.8625 C   0  0  0  0  0  0  0  0  0  0  0  0
   20.8568   19.1421   22.3244 H   0  0  0  0  0  0  0  0  0  0  0  0
   21.1787   17.7406   23.3320 H   0  0  0  0  0  0  0  0  0  0  0  0
   19.4424   18.8896   23.9624 C   0  0  0  0  0  0  0  0  0  0  0  0
   18.5845   19.3968   23.5017 H   0  0  0  0  0  0  0  0  0  0  0  0
   19.0315   18.0603   24.5522 H   0  0  0  0  0  0  0  0  0  0  0  0
   20.1683   19.8503   24.9393 C   0  0  0  0  0  0  0  0  0  0  0  0
   20.9694   19.2977   25.4481 H   0  0  0  0  0  0  0  0  0  0  0  0
   19.4642   20.1595   25.7232 H   0  0  0  0  0  0  0  0  0  0  0  0
   20.7694   21.1076   24.2714 C   0  0  2  0  0  0  0  0  0  0  0  0
   21.4916   20.7861   23.5155 H   0  0  0  0  0  0  0  0  0  0  0  0
   21.5138   21.9606   25.3106 C   0  0  0  0  0  0  0  0  0  0  0  0
   20.8325   22.3179   26.0930 H   0  0  0  0  0  0  0  0  0  0  0  0
   22.3117   21.3806   25.7910 H   0  0  0  0  0  0  0  0  0  0  0  0
   21.9771   22.8342   24.8358 H   0  0  0  0  0  0  0  0  0  0  0  0
   19.7319   21.9291   23.5569 N   0  3  0  0  0  0  0  0  0  0  0  0
   19.2568   21.3797   22.8354 H   0  0  0  0  0  0  0  0  0  0  0  0
   20.1494   22.7442   23.0988 H   0  0  0  0  0  0  0  0  0  0  0  0
   19.0178   22.2726   24.2045 H   0  0  0  0  0  0  0  0  0  0  0  0
  1  2  1  0  0  0  0
  1  3  1  0  0  0  0
  1  4  1  0  0  0  0
  1  5  1  0  0  0  0
  5  6  1  0  0  0  0
  5  7  1  0  0  0  0
  5  8  1  0  0  0  0
  8  9  1  0  0  0  0
  8 10  1  0  0  0  0
  8 11  1  0  0  0  0
 11 12  1  0  0  0  0
 11 13  1  0  0  0  0
 11 14  1  0  0  0  0
 14 15  1  0  0  0  0
 14 16  1  0  0  0  0
 14 17  1  0  0  0  0
 17 18  1  0  0  0  0
 17 19  1  0  0  0  0
 17 20  1  0  0  0  0
 20 21  1  0  0  0  0
 20 22  1  0  0  0  0
 22 23  1  0  0  0  0
 22 24  1  0  0  0  0
 22 25  1  0  0  0  0
 20 26  1  0  0  0  0
 26 27  1  0  0  0  0
 26 28  1  0  0  0  0
 26 29  1  0  0  0  0
M  END
> <VConfSearch Rank>
513

> <Conf_Id>
158

> <Delta U+W>
3.648

> <U+W>
-24.178

> <U>
28.057

> <W>
-52.235

> <W(PB)>
-54.696

> <W(SA)>
2.460

> <Valence>
6.543

> <Coulomb>
20.387

> <VdW>
1.127

> <VdW6>
-10.342

> <VdW12>
11.469

> <Bond>
0.308

> <Angle>
1.938

> <Pdih>
4.297

> <Idih>
0.000

> <Tether>
0.000

$$$$
VeraChem MOL file


 29 28  0  0  0  0  0  0  0  0999 V2000     
   16.5674   20.1142   24.9232 C   0  0  0  0  0  0  0  0  0  0  0  0
   16.6746   21.0494   24.3585 H   0  0  0  0  0  0  0  0  0  0  0  0
   16.6430   19.2762   24.2194 H   0  0  0  0  0  0  0  0  0  0  0  0
   15.5568   20.0947   25.3515 H   0  0  0  0  0  0  0  0  0  0  0  0
   17.6301   20.0152   26.0411 C   0  0  0  0  0  0  0  0  0  0  0  0
   17.5226   19.0577   26.5697 H   0  0  0  0  0  0  0  0  0  0  0  0
   17.4354   20.8005   26.7848 H   0  0  0  0  0  0  0  0  0  0  0  0
   19.0814   20.1687   25.5258 C   0  0  0  0  0  0  0  0  0  0  0  0
   19.1880   21.1351   25.0140 H   0  0  0  0  0  0  0  0  0  0  0  0
   19.7574   20.2011   26.3914 H   0  0  0  0  0  0  0  0  0  0  0  0
   19.5243   19.0263   24.5809 C   0  0  0  0  0  0  0  0  0  0  0  0
   18.8898   19.0195   23.6879 H   0  0  0  0  0  0  0  0  0  0  0  0
   19.3721   18.0602   25.0815 H   0  0  0  0  0  0  0  0  0  0  0  0
   21.0122   19.1645   24.1750 C   0  0  0  0  0  0  0  0  0  0  0  0
   21.2019   20.1557   23.7404 H   0  0  0  0  0  0  0  0  0  0  0  0
   21.6218   19.1127   25.0879 H   0  0  0  0  0  0  0  0  0  0  0  0
   21.4906   18.0554   23.2009 C   0  0  0  0  0  0  0  0  0  0  0  0
   20.8977   17.1420   23.3423 H   0  0  0  0  0  0  0  0  0  0  0  0
   22.5196   17.7890   23.4765 H   0  0  0  0  0  0  0  0  0  0  0  0
   21.4998   18.4610   21.7072 C   0  0  2  0  0  0  0  0  0  0  0  0
   22.1388   19.3427   21.5983 H   0  0  0  0  0  0  0  0  0  0  0  0
   20.1011   18.8145   21.1744 C   0  0  0  0  0  0  0  0  0  0  0  0
   19.3916   17.9953   21.3450 H   0  0  0  0  0  0  0  0  0  0  0  0
   19.7134   19.7190   21.6573 H   0  0  0  0  0  0  0  0  0  0  0  0
   20.1369   19.0153   20.0966 H   0  0  0  0  0  0  0  0  0  0  0  0
   22.1202   17.3841   20.8612 N   0  3  0  0  0  0  0  0  0  0  0  0
   23.0727   17.1655   21.1675 H   0  0  0  0  0  0  0  0  0  0  0  0
   22.1736   17.6653   19.8779 H   0  0  0  0  0  0  0  0  0  0  0  0
   21.5772   16.5174   20.9020 H   0  0  0  0  0  0  0  0  0  0  0  0
  1  2  1  0  0  0  0
  1  3  1  0  0  0  0
  1  4  1  0  0  0  0
  1  5  1  0  0  0  0
  5  6  1  0  0  0  0
  5  7  1  0  0  0  0
  5  8  1  0  0  0  0
  8  9  1  0  0  0  0
  8 10  1  0  0  0  0
  8 11  1  0  0  0  0
 11 12  1  0  0  0  0
 11 13  1  0  0  0  0
 11 14  1  0  0  0  0
 14 15  1  0  0  0  0
 14 16  1  0  0  0  0
 14 17  1  0  0  0  0
 17 18  1  0  0  0  0
 17 19  1  0  0  0  0
 17 20  1  0  0  0  0
 20 21  1  0  0  0  0
 20 22  1  0  0  0  0
 22 23  1  0  0  0  0
 22 24  1  0  0  0  0
 22 25  1  0  0  0  0
 20 26  1  0  0  0  0
 26 27  1  0  0  0  0
 26 28  1  0  0  0  0
 26 29  1  0  0  0  0
M  END
> <VConfSearch Rank>
514

> <Conf_Id>
156

> <Delta U+W>
3.393

> <U+W>
-24.433

> <U>
27.713

> <W>
-52.146

> <W(PB)>
-54.603

> <W(SA)>
2.458

> <Valence>
6.758

> <Coulomb>
19.720

> <VdW>
1.235

> <VdW6>
-9.782

> <VdW12>
11.017

> <Bond>
0.287

> <Angle>
1.880

> <Pdih>
4.591

> <Idih>
0.000

> <Tether>
0.000

$$$$
VeraChem MOL file


 29 28  0  0  0  0  0  0  0  0999 V2000     
   21.5675   15.8911   24.5987 C   0  0  0  0  0  0  0  0  0  0  0  0
   21.2934   16.1677   25.6251 H   0  0  0  0  0  0  0  0  0  0  0  0
   21.2122   14.8691   24.4133 H   0  0  0  0  0  0  0  0  0  0  0  0
   22.6632   15.8840   24.5325 H   0  0  0  0  0  0  0  0  0  0  0  0
   20.9666   16.8813   23.5788 C   0  0  0  0  0  0  0  0  0  0  0  0
   21.2814   16.5970   22.5651 H   0  0  0  0  0  0  0  0  0  0  0  0
   21.3754   17.8820   23.7713 H   0  0  0  0  0  0  0  0  0  0  0  0
   19.4222   16.9123   23.6563 C   0  0  0  0  0  0  0  0  0  0  0  0
   19.0390   15.8894   23.5380 H   0  0  0  0  0  0  0  0  0  0  0  0
   19.1067   17.2363   24.6568 H   0  0  0  0  0  0  0  0  0  0  0  0
   18.7627   17.8066   22.5745 C   0  0  0  0  0  0  0  0  0  0  0  0
   17.6714   17.7506   22.6883 H   0  0  0  0  0  0  0  0  0  0  0  0
   18.9825   17.3845   21.5842 H   0  0  0  0  0  0  0  0  0  0  0  0
   19.1934   19.2964   22.5853 C   0  0  0  0  0  0  0  0  0  0  0  0
   20.2625   19.3725   22.3511 H   0  0  0  0  0  0  0  0  0  0  0  0
   18.6670   19.8019   21.7657 H   0  0  0  0  0  0  0  0  0  0  0  0
   18.8840   20.0182   23.9253 C   0  0  0  0  0  0  0  0  0  0  0  0
   19.4331   19.5306   24.7400 H   0  0  0  0  0  0  0  0  0  0  0  0
   17.8187   19.9007   24.1639 H   0  0  0  0  0  0  0  0  0  0  0  0
   19.2374   21.5241   23.9502 C   0  0  2  0  0  0  0  0  0  0  0  0
   19.0214   21.8911   24.9583 H   0  0  0  0  0  0  0  0  0  0  0  0
   18.3790   22.3392   22.9671 C   0  0  0  0  0  0  0  0  0  0  0  0
   18.5498   23.4133   23.1096 H   0  0  0  0  0  0  0  0  0  0  0  0
   18.6161   22.0990   21.9240 H   0  0  0  0  0  0  0  0  0  0  0  0
   17.3111   22.1480   23.1305 H   0  0  0  0  0  0  0  0  0  0  0  0
   20.7026   21.7733   23.7210 N   0  3  0  0  0  0  0  0  0  0  0  0
   21.2797   21.2718   24.4022 H   0  0  0  0  0  0  0  0  0  0  0  0
   20.9293   22.7687   23.8011 H   0  0  0  0  0  0  0  0  0  0  0  0
   20.9889   21.4672   22.7878 H   0  0  0  0  0  0  0  0  0  0  0  0
  1  2  1  0  0  0  0
  1  3  1  0  0  0  0
  1  4  1  0  0  0  0
  1  5  1  0  0  0  0
  5  6  1  0  0  0  0
  5  7  1  0  0  0  0
  5  8  1  0  0  0  0
  8  9  1  0  0  0  0
  8 10  1  0  0  0  0
  8 11  1  0  0  0  0
 11 12  1  0  0  0  0
 11 13  1  0  0  0  0
 11 14  1  0  0  0  0
 14 15  1  0  0  0  0
 14 16  1  0  0  0  0
 14 17  1  0  0  0  0
 17 18  1  0  0  0  0
 17 19  1  0  0  0  0
 17 20  1  0  0  0  0
 20 21  1  0  0  0  0
 20 22  1  0  0  0  0
 22 23  1  0  0  0  0
 22 24  1  0  0  0  0
 22 25  1  0  0  0  0
 20 26  1  0  0  0  0
 26 27  1  0  0  0  0
 26 28  1  0  0  0  0
 26 29  1  0  0  0  0
M  END
> <VConfSearch Rank>
515

> <Conf_Id>
78

> <Delta U+W>
1.477

> <U+W>
-26.349

> <U>
26.385

> <W>
-52.734

> <W(PB)>
-55.179

> <W(SA)>
2.445

> <Valence>
4.726

> <Coulomb>
20.482

> <VdW>
1.177

> <VdW6>
-10.349

> <VdW12>
11.526

> <Bond>
0.319

> <Angle>
1.933

> <Pdih>
2.474

> <Idih>
0.000

> <Tether>
0.000

$$$$
VeraChem MOL file


 29 28  0  0  0  0  0  0  0  0999 V2000     
   21.6679   20.2817   20.5551 C   0  0  0  0  0  0  0  0  0  0  0  0
   22.6147   19.7315   20.4785 H   0  0  0  0  0  0  0  0  0  0  0  0
   20.8524   19.5500   20.5524 H   0  0  0  0  0  0  0  0  0  0  0  0
   21.5664   20.8969   19.6518 H   0  0  0  0  0  0  0  0  0  0  0  0
   21.6482   21.1708   21.8203 C   0  0  0  0  0  0  0  0  0  0  0  0
   20.7313   21.7759   21.8482 H   0  0  0  0  0  0  0  0  0  0  0  0
   22.4795   21.8857   21.7445 H   0  0  0  0  0  0  0  0  0  0  0  0
   21.8051   20.3679   23.1372 C   0  0  0  0  0  0  0  0  0  0  0  0
   22.3821   19.4505   22.9567 H   0  0  0  0  0  0  0  0  0  0  0  0
   22.4113   20.9660   23.8316 H   0  0  0  0  0  0  0  0  0  0  0  0
   20.4743   20.0268   23.8561 C   0  0  0  0  0  0  0  0  0  0  0  0
   19.9580   20.9578   24.1278 H   0  0  0  0  0  0  0  0  0  0  0  0
   20.7239   19.5276   24.8012 H   0  0  0  0  0  0  0  0  0  0  0  0
   19.5176   19.1301   23.0324 C   0  0  0  0  0  0  0  0  0  0  0  0
   19.2070   19.6702   22.1291 H   0  0  0  0  0  0  0  0  0  0  0  0
   20.0488   18.2333   22.6876 H   0  0  0  0  0  0  0  0  0  0  0  0
   18.2351   18.7278   23.8062 C   0  0  0  0  0  0  0  0  0  0  0  0
   17.5939   18.1307   23.1444 H   0  0  0  0  0  0  0  0  0  0  0  0
   17.6688   19.6400   24.0362 H   0  0  0  0  0  0  0  0  0  0  0  0
   18.4729   17.9475   25.1209 C   0  0  2  0  0  0  0  0  0  0  0  0
   19.0966   18.5593   25.7791 H   0  0  0  0  0  0  0  0  0  0  0  0
   19.1898   16.6076   24.8779 C   0  0  0  0  0  0  0  0  0  0  0  0
   19.2994   16.0518   25.8173 H   0  0  0  0  0  0  0  0  0  0  0  0
   18.6296   15.9798   24.1739 H   0  0  0  0  0  0  0  0  0  0  0  0
   20.1970   16.7634   24.4739 H   0  0  0  0  0  0  0  0  0  0  0  0
   17.1816   17.7217   25.8568 N   0  3  0  0  0  0  0  0  0  0  0  0
   16.5346   17.1479   25.3092 H   0  0  0  0  0  0  0  0  0  0  0  0
   16.7076   18.6050   26.0665 H   0  0  0  0  0  0  0  0  0  0  0  0
   17.3377   17.2407   26.7473 H   0  0  0  0  0  0  0  0  0  0  0  0
  1  2  1  0  0  0  0
  1  3  1  0  0  0  0
  1  4  1  0  0  0  0
  1  5  1  0  0  0  0
  5  6  1  0  0  0  0
  5  7  1  0  0  0  0
  5  8  1  0  0  0  0
  8  9  1  0  0  0  0
  8 10  1  0  0  0  0
  8 11  1  0  0  0  0
 11 12  1  0  0  0  0
 11 13  1  0  0  0  0
 11 14  1  0  0  0  0
 14 15  1  0  0  0  0
 14 16  1  0  0  0  0
 14 17  1  0  0  0  0
 17 18  1  0  0  0  0
 17 19  1  0  0  0  0
 17 20  1  0  0  0  0
 20 21  1  0  0  0  0
 20 22  1  0  0  0  0
 22 23  1  0  0  0  0
 22 24  1  0  0  0  0
 22 25  1  0  0  0  0
 20 26  1  0  0  0  0
 26 27  1  0  0  0  0
 26 28  1  0  0  0  0
 26 29  1  0  0  0  0
M  END
> <VConfSearch Rank>
516

> <Conf_Id>
145

> <Delta U+W>
3.784

> <U+W>
-24.042

> <U>
28.220

> <W>
-52.262

> <W(PB)>
-54.724

> <W(SA)>
2.462

> <Valence>
7.040

> <Coulomb>
19.984

> <VdW>
1.197

> <VdW6>
-10.566

> <VdW12>
11.763

> <Bond>
0.320

> <Angle>
2.280

> <Pdih>
4.439

> <Idih>
0.000

> <Tether>
0.000

$$$$
VeraChem MOL file


 29 28  0  0  0  0  0  0  0  0999 V2000     
   19.5283   22.3907   21.2735 C   0  0  0  0  0  0  0  0  0  0  0  0
   19.1742   23.3669   21.6297 H   0  0  0  0  0  0  0  0  0  0  0  0
   20.6171   22.3518   21.4084 H   0  0  0  0  0  0  0  0  0  0  0  0
   19.3195   22.3285   20.1976 H   0  0  0  0  0  0  0  0  0  0  0  0
   18.8347   21.2387   22.0307 C   0  0  0  0  0  0  0  0  0  0  0  0
   19.1782   20.2811   21.6212 H   0  0  0  0  0  0  0  0  0  0  0  0
   17.7521   21.2855   21.8476 H   0  0  0  0  0  0  0  0  0  0  0  0
   19.1054   21.3126   23.5528 C   0  0  0  0  0  0  0  0  0  0  0  0
   20.1859   21.3361   23.7500 H   0  0  0  0  0  0  0  0  0  0  0  0
   18.7097   22.2684   23.9233 H   0  0  0  0  0  0  0  0  0  0  0  0
   18.4410   20.1625   24.3537 C   0  0  0  0  0  0  0  0  0  0  0  0
   17.5402   19.8067   23.8348 H   0  0  0  0  0  0  0  0  0  0  0  0
   18.0878   20.5721   25.3102 H   0  0  0  0  0  0  0  0  0  0  0  0
   19.3774   18.9692   24.6752 C   0  0  0  0  0  0  0  0  0  0  0  0
   20.2158   19.3279   25.2870 H   0  0  0  0  0  0  0  0  0  0  0  0
   18.8170   18.2653   25.3034 H   0  0  0  0  0  0  0  0  0  0  0  0
   19.9196   18.2324   23.4213 C   0  0  0  0  0  0  0  0  0  0  0  0
   20.5522   18.9185   22.8452 H   0  0  0  0  0  0  0  0  0  0  0  0
   19.0816   17.9601   22.7663 H   0  0  0  0  0  0  0  0  0  0  0  0
   20.7521   16.9632   23.7204 C   0  0  2  0  0  0  0  0  0  0  0  0
   21.1314   16.5916   22.7634 H   0  0  0  0  0  0  0  0  0  0  0  0
   19.9016   15.8439   24.3462 C   0  0  0  0  0  0  0  0  0  0  0  0
   20.4811   14.9149   24.4126 H   0  0  0  0  0  0  0  0  0  0  0  0
   19.5686   16.1023   25.3581 H   0  0  0  0  0  0  0  0  0  0  0  0
   19.0148   15.6389   23.7336 H   0  0  0  0  0  0  0  0  0  0  0  0
   21.9627   17.2559   24.5633 N   0  3  0  0  0  0  0  0  0  0  0  0
   21.6950   17.6008   25.4885 H   0  0  0  0  0  0  0  0  0  0  0  0
   22.5594   17.9661   24.1294 H   0  0  0  0  0  0  0  0  0  0  0  0
   22.5343   16.4175   24.7010 H   0  0  0  0  0  0  0  0  0  0  0  0
  1  2  1  0  0  0  0
  1  3  1  0  0  0  0
  1  4  1  0  0  0  0
  1  5  1  0  0  0  0
  5  6  1  0  0  0  0
  5  7  1  0  0  0  0
  5  8  1  0  0  0  0
  8  9  1  0  0  0  0
  8 10  1  0  0  0  0
  8 11  1  0  0  0  0
 11 12  1  0  0  0  0
 11 13  1  0  0  0  0
 11 14  1  0  0  0  0
 14 15  1  0  0  0  0
 14 16  1  0  0  0  0
 14 17  1  0  0  0  0
 17 18  1  0  0  0  0
 17 19  1  0  0  0  0
 17 20  1  0  0  0  0
 20 21  1  0  0  0  0
 20 22  1  0  0  0  0
 22 23  1  0  0  0  0
 22 24  1  0  0  0  0
 22 25  1  0  0  0  0
 20 26  1  0  0  0  0
 26 27  1  0  0  0  0
 26 28  1  0  0  0  0
 26 29  1  0  0  0  0
M  END
> <VConfSearch Rank>
517

> <Conf_Id>
71

> <Delta U+W>
3.542

> <U+W>
-24.284

> <U>
28.217

> <W>
-52.501

> <W(PB)>
-54.947

> <W(SA)>
2.446

> <Valence>
6.821

> <Coulomb>
20.147

> <VdW>
1.249

> <VdW6>
-10.237

> <VdW12>
11.486

> <Bond>
0.317

> <Angle>
1.990

> <Pdih>
4.515

> <Idih>
0.000

> <Tether>
0.000

$$$$
VeraChem MOL file


 29 28  0  0  0  0  0  0  0  0999 V2000     
   16.1712   18.7398   22.1002 C   0  0  0  0  0  0  0  0  0  0  0  0
   15.9242   19.0510   23.1236 H   0  0  0  0  0  0  0  0  0  0  0  0
   15.6976   19.4449   21.4046 H   0  0  0  0  0  0  0  0  0  0  0  0
   15.7262   17.7505   21.9320 H   0  0  0  0  0  0  0  0  0  0  0  0
   17.6991   18.6933   21.8888 C   0  0  0  0  0  0  0  0  0  0  0  0
   17.9127   18.3464   20.8681 H   0  0  0  0  0  0  0  0  0  0  0  0
   18.1328   17.9493   22.5675 H   0  0  0  0  0  0  0  0  0  0  0  0
   18.3474   20.0812   22.1099 C   0  0  0  0  0  0  0  0  0  0  0  0
   17.9054   20.7824   21.3886 H   0  0  0  0  0  0  0  0  0  0  0  0
   18.0916   20.4699   23.1052 H   0  0  0  0  0  0  0  0  0  0  0  0
   19.8862   20.0831   21.9154 C   0  0  0  0  0  0  0  0  0  0  0  0
   20.1699   21.0369   21.4493 H   0  0  0  0  0  0  0  0  0  0  0  0
   20.1816   19.3050   21.1982 H   0  0  0  0  0  0  0  0  0  0  0  0
   20.7058   19.9426   23.2241 C   0  0  0  0  0  0  0  0  0  0  0  0
   21.7690   20.0408   22.9692 H   0  0  0  0  0  0  0  0  0  0  0  0
   20.4685   20.7875   23.8842 H   0  0  0  0  0  0  0  0  0  0  0  0
   20.4743   18.6059   23.9774 C   0  0  0  0  0  0  0  0  0  0  0  0
   20.5789   17.7699   23.2736 H   0  0  0  0  0  0  0  0  0  0  0  0
   19.4424   18.5716   24.3483 H   0  0  0  0  0  0  0  0  0  0  0  0
   21.4238   18.3617   25.1739 C   0  0  2  0  0  0  0  0  0  0  0  0
   21.1551   17.3946   25.6102 H   0  0  0  0  0  0  0  0  0  0  0  0
   21.2582   19.4292   26.2695 C   0  0  0  0  0  0  0  0  0  0  0  0
   20.2081   19.5139   26.5757 H   0  0  0  0  0  0  0  0  0  0  0  0
   21.8432   19.1613   27.1578 H   0  0  0  0  0  0  0  0  0  0  0  0
   21.5978   20.4148   25.9292 H   0  0  0  0  0  0  0  0  0  0  0  0
   22.8622   18.2416   24.7516 N   0  3  0  0  0  0  0  0  0  0  0  0
   22.9880   17.5033   24.0532 H   0  0  0  0  0  0  0  0  0  0  0  0
   23.4679   18.0178   25.5464 H   0  0  0  0  0  0  0  0  0  0  0  0
   23.2033   19.1148   24.3422 H   0  0  0  0  0  0  0  0  0  0  0  0
  1  2  1  0  0  0  0
  1  3  1  0  0  0  0
  1  4  1  0  0  0  0
  1  5  1  0  0  0  0
  5  6  1  0  0  0  0
  5  7  1  0  0  0  0
  5  8  1  0  0  0  0
  8  9  1  0  0  0  0
  8 10  1  0  0  0  0
  8 11  1  0  0  0  0
 11 12  1  0  0  0  0
 11 13  1  0  0  0  0
 11 14  1  0  0  0  0
 14 15  1  0  0  0  0
 14 16  1  0  0  0  0
 14 17  1  0  0  0  0
 17 18  1  0  0  0  0
 17 19  1  0  0  0  0
 17 20  1  0  0  0  0
 20 21  1  0  0  0  0
 20 22  1  0  0  0  0
 22 23  1  0  0  0  0
 22 24  1  0  0  0  0
 22 25  1  0  0  0  0
 20 26  1  0  0  0  0
 26 27  1  0  0  0  0
 26 28  1  0  0  0  0
 26 29  1  0  0  0  0
M  END
> <VConfSearch Rank>
518

> <Conf_Id>
163

> <Delta U+W>
3.309

> <U+W>
-24.517

> <U>
27.916

> <W>
-52.433

> <W(PB)>
-54.866

> <W(SA)>
2.433

> <Valence>
6.693

> <Coulomb>
20.015

> <VdW>
1.208

> <VdW6>
-10.294

> <VdW12>
11.503

> <Bond>
0.312

> <Angle>
1.939

> <Pdih>
4.441

> <Idih>
0.000

> <Tether>
0.000

$$$$
VeraChem MOL file


 29 28  0  0  0  0  0  0  0  0999 V2000     
   20.0954   15.5689   25.2231 C   0  0  0  0  0  0  0  0  0  0  0  0
   21.0145   15.1532   24.7901 H   0  0  0  0  0  0  0  0  0  0  0  0
   20.3738   16.2279   26.0546 H   0  0  0  0  0  0  0  0  0  0  0  0
   19.5159   14.7365   25.6428 H   0  0  0  0  0  0  0  0  0  0  0  0
   19.2676   16.3188   24.1548 C   0  0  0  0  0  0  0  0  0  0  0  0
   18.3722   16.7550   24.6192 H   0  0  0  0  0  0  0  0  0  0  0  0
   18.9063   15.5913   23.4146 H   0  0  0  0  0  0  0  0  0  0  0  0
   20.0649   17.4212   23.4167 C   0  0  0  0  0  0  0  0  0  0  0  0
   20.9566   16.9799   22.9508 H   0  0  0  0  0  0  0  0  0  0  0  0
   19.4404   17.7982   22.5967 H   0  0  0  0  0  0  0  0  0  0  0  0
   20.4823   18.5987   24.3337 C   0  0  0  0  0  0  0  0  0  0  0  0
   21.1057   18.2192   25.1535 H   0  0  0  0  0  0  0  0  0  0  0  0
   19.5913   19.0324   24.8064 H   0  0  0  0  0  0  0  0  0  0  0  0
   21.2864   19.7018   23.5975 C   0  0  0  0  0  0  0  0  0  0  0  0
   21.5908   20.4643   24.3270 H   0  0  0  0  0  0  0  0  0  0  0  0
   22.2212   19.2682   23.2164 H   0  0  0  0  0  0  0  0  0  0  0  0
   20.5391   20.3867   22.4219 C   0  0  0  0  0  0  0  0  0  0  0  0
   20.4128   19.6647   21.6051 H   0  0  0  0  0  0  0  0  0  0  0  0
   21.1712   21.1881   22.0170 H   0  0  0  0  0  0  0  0  0  0  0  0
   19.1599   20.9679   22.8037 C   0  0  2  0  0  0  0  0  0  0  0  0
   18.5430   20.1565   23.2014 H   0  0  0  0  0  0  0  0  0  0  0  0
   18.4574   21.5406   21.5628 C   0  0  0  0  0  0  0  0  0  0  0  0
   17.4616   21.9211   21.8215 H   0  0  0  0  0  0  0  0  0  0  0  0
   19.0348   22.3641   21.1242 H   0  0  0  0  0  0  0  0  0  0  0  0
   18.3292   20.7667   20.7958 H   0  0  0  0  0  0  0  0  0  0  0  0
   19.2587   22.0083   23.8852 N   0  3  0  0  0  0  0  0  0  0  0  0
   19.6986   21.6269   24.7271 H   0  0  0  0  0  0  0  0  0  0  0  0
   18.3352   22.3613   24.1518 H   0  0  0  0  0  0  0  0  0  0  0  0
   19.8179   22.8096   23.5808 H   0  0  0  0  0  0  0  0  0  0  0  0
  1  2  1  0  0  0  0
  1  3  1  0  0  0  0
  1  4  1  0  0  0  0
  1  5  1  0  0  0  0
  5  6  1  0  0  0  0
  5  7  1  0  0  0  0
  5  8  1  0  0  0  0
  8  9  1  0  0  0  0
  8 10  1  0  0  0  0
  8 11  1  0  0  0  0
 11 12  1  0  0  0  0
 11 13  1  0  0  0  0
 11 14  1  0  0  0  0
 14 15  1  0  0  0  0
 14 16  1  0  0  0  0
 14 17  1  0  0  0  0
 17 18  1  0  0  0  0
 17 19  1  0  0  0  0
 17 20  1  0  0  0  0
 20 21  1  0  0  0  0
 20 22  1  0  0  0  0
 22 23  1  0  0  0  0
 22 24  1  0  0  0  0
 22 25  1  0  0  0  0
 20 26  1  0  0  0  0
 26 27  1  0  0  0  0
 26 28  1  0  0  0  0
 26 29  1  0  0  0  0
M  END
> <VConfSearch Rank>
519

> <Conf_Id>
173

> <Delta U+W>
1.363

> <U+W>
-26.462

> <U>
25.816

> <W>
-52.279

> <W(PB)>
-54.727

> <W(SA)>
2.449

> <Valence>
4.504

> <Coulomb>
20.342

> <VdW>
0.971

> <VdW6>
-10.532

> <VdW12>
11.503

> <Bond>
0.307

> <Angle>
1.715

> <Pdih>
2.481

> <Idih>
0.000

> <Tether>
0.000

$$$$
VeraChem MOL file


 29 28  0  0  0  0  0  0  0  0999 V2000     
   19.4979   20.1968   19.8305 C   0  0  0  0  0  0  0  0  0  0  0  0
   20.5181   20.5776   19.6906 H   0  0  0  0  0  0  0  0  0  0  0  0
   19.2642   19.5285   18.9915 H   0  0  0  0  0  0  0  0  0  0  0  0
   18.8097   21.0507   19.7825 H   0  0  0  0  0  0  0  0  0  0  0  0
   19.3610   19.4620   21.1807 C   0  0  0  0  0  0  0  0  0  0  0  0
   18.3253   19.1164   21.3040 H   0  0  0  0  0  0  0  0  0  0  0  0
   19.5657   20.1727   21.9922 H   0  0  0  0  0  0  0  0  0  0  0  0
   20.3288   18.2605   21.2765 C   0  0  0  0  0  0  0  0  0  0  0  0
   20.1926   17.6213   20.3933 H   0  0  0  0  0  0  0  0  0  0  0  0
   21.3650   18.6234   21.2336 H   0  0  0  0  0  0  0  0  0  0  0  0
   20.1420   17.3858   22.5431 C   0  0  0  0  0  0  0  0  0  0  0  0
   20.8534   16.5510   22.4755 H   0  0  0  0  0  0  0  0  0  0  0  0
   19.1448   16.9247   22.5398 H   0  0  0  0  0  0  0  0  0  0  0  0
   20.3907   18.1258   23.8833 C   0  0  0  0  0  0  0  0  0  0  0  0
   20.8799   17.4265   24.5741 H   0  0  0  0  0  0  0  0  0  0  0  0
   21.1034   18.9449   23.7230 H   0  0  0  0  0  0  0  0  0  0  0  0
   19.0838   18.6432   24.5462 C   0  0  0  0  0  0  0  0  0  0  0  0
   18.4211   17.7893   24.7388 H   0  0  0  0  0  0  0  0  0  0  0  0
   18.5363   19.2915   23.8531 H   0  0  0  0  0  0  0  0  0  0  0  0
   19.2877   19.4086   25.8748 C   0  0  2  0  0  0  0  0  0  0  0  0
   18.2948   19.6579   26.2616 H   0  0  0  0  0  0  0  0  0  0  0  0
   20.0498   20.7294   25.6684 C   0  0  0  0  0  0  0  0  0  0  0  0
   19.5691   21.3402   24.8942 H   0  0  0  0  0  0  0  0  0  0  0  0
   20.0588   21.3152   26.5957 H   0  0  0  0  0  0  0  0  0  0  0  0
   21.0911   20.5563   25.3725 H   0  0  0  0  0  0  0  0  0  0  0  0
   19.9466   18.5648   26.9309 N   0  3  0  0  0  0  0  0  0  0  0  0
   19.4201   17.7041   27.1060 H   0  0  0  0  0  0  0  0  0  0  0  0
   20.0177   19.0669   27.8205 H   0  0  0  0  0  0  0  0  0  0  0  0
   20.8938   18.2961   26.6531 H   0  0  0  0  0  0  0  0  0  0  0  0
  1  2  1  0  0  0  0
  1  3  1  0  0  0  0
  1  4  1  0  0  0  0
  1  5  1  0  0  0  0
  5  6  1  0  0  0  0
  5  7  1  0  0  0  0
  5  8  1  0  0  0  0
  8  9  1  0  0  0  0
  8 10  1  0  0  0  0
  8 11  1  0  0  0  0
 11 12  1  0  0  0  0
 11 13  1  0  0  0  0
 11 14  1  0  0  0  0
 14 15  1  0  0  0  0
 14 16  1  0  0  0  0
 14 17  1  0  0  0  0
 17 18  1  0  0  0  0
 17 19  1  0  0  0  0
 17 20  1  0  0  0  0
 20 21  1  0  0  0  0
 20 22  1  0  0  0  0
 22 23  1  0  0  0  0
 22 24  1  0  0  0  0
 22 25  1  0  0  0  0
 20 26  1  0  0  0  0
 26 27  1  0  0  0  0
 26 28  1  0  0  0  0
 26 29  1  0  0  0  0
M  END
> <VConfSearch Rank>
520

> <Conf_Id>
117

> <Delta U+W>
3.377

> <U+W>
-24.449

> <U>
27.947

> <W>
-52.396

> <W(PB)>
-54.842

> <W(SA)>
2.447

> <Valence>
6.731

> <Coulomb>
20.067

> <VdW>
1.149

> <VdW6>
-10.427

> <VdW12>
11.575

> <Bond>
0.324

> <Angle>
1.943

> <Pdih>
4.465

> <Idih>
0.000

> <Tether>
0.000

$$$$
VeraChem MOL file


 29 28  0  0  0  0  0  0  0  0999 V2000     
   21.4942   21.3487   27.4504 C   0  0  0  0  0  0  0  0  0  0  0  0
   22.2382   20.5631   27.6358 H   0  0  0  0  0  0  0  0  0  0  0  0
   21.9850   22.1612   26.8988 H   0  0  0  0  0  0  0  0  0  0  0  0
   21.1743   21.7462   28.4223 H   0  0  0  0  0  0  0  0  0  0  0  0
   20.2871   20.7949   26.6642 C   0  0  0  0  0  0  0  0  0  0  0  0
   19.5458   21.5940   26.5236 H   0  0  0  0  0  0  0  0  0  0  0  0
   19.7972   20.0082   27.2549 H   0  0  0  0  0  0  0  0  0  0  0  0
   20.7102   20.2286   25.2908 C   0  0  0  0  0  0  0  0  0  0  0  0
   21.2015   21.0178   24.7049 H   0  0  0  0  0  0  0  0  0  0  0  0
   21.4528   19.4318   25.4364 H   0  0  0  0  0  0  0  0  0  0  0  0
   19.5040   19.6731   24.5005 C   0  0  0  0  0  0  0  0  0  0  0  0
   18.7617   20.4705   24.3569 H   0  0  0  0  0  0  0  0  0  0  0  0
   19.0135   18.8838   25.0870 H   0  0  0  0  0  0  0  0  0  0  0  0
   19.9277   19.1073   23.1263 C   0  0  0  0  0  0  0  0  0  0  0  0
   20.4149   19.8983   22.5391 H   0  0  0  0  0  0  0  0  0  0  0  0
   20.6738   18.3160   23.2778 H   0  0  0  0  0  0  0  0  0  0  0  0
   18.7178   18.5505   22.3374 C   0  0  0  0  0  0  0  0  0  0  0  0
   17.9609   19.3407   22.2442 H   0  0  0  0  0  0  0  0  0  0  0  0
   18.2499   17.7334   22.9026 H   0  0  0  0  0  0  0  0  0  0  0  0
   19.0960   18.0549   20.9248 C   0  0  2  0  0  0  0  0  0  0  0  0
   19.5810   18.8780   20.3910 H   0  0  0  0  0  0  0  0  0  0  0  0
   17.8349   17.6504   20.1449 C   0  0  0  0  0  0  0  0  0  0  0  0
   18.0931   17.3316   19.1275 H   0  0  0  0  0  0  0  0  0  0  0  0
   17.3104   16.8233   20.6396 H   0  0  0  0  0  0  0  0  0  0  0  0
   17.1397   18.4952   20.0624 H   0  0  0  0  0  0  0  0  0  0  0  0
   20.0820   16.9193   20.9579 N   0  3  0  0  0  0  0  0  0  0  0  0
   20.9460   17.1884   21.4362 H   0  0  0  0  0  0  0  0  0  0  0  0
   20.3362   16.6169   20.0131 H   0  0  0  0  0  0  0  0  0  0  0  0
   19.6983   16.1064   21.4474 H   0  0  0  0  0  0  0  0  0  0  0  0
  1  2  1  0  0  0  0
  1  3  1  0  0  0  0
  1  4  1  0  0  0  0
  1  5  1  0  0  0  0
  5  6  1  0  0  0  0
  5  7  1  0  0  0  0
  5  8  1  0  0  0  0
  8  9  1  0  0  0  0
  8 10  1  0  0  0  0
  8 11  1  0  0  0  0
 11 12  1  0  0  0  0
 11 13  1  0  0  0  0
 11 14  1  0  0  0  0
 14 15  1  0  0  0  0
 14 16  1  0  0  0  0
 14 17  1  0  0  0  0
 17 18  1  0  0  0  0
 17 19  1  0  0  0  0
 17 20  1  0  0  0  0
 20 21  1  0  0  0  0
 20 22  1  0  0  0  0
 22 23  1  0  0  0  0
 22 24  1  0  0  0  0
 22 25  1  0  0  0  0
 20 26  1  0  0  0  0
 26 27  1  0  0  0  0
 26 28  1  0  0  0  0
 26 29  1  0  0  0  0
M  END
> <VConfSearch Rank>
521

> <Conf_Id>
164

> <Delta U+W>
0.000

> <U+W>
-27.826

> <U>
23.963

> <W>
-51.789

> <W(PB)>
-54.342

> <W(SA)>
2.554

> <Valence>
3.166

> <Coulomb>
19.734

> <VdW>
1.062

> <VdW6>
-7.938

> <VdW12>
9.001

> <Bond>
0.188

> <Angle>
0.880

> <Pdih>
2.098

> <Idih>
0.000

> <Tether>
0.000

$$$$
VeraChem MOL file


 29 28  0  0  0  0  0  0  0  0999 V2000     
   16.8136   17.9849   19.8727 C   0  0  0  0  0  0  0  0  0  0  0  0
   17.5708   18.0971   19.0857 H   0  0  0  0  0  0  0  0  0  0  0  0
   16.7677   16.9248   20.1544 H   0  0  0  0  0  0  0  0  0  0  0  0
   15.8409   18.2629   19.4466 H   0  0  0  0  0  0  0  0  0  0  0  0
   17.1468   18.8691   21.0929 C   0  0  0  0  0  0  0  0  0  0  0  0
   16.3555   18.7616   21.8480 H   0  0  0  0  0  0  0  0  0  0  0  0
   17.1524   19.9249   20.7875 H   0  0  0  0  0  0  0  0  0  0  0  0
   18.5124   18.4981   21.7122 C   0  0  0  0  0  0  0  0  0  0  0  0
   18.5027   17.4415   22.0136 H   0  0  0  0  0  0  0  0  0  0  0  0
   19.2998   18.6050   20.9532 H   0  0  0  0  0  0  0  0  0  0  0  0
   18.8495   19.3815   22.9345 C   0  0  0  0  0  0  0  0  0  0  0  0
   18.0618   19.2738   23.6932 H   0  0  0  0  0  0  0  0  0  0  0  0
   18.8574   20.4378   22.6318 H   0  0  0  0  0  0  0  0  0  0  0  0
   20.2161   19.0102   23.5535 C   0  0  0  0  0  0  0  0  0  0  0  0
   20.2004   17.9517   23.8443 H   0  0  0  0  0  0  0  0  0  0  0  0
   21.0043   19.1228   22.7961 H   0  0  0  0  0  0  0  0  0  0  0  0
   20.5492   19.8937   24.7808 C   0  0  0  0  0  0  0  0  0  0  0  0
   19.7987   19.7344   25.5665 H   0  0  0  0  0  0  0  0  0  0  0  0
   20.4702   20.9479   24.4842 H   0  0  0  0  0  0  0  0  0  0  0  0
   21.9636   19.6529   25.3562 C   0  0  2  0  0  0  0  0  0  0  0  0
   22.6892   19.7761   24.5463 H   0  0  0  0  0  0  0  0  0  0  0  0
   22.1199   18.2371   25.9395 C   0  0  0  0  0  0  0  0  0  0  0  0
   21.3691   18.0424   26.7154 H   0  0  0  0  0  0  0  0  0  0  0  0
   22.0177   17.4715   25.1618 H   0  0  0  0  0  0  0  0  0  0  0  0
   23.1130   18.1118   26.3884 H   0  0  0  0  0  0  0  0  0  0  0  0
   22.3085   20.6837   26.3949 N   0  3  0  0  0  0  0  0  0  0  0  0
   23.2597   20.5522   26.7508 H   0  0  0  0  0  0  0  0  0  0  0  0
   21.6732   20.6346   27.1960 H   0  0  0  0  0  0  0  0  0  0  0  0
   22.2538   21.6337   26.0162 H   0  0  0  0  0  0  0  0  0  0  0  0
  1  2  1  0  0  0  0
  1  3  1  0  0  0  0
  1  4  1  0  0  0  0
  1  5  1  0  0  0  0
  5  6  1  0  0  0  0
  5  7  1  0  0  0  0
  5  8  1  0  0  0  0
  8  9  1  0  0  0  0
  8 10  1  0  0  0  0
  8 11  1  0  0  0  0
 11 12  1  0  0  0  0
 11 13  1  0  0  0  0
 11 14  1  0  0  0  0
 14 15  1  0  0  0  0
 14 16  1  0  0  0  0
 14 17  1  0  0  0  0
 17 18  1  0  0  0  0
 17 19  1  0  0  0  0
 17 20  1  0  0  0  0
 20 21  1  0  0  0  0
 20 22  1  0  0  0  0
 22 23  1  0  0  0  0
 22 24  1  0  0  0  0
 22 25  1  0  0  0  0
 20 26  1  0  0  0  0
 26 27  1  0  0  0  0
 26 28  1  0  0  0  0
 26 29  1  0  0  0  0
M  END
> <VConfSearch Rank>
522

> <Conf_Id>
58

> <Delta U+W>
0.412

> <U+W>
-27.414

> <U>
24.279

> <W>
-51.694

> <W(PB)>
-54.271

> <W(SA)>
2.577

> <Valence>
3.709

> <Coulomb>
19.380

> <VdW>
1.191

> <VdW6>
-8.093

> <VdW12>
9.284

> <Bond>
0.200

> <Angle>
1.161

> <Pdih>
2.348

> <Idih>
0.000

> <Tether>
0.000

$$$$
VeraChem MOL file


 29 28  0  0  0  0  0  0  0  0999 V2000     
   16.0175   20.7599   21.1261 C   0  0  0  0  0  0  0  0  0  0  0  0
   15.3045   20.2382   21.7778 H   0  0  0  0  0  0  0  0  0  0  0  0
   16.1592   21.7755   21.5181 H   0  0  0  0  0  0  0  0  0  0  0  0
   15.5646   20.8433   20.1296 H   0  0  0  0  0  0  0  0  0  0  0  0
   17.3595   20.0013   21.0530 C   0  0  0  0  0  0  0  0  0  0  0  0
   18.0392   20.5281   20.3685 H   0  0  0  0  0  0  0  0  0  0  0  0
   17.1910   19.0026   20.6263 H   0  0  0  0  0  0  0  0  0  0  0  0
   18.0187   19.8699   22.4437 C   0  0  0  0  0  0  0  0  0  0  0  0
   18.1831   20.8705   22.8670 H   0  0  0  0  0  0  0  0  0  0  0  0
   17.3346   19.3451   23.1249 H   0  0  0  0  0  0  0  0  0  0  0  0
   19.3628   19.1105   22.3745 C   0  0  0  0  0  0  0  0  0  0  0  0
   20.0456   19.6360   21.6925 H   0  0  0  0  0  0  0  0  0  0  0  0
   19.1972   18.1103   21.9507 H   0  0  0  0  0  0  0  0  0  0  0  0
   20.0220   18.9790   23.7660 C   0  0  0  0  0  0  0  0  0  0  0  0
   20.1832   19.9814   24.1843 H   0  0  0  0  0  0  0  0  0  0  0  0
   19.3306   18.4575   24.4409 H   0  0  0  0  0  0  0  0  0  0  0  0
   21.3685   18.2132   23.6904 C   0  0  0  0  0  0  0  0  0  0  0  0
   22.0307   18.7182   22.9748 H   0  0  0  0  0  0  0  0  0  0  0  0
   21.1925   17.2092   23.2820 H   0  0  0  0  0  0  0  0  0  0  0  0
   22.1177   18.0775   25.0370 C   0  0  2  0  0  0  0  0  0  0  0  0
   23.0551   17.5497   24.8357 H   0  0  0  0  0  0  0  0  0  0  0  0
   21.3250   17.2441   26.0590 C   0  0  0  0  0  0  0  0  0  0  0  0
   21.9345   17.0495   26.9500 H   0  0  0  0  0  0  0  0  0  0  0  0
   20.4134   17.7597   26.3834 H   0  0  0  0  0  0  0  0  0  0  0  0
   21.0391   16.2742   25.6334 H   0  0  0  0  0  0  0  0  0  0  0  0
   22.5060   19.4106   25.6146 N   0  3  0  0  0  0  0  0  0  0  0  0
   23.0721   19.9542   24.9568 H   0  0  0  0  0  0  0  0  0  0  0  0
   23.0541   19.3012   26.4727 H   0  0  0  0  0  0  0  0  0  0  0  0
   21.6808   19.9691   25.8464 H   0  0  0  0  0  0  0  0  0  0  0  0
  1  2  1  0  0  0  0
  1  3  1  0  0  0  0
  1  4  1  0  0  0  0
  1  5  1  0  0  0  0
  5  6  1  0  0  0  0
  5  7  1  0  0  0  0
  5  8  1  0  0  0  0
  8  9  1  0  0  0  0
  8 10  1  0  0  0  0
  8 11  1  0  0  0  0
 11 12  1  0  0  0  0
 11 13  1  0  0  0  0
 11 14  1  0  0  0  0
 14 15  1  0  0  0  0
 14 16  1  0  0  0  0
 14 17  1  0  0  0  0
 17 18  1  0  0  0  0
 17 19  1  0  0  0  0
 17 20  1  0  0  0  0
 20 21  1  0  0  0  0
 20 22  1  0  0  0  0
 22 23  1  0  0  0  0
 22 24  1  0  0  0  0
 22 25  1  0  0  0  0
 20 26  1  0  0  0  0
 26 27  1  0  0  0  0
 26 28  1  0  0  0  0
 26 29  1  0  0  0  0
M  END
> <VConfSearch Rank>
523

> <Conf_Id>
137

> <Delta U+W>
0.280

> <U+W>
-27.546

> <U>
24.513

> <W>
-52.059

> <W(PB)>
-54.556

> <W(SA)>
2.497

> <Valence>
3.677

> <Coulomb>
19.662

> <VdW>
1.174

> <VdW6>
-8.569

> <VdW12>
9.743

> <Bond>
0.224

> <Angle>
1.211

> <Pdih>
2.243

> <Idih>
0.000

> <Tether>
0.000

$$$$
VeraChem MOL file


 29 28  0  0  0  0  0  0  0  0999 V2000     
   17.6291   22.5432   21.5546 C   0  0  0  0  0  0  0  0  0  0  0  0
   18.6071   23.0276   21.6735 H   0  0  0  0  0  0  0  0  0  0  0  0
   17.6024   22.0646   20.5670 H   0  0  0  0  0  0  0  0  0  0  0  0
   16.8607   23.3270   21.5703 H   0  0  0  0  0  0  0  0  0  0  0  0
   17.3800   21.5134   22.6768 C   0  0  0  0  0  0  0  0  0  0  0  0
   16.3814   21.0720   22.5508 H   0  0  0  0  0  0  0  0  0  0  0  0
   17.3798   22.0261   23.6489 H   0  0  0  0  0  0  0  0  0  0  0  0
   18.4482   20.3975   22.6766 C   0  0  0  0  0  0  0  0  0  0  0  0
   18.4427   19.8865   21.7039 H   0  0  0  0  0  0  0  0  0  0  0  0
   19.4398   20.8535   22.7928 H   0  0  0  0  0  0  0  0  0  0  0  0
   18.2011   19.3669   23.8046 C   0  0  0  0  0  0  0  0  0  0  0  0
   17.1734   18.9873   23.7199 H   0  0  0  0  0  0  0  0  0  0  0  0
   18.2660   19.8637   24.7825 H   0  0  0  0  0  0  0  0  0  0  0  0
   19.1708   18.1596   23.7701 C   0  0  0  0  0  0  0  0  0  0  0  0
   18.8184   17.4258   24.5060 H   0  0  0  0  0  0  0  0  0  0  0  0
   19.1111   17.6681   22.7892 H   0  0  0  0  0  0  0  0  0  0  0  0
   20.6432   18.5380   24.0775 C   0  0  0  0  0  0  0  0  0  0  0  0
   20.7044   19.0197   25.0624 H   0  0  0  0  0  0  0  0  0  0  0  0
   20.9818   19.2809   23.3454 H   0  0  0  0  0  0  0  0  0  0  0  0
   21.6182   17.3393   24.0239 C   0  0  2  0  0  0  0  0  0  0  0  0
   21.4952   16.8395   23.0582 H   0  0  0  0  0  0  0  0  0  0  0  0
   21.3468   16.3159   25.1415 C   0  0  0  0  0  0  0  0  0  0  0  0
   21.3914   16.7877   26.1310 H   0  0  0  0  0  0  0  0  0  0  0  0
   20.3617   15.8495   25.0265 H   0  0  0  0  0  0  0  0  0  0  0  0
   22.0904   15.5099   25.1156 H   0  0  0  0  0  0  0  0  0  0  0  0
   23.0478   17.8015   24.0823 N   0  3  0  0  0  0  0  0  0  0  0  0
   23.2662   18.4499   23.3203 H   0  0  0  0  0  0  0  0  0  0  0  0
   23.6985   17.0143   24.0080 H   0  0  0  0  0  0  0  0  0  0  0  0
   23.2496   18.2824   24.9631 H   0  0  0  0  0  0  0  0  0  0  0  0
  1  2  1  0  0  0  0
  1  3  1  0  0  0  0
  1  4  1  0  0  0  0
  1  5  1  0  0  0  0
  5  6  1  0  0  0  0
  5  7  1  0  0  0  0
  5  8  1  0  0  0  0
  8  9  1  0  0  0  0
  8 10  1  0  0  0  0
  8 11  1  0  0  0  0
 11 12  1  0  0  0  0
 11 13  1  0  0  0  0
 11 14  1  0  0  0  0
 14 15  1  0  0  0  0
 14 16  1  0  0  0  0
 14 17  1  0  0  0  0
 17 18  1  0  0  0  0
 17 19  1  0  0  0  0
 17 20  1  0  0  0  0
 20 21  1  0  0  0  0
 20 22  1  0  0  0  0
 22 23  1  0  0  0  0
 22 24  1  0  0  0  0
 22 25  1  0  0  0  0
 20 26  1  0  0  0  0
 26 27  1  0  0  0  0
 26 28  1  0  0  0  0
 26 29  1  0  0  0  0
M  END
> <VConfSearch Rank>
524

> <Conf_Id>
40

> <Delta U+W>
1.128

> <U+W>
-26.698

> <U>
25.442

> <W>
-52.140

> <W(PB)>
-54.658

> <W(SA)>
2.519

> <Valence>
4.343

> <Coulomb>
19.740

> <VdW>
1.360

> <VdW6>
-8.739

> <VdW12>
10.099

> <Bond>
0.251

> <Angle>
1.483

> <Pdih>
2.608

> <Idih>
0.000

> <Tether>
0.000

$$$$
VeraChem MOL file


 29 28  0  0  0  0  0  0  0  0999 V2000     
   17.5938   15.5688   24.7863 C   0  0  0  0  0  0  0  0  0  0  0  0
   18.6239   15.1939   24.7466 H   0  0  0  0  0  0  0  0  0  0  0  0
   17.4090   15.9630   25.7940 H   0  0  0  0  0  0  0  0  0  0  0  0
   16.9256   14.7114   24.6337 H   0  0  0  0  0  0  0  0  0  0  0  0
   17.3393   16.6498   23.7112 C   0  0  0  0  0  0  0  0  0  0  0  0
   16.2684   16.8964   23.7067 H   0  0  0  0  0  0  0  0  0  0  0  0
   17.5649   16.2425   22.7158 H   0  0  0  0  0  0  0  0  0  0  0  0
   18.1457   17.9512   23.9397 C   0  0  0  0  0  0  0  0  0  0  0  0
   17.7948   18.6969   23.2153 H   0  0  0  0  0  0  0  0  0  0  0  0
   17.9165   18.3540   24.9359 H   0  0  0  0  0  0  0  0  0  0  0  0
   19.6770   17.7618   23.7911 C   0  0  0  0  0  0  0  0  0  0  0  0
   19.9071   17.3644   22.7930 H   0  0  0  0  0  0  0  0  0  0  0  0
   20.0210   17.0075   24.5104 H   0  0  0  0  0  0  0  0  0  0  0  0
   20.4905   19.0571   24.0347 C   0  0  0  0  0  0  0  0  0  0  0  0
   20.2448   19.4643   25.0253 H   0  0  0  0  0  0  0  0  0  0  0  0
   21.5540   18.7866   24.0673 H   0  0  0  0  0  0  0  0  0  0  0  0
   20.2678   20.1443   22.9516 C   0  0  0  0  0  0  0  0  0  0  0  0
   19.2102   20.4343   22.9391 H   0  0  0  0  0  0  0  0  0  0  0  0
   20.4932   19.7320   21.9592 H   0  0  0  0  0  0  0  0  0  0  0  0
   21.1148   21.4134   23.1902 C   0  0  2  0  0  0  0  0  0  0  0  0
   20.9010   21.7842   24.1974 H   0  0  0  0  0  0  0  0  0  0  0  0
   20.7321   22.5084   22.1816 C   0  0  0  0  0  0  0  0  0  0  0  0
   21.3055   23.4251   22.3675 H   0  0  0  0  0  0  0  0  0  0  0  0
   20.9282   22.1854   21.1515 H   0  0  0  0  0  0  0  0  0  0  0  0
   19.6674   22.7600   22.2641 H   0  0  0  0  0  0  0  0  0  0  0  0
   22.5932   21.1407   23.1331 N   0  3  0  0  0  0  0  0  0  0  0  0
   22.8714   20.7844   22.2149 H   0  0  0  0  0  0  0  0  0  0  0  0
   22.8728   20.4466   23.8314 H   0  0  0  0  0  0  0  0  0  0  0  0
   23.1373   21.9899   23.3106 H   0  0  0  0  0  0  0  0  0  0  0  0
  1  2  1  0  0  0  0
  1  3  1  0  0  0  0
  1  4  1  0  0  0  0
  1  5  1  0  0  0  0
  5  6  1  0  0  0  0
  5  7  1  0  0  0  0
  5  8  1  0  0  0  0
  8  9  1  0  0  0  0
  8 10  1  0  0  0  0
  8 11  1  0  0  0  0
 11 12  1  0  0  0  0
 11 13  1  0  0  0  0
 11 14  1  0  0  0  0
 14 15  1  0  0  0  0
 14 16  1  0  0  0  0
 14 17  1  0  0  0  0
 17 18  1  0  0  0  0
 17 19  1  0  0  0  0
 17 20  1  0  0  0  0
 20 21  1  0  0  0  0
 20 22  1  0  0  0  0
 22 23  1  0  0  0  0
 22 24  1  0  0  0  0
 22 25  1  0  0  0  0
 20 26  1  0  0  0  0
 26 27  1  0  0  0  0
 26 28  1  0  0  0  0
 26 29  1  0  0  0  0
M  END
> <VConfSearch Rank>
525

> <Conf_Id>
134

> <Delta U+W>
1.228

> <U+W>
-26.598

> <U>
25.451

> <W>
-52.048

> <W(PB)>
-54.539

> <W(SA)>
2.490

> <Valence>
4.319

> <Coulomb>
19.732

> <VdW>
1.400

> <VdW6>
-9.173

> <VdW12>
10.573

> <Bond>
0.281

> <Angle>
1.459

> <Pdih>
2.580

> <Idih>
0.000

> <Tether>
0.000

$$$$
VeraChem MOL file


 29 28  0  0  0  0  0  0  0  0999 V2000     
   18.9700   19.9486   27.6697 C   0  0  0  0  0  0  0  0  0  0  0  0
   19.9709   19.5125   27.7750 H   0  0  0  0  0  0  0  0  0  0  0  0
   19.0804   21.0259   27.4903 H   0  0  0  0  0  0  0  0  0  0  0  0
   18.4523   19.8195   28.6290 H   0  0  0  0  0  0  0  0  0  0  0  0
   18.1721   19.2743   26.5305 C   0  0  0  0  0  0  0  0  0  0  0  0
   17.1409   19.6537   26.5504 H   0  0  0  0  0  0  0  0  0  0  0  0
   18.1053   18.1930   26.7148 H   0  0  0  0  0  0  0  0  0  0  0  0
   18.7665   19.5302   25.1243 C   0  0  0  0  0  0  0  0  0  0  0  0
   18.0630   19.1323   24.3818 H   0  0  0  0  0  0  0  0  0  0  0  0
   18.8292   20.6122   24.9442 H   0  0  0  0  0  0  0  0  0  0  0  0
   20.1595   18.8833   24.9166 C   0  0  0  0  0  0  0  0  0  0  0  0
   20.0963   17.8012   25.0953 H   0  0  0  0  0  0  0  0  0  0  0  0
   20.8610   19.2790   25.6622 H   0  0  0  0  0  0  0  0  0  0  0  0
   20.7576   19.1440   23.5121 C   0  0  0  0  0  0  0  0  0  0  0  0
   20.8311   20.2275   23.3497 H   0  0  0  0  0  0  0  0  0  0  0  0
   21.7856   18.7564   23.4948 H   0  0  0  0  0  0  0  0  0  0  0  0
   19.9517   18.4833   22.3639 C   0  0  0  0  0  0  0  0  0  0  0  0
   18.9679   18.9599   22.2697 H   0  0  0  0  0  0  0  0  0  0  0  0
   19.7681   17.4326   22.6242 H   0  0  0  0  0  0  0  0  0  0  0  0
   20.6721   18.5306   20.9973 C   0  0  2  0  0  0  0  0  0  0  0  0
   21.6637   18.0831   21.1163 H   0  0  0  0  0  0  0  0  0  0  0  0
   20.8461   19.9714   20.4846 C   0  0  0  0  0  0  0  0  0  0  0  0
   19.8792   20.4835   20.4043 H   0  0  0  0  0  0  0  0  0  0  0  0
   21.4907   20.5563   21.1509 H   0  0  0  0  0  0  0  0  0  0  0  0
   21.3161   19.9746   19.4934 H   0  0  0  0  0  0  0  0  0  0  0  0
   19.9510   17.6975   19.9744 N   0  3  0  0  0  0  0  0  0  0  0  0
   19.8618   16.7230   20.2767 H   0  0  0  0  0  0  0  0  0  0  0  0
   20.4466   17.6941   19.0783 H   0  0  0  0  0  0  0  0  0  0  0  0
   19.0072   18.0533   19.8002 H   0  0  0  0  0  0  0  0  0  0  0  0
  1  2  1  0  0  0  0
  1  3  1  0  0  0  0
  1  4  1  0  0  0  0
  1  5  1  0  0  0  0
  5  6  1  0  0  0  0
  5  7  1  0  0  0  0
  5  8  1  0  0  0  0
  8  9  1  0  0  0  0
  8 10  1  0  0  0  0
  8 11  1  0  0  0  0
 11 12  1  0  0  0  0
 11 13  1  0  0  0  0
 11 14  1  0  0  0  0
 14 15  1  0  0  0  0
 14 16  1  0  0  0  0
 14 17  1  0  0  0  0
 17 18  1  0  0  0  0
 17 19  1  0  0  0  0
 17 20  1  0  0  0  0
 20 21  1  0  0  0  0
 20 22  1  0  0  0  0
 22 23  1  0  0  0  0
 22 24  1  0  0  0  0
 22 25  1  0  0  0  0
 20 26  1  0  0  0  0
 26 27  1  0  0  0  0
 26 28  1  0  0  0  0
 26 29  1  0  0  0  0
M  END
> <VConfSearch Rank>
526

> <Conf_Id>
73

> <Delta U+W>
1.580

> <U+W>
-26.246

> <U>
25.821

> <W>
-52.067

> <W(PB)>
-54.581

> <W(SA)>
2.514

> <Valence>
4.779

> <Coulomb>
19.614

> <VdW>
1.428

> <VdW6>
-9.390

> <VdW12>
10.818

> <Bond>
0.283

> <Angle>
1.640

> <Pdih>
2.856

> <Idih>
0.000

> <Tether>
0.000

$$$$
VeraChem MOL file


 29 28  0  0  0  0  0  0  0  0999 V2000     
   16.2998   21.6837   22.6810 C   0  0  0  0  0  0  0  0  0  0  0  0
   16.0283   20.8501   22.0202 H   0  0  0  0  0  0  0  0  0  0  0  0
   15.3717   22.1665   23.0133 H   0  0  0  0  0  0  0  0  0  0  0  0
   16.8685   22.4154   22.0925 H   0  0  0  0  0  0  0  0  0  0  0  0
   17.1195   21.1880   23.8912 C   0  0  0  0  0  0  0  0  0  0  0  0
   16.5136   20.4835   24.4781 H   0  0  0  0  0  0  0  0  0  0  0  0
   17.3456   22.0377   24.5504 H   0  0  0  0  0  0  0  0  0  0  0  0
   18.4330   20.5044   23.4510 C   0  0  0  0  0  0  0  0  0  0  0  0
   18.1925   19.6651   22.7858 H   0  0  0  0  0  0  0  0  0  0  0  0
   19.0361   21.2133   22.8670 H   0  0  0  0  0  0  0  0  0  0  0  0
   19.2531   20.0028   24.6640 C   0  0  0  0  0  0  0  0  0  0  0  0
   18.6751   19.2493   25.2166 H   0  0  0  0  0  0  0  0  0  0  0  0
   19.4103   20.8401   25.3580 H   0  0  0  0  0  0  0  0  0  0  0  0
   20.6358   19.4191   24.2821 C   0  0  0  0  0  0  0  0  0  0  0  0
   21.2140   20.1745   23.7321 H   0  0  0  0  0  0  0  0  0  0  0  0
   21.1883   19.2223   25.2101 H   0  0  0  0  0  0  0  0  0  0  0  0
   20.5483   18.1167   23.4452 C   0  0  0  0  0  0  0  0  0  0  0  0
   20.0184   18.3230   22.5072 H   0  0  0  0  0  0  0  0  0  0  0  0
   19.9540   17.3674   23.9846 H   0  0  0  0  0  0  0  0  0  0  0  0
   21.9341   17.5291   23.1001 C   0  0  2  0  0  0  0  0  0  0  0  0
   22.5199   18.3045   22.5968 H   0  0  0  0  0  0  0  0  0  0  0  0
   21.7852   16.3376   22.1405 C   0  0  0  0  0  0  0  0  0  0  0  0
   21.2779   16.6419   21.2165 H   0  0  0  0  0  0  0  0  0  0  0  0
   22.7681   15.9370   21.8635 H   0  0  0  0  0  0  0  0  0  0  0  0
   21.2031   15.5286   22.5995 H   0  0  0  0  0  0  0  0  0  0  0  0
   22.7108   17.1242   24.3233 N   0  3  0  0  0  0  0  0  0  0  0  0
   23.6326   16.7535   24.0752 H   0  0  0  0  0  0  0  0  0  0  0  0
   22.2207   16.3983   24.8528 H   0  0  0  0  0  0  0  0  0  0  0  0
   22.8592   17.9181   24.9520 H   0  0  0  0  0  0  0  0  0  0  0  0
  1  2  1  0  0  0  0
  1  3  1  0  0  0  0
  1  4  1  0  0  0  0
  1  5  1  0  0  0  0
  5  6  1  0  0  0  0
  5  7  1  0  0  0  0
  5  8  1  0  0  0  0
  8  9  1  0  0  0  0
  8 10  1  0  0  0  0
  8 11  1  0  0  0  0
 11 12  1  0  0  0  0
 11 13  1  0  0  0  0
 11 14  1  0  0  0  0
 14 15  1  0  0  0  0
 14 16  1  0  0  0  0
 14 17  1  0  0  0  0
 17 18  1  0  0  0  0
 17 19  1  0  0  0  0
 17 20  1  0  0  0  0
 20 21  1  0  0  0  0
 20 22  1  0  0  0  0
 22 23  1  0  0  0  0
 22 24  1  0  0  0  0
 22 25  1  0  0  0  0
 20 26  1  0  0  0  0
 26 27  1  0  0  0  0
 26 28  1  0  0  0  0
 26 29  1  0  0  0  0
M  END
> <VConfSearch Rank>
527

> <Conf_Id>
111

> <Delta U+W>
0.580

> <U+W>
-27.246

> <U>
24.710

> <W>
-51.957

> <W(PB)>
-54.511

> <W(SA)>
2.555

> <Valence>
3.735

> <Coulomb>
19.760

> <VdW>
1.216

> <VdW6>
-8.624

> <VdW12>
9.840

> <Bond>
0.236

> <Angle>
1.168

> <Pdih>
2.330

> <Idih>
0.000

> <Tether>
0.000

$$$$
VeraChem MOL file


 29 28  0  0  0  0  0  0  0  0999 V2000     
   15.7903   17.8527   22.0495 C   0  0  0  0  0  0  0  0  0  0  0  0
   15.2925   18.1810   22.9712 H   0  0  0  0  0  0  0  0  0  0  0  0
   15.9303   18.7304   21.4051 H   0  0  0  0  0  0  0  0  0  0  0  0
   15.1164   17.1582   21.5313 H   0  0  0  0  0  0  0  0  0  0  0  0
   17.1400   17.1719   22.3605 C   0  0  0  0  0  0  0  0  0  0  0  0
   17.5982   16.8253   21.4236 H   0  0  0  0  0  0  0  0  0  0  0  0
   16.9641   16.2792   22.9769 H   0  0  0  0  0  0  0  0  0  0  0  0
   18.1080   18.1285   23.0913 C   0  0  0  0  0  0  0  0  0  0  0  0
   18.2682   19.0192   22.4698 H   0  0  0  0  0  0  0  0  0  0  0  0
   17.6466   18.4707   24.0279 H   0  0  0  0  0  0  0  0  0  0  0  0
   19.4633   17.4483   23.4001 C   0  0  0  0  0  0  0  0  0  0  0  0
   19.9514   17.1514   22.4616 H   0  0  0  0  0  0  0  0  0  0  0  0
   19.2790   16.5201   23.9586 H   0  0  0  0  0  0  0  0  0  0  0  0
   20.4250   18.3359   24.2276 C   0  0  0  0  0  0  0  0  0  0  0  0
   19.9404   18.6007   25.1766 H   0  0  0  0  0  0  0  0  0  0  0  0
   21.3124   17.7416   24.4862 H   0  0  0  0  0  0  0  0  0  0  0  0
   20.8759   19.6177   23.4807 C   0  0  0  0  0  0  0  0  0  0  0  0
   20.0211   20.2905   23.3363 H   0  0  0  0  0  0  0  0  0  0  0  0
   21.2253   19.3347   22.4790 H   0  0  0  0  0  0  0  0  0  0  0  0
   22.0112   20.3834   24.1973 C   0  0  2  0  0  0  0  0  0  0  0  0
   22.8407   19.6896   24.3649 H   0  0  0  0  0  0  0  0  0  0  0  0
   21.5618   20.9434   25.5588 C   0  0  0  0  0  0  0  0  0  0  0  0
   20.6908   21.6015   25.4492 H   0  0  0  0  0  0  0  0  0  0  0  0
   21.2987   20.1377   26.2539 H   0  0  0  0  0  0  0  0  0  0  0  0
   22.3692   21.5223   26.0239 H   0  0  0  0  0  0  0  0  0  0  0  0
   22.5507   21.4885   23.3324 N   0  3  0  0  0  0  0  0  0  0  0  0
   22.8958   21.1318   22.4365 H   0  0  0  0  0  0  0  0  0  0  0  0
   23.3297   21.9730   23.7875 H   0  0  0  0  0  0  0  0  0  0  0  0
   21.8325   22.1888   23.1288 H   0  0  0  0  0  0  0  0  0  0  0  0
  1  2  1  0  0  0  0
  1  3  1  0  0  0  0
  1  4  1  0  0  0  0
  1  5  1  0  0  0  0
  5  6  1  0  0  0  0
  5  7  1  0  0  0  0
  5  8  1  0  0  0  0
  8  9  1  0  0  0  0
  8 10  1  0  0  0  0
  8 11  1  0  0  0  0
 11 12  1  0  0  0  0
 11 13  1  0  0  0  0
 11 14  1  0  0  0  0
 14 15  1  0  0  0  0
 14 16  1  0  0  0  0
 14 17  1  0  0  0  0
 17 18  1  0  0  0  0
 17 19  1  0  0  0  0
 17 20  1  0  0  0  0
 20 21  1  0  0  0  0
 20 22  1  0  0  0  0
 22 23  1  0  0  0  0
 22 24  1  0  0  0  0
 22 25  1  0  0  0  0
 20 26  1  0  0  0  0
 26 27  1  0  0  0  0
 26 28  1  0  0  0  0
 26 29  1  0  0  0  0
M  END
> <VConfSearch Rank>
528

> <Conf_Id>
39

> <Delta U+W>
0.965

> <U+W>
-26.861

> <U>
25.129

> <W>
-51.990

> <W(PB)>
-54.526

> <W(SA)>
2.536

> <Valence>
4.206

> <Coulomb>
19.678

> <VdW>
1.245

> <VdW6>
-8.834

> <VdW12>
10.079

> <Bond>
0.240

> <Angle>
1.353

> <Pdih>
2.613

> <Idih>
0.000

> <Tether>
0.000

$$$$
VeraChem MOL file


 29 28  0  0  0  0  0  0  0  0999 V2000     
   21.4884   20.1661   27.2360 C   0  0  0  0  0  0  0  0  0  0  0  0
   20.5924   19.8203   27.7677 H   0  0  0  0  0  0  0  0  0  0  0  0
   22.0762   19.2874   26.9438 H   0  0  0  0  0  0  0  0  0  0  0  0
   22.0946   20.7472   27.9430 H   0  0  0  0  0  0  0  0  0  0  0  0
   21.1093   21.0305   26.0120 C   0  0  0  0  0  0  0  0  0  0  0  0
   22.0199   21.3347   25.4772 H   0  0  0  0  0  0  0  0  0  0  0  0
   20.6380   21.9573   26.3679 H   0  0  0  0  0  0  0  0  0  0  0  0
   20.1383   20.3254   25.0342 C   0  0  0  0  0  0  0  0  0  0  0  0
   19.2297   20.0243   25.5734 H   0  0  0  0  0  0  0  0  0  0  0  0
   19.8237   21.0600   24.2820 H   0  0  0  0  0  0  0  0  0  0  0  0
   20.7606   19.0939   24.3281 C   0  0  0  0  0  0  0  0  0  0  0  0
   21.0818   18.3648   25.0830 H   0  0  0  0  0  0  0  0  0  0  0  0
   21.6667   19.3960   23.7852 H   0  0  0  0  0  0  0  0  0  0  0  0
   19.7877   18.3790   23.3582 C   0  0  0  0  0  0  0  0  0  0  0  0
   20.2666   17.4513   23.0188 H   0  0  0  0  0  0  0  0  0  0  0  0
   18.8871   18.0793   23.9102 H   0  0  0  0  0  0  0  0  0  0  0  0
   19.3984   19.2409   22.1260 C   0  0  0  0  0  0  0  0  0  0  0  0
   20.3103   19.6267   21.6516 H   0  0  0  0  0  0  0  0  0  0  0  0
   18.8307   20.1205   22.4535 H   0  0  0  0  0  0  0  0  0  0  0  0
   18.5645   18.5004   21.0539 C   0  0  2  0  0  0  0  0  0  0  0  0
   18.3679   19.2122   20.2461 H   0  0  0  0  0  0  0  0  0  0  0  0
   17.2057   18.0309   21.6021 C   0  0  0  0  0  0  0  0  0  0  0  0
   17.3233   17.2436   22.3563 H   0  0  0  0  0  0  0  0  0  0  0  0
   16.6600   18.8660   22.0586 H   0  0  0  0  0  0  0  0  0  0  0  0
   16.5834   17.6296   20.7929 H   0  0  0  0  0  0  0  0  0  0  0  0
   19.3164   17.3584   20.4275 N   0  3  0  0  0  0  0  0  0  0  0  0
   20.2034   17.6706   20.0220 H   0  0  0  0  0  0  0  0  0  0  0  0
   18.7742   16.9202   19.6775 H   0  0  0  0  0  0  0  0  0  0  0  0
   19.5305   16.6326   21.1159 H   0  0  0  0  0  0  0  0  0  0  0  0
  1  2  1  0  0  0  0
  1  3  1  0  0  0  0
  1  4  1  0  0  0  0
  1  5  1  0  0  0  0
  5  6  1  0  0  0  0
  5  7  1  0  0  0  0
  5  8  1  0  0  0  0
  8  9  1  0  0  0  0
  8 10  1  0  0  0  0
  8 11  1  0  0  0  0
 11 12  1  0  0  0  0
 11 13  1  0  0  0  0
 11 14  1  0  0  0  0
 14 15  1  0  0  0  0
 14 16  1  0  0  0  0
 14 17  1  0  0  0  0
 17 18  1  0  0  0  0
 17 19  1  0  0  0  0
 17 20  1  0  0  0  0
 20 21  1  0  0  0  0
 20 22  1  0  0  0  0
 22 23  1  0  0  0  0
 22 24  1  0  0  0  0
 22 25  1  0  0  0  0
 20 26  1  0  0  0  0
 26 27  1  0  0  0  0
 26 28  1  0  0  0  0
 26 29  1  0  0  0  0
M  END
> <VConfSearch Rank>
529

> <Conf_Id>
155

> <Delta U+W>
1.624

> <U+W>
-26.202

> <U>
25.894

> <W>
-52.096

> <W(PB)>
-54.602

> <W(SA)>
2.506

> <Valence>
4.779

> <Coulomb>
19.659

> <VdW>
1.456

> <VdW6>
-9.843

> <VdW12>
11.299

> <Bond>
0.315

> <Angle>
1.725

> <Pdih>
2.740

> <Idih>
0.000

> <Tether>
0.000

$$$$
VeraChem MOL file


 29 28  0  0  0  0  0  0  0  0999 V2000     
   17.8465   20.6031   20.2561 C   0  0  0  0  0  0  0  0  0  0  0  0
   17.5444   19.5486   20.2753 H   0  0  0  0  0  0  0  0  0  0  0  0
   17.3136   21.1286   21.0591 H   0  0  0  0  0  0  0  0  0  0  0  0
   17.5126   21.0249   19.2993 H   0  0  0  0  0  0  0  0  0  0  0  0
   19.3764   20.7574   20.4110 C   0  0  0  0  0  0  0  0  0  0  0  0
   19.6425   21.8142   20.2696 H   0  0  0  0  0  0  0  0  0  0  0  0
   19.8865   20.2022   19.6114 H   0  0  0  0  0  0  0  0  0  0  0  0
   19.9027   20.2921   21.7899 C   0  0  0  0  0  0  0  0  0  0  0  0
   20.9740   20.5277   21.8524 H   0  0  0  0  0  0  0  0  0  0  0  0
   19.4085   20.8769   22.5764 H   0  0  0  0  0  0  0  0  0  0  0  0
   19.7007   18.7765   22.0431 C   0  0  0  0  0  0  0  0  0  0  0  0
   20.0826   18.2173   21.1779 H   0  0  0  0  0  0  0  0  0  0  0  0
   18.6295   18.5454   22.1128 H   0  0  0  0  0  0  0  0  0  0  0  0
   20.4171   18.2589   23.3149 C   0  0  0  0  0  0  0  0  0  0  0  0
   20.3291   17.1650   23.3278 H   0  0  0  0  0  0  0  0  0  0  0  0
   21.4908   18.4827   23.2492 H   0  0  0  0  0  0  0  0  0  0  0  0
   19.8400   18.8433   24.6305 C   0  0  0  0  0  0  0  0  0  0  0  0
   18.7695   18.6094   24.7019 H   0  0  0  0  0  0  0  0  0  0  0  0
   19.9189   19.9367   24.6003 H   0  0  0  0  0  0  0  0  0  0  0  0
   20.5661   18.3487   25.9027 C   0  0  2  0  0  0  0  0  0  0  0  0
   21.6373   18.5376   25.7821 H   0  0  0  0  0  0  0  0  0  0  0  0
   20.3600   16.8423   26.1437 C   0  0  0  0  0  0  0  0  0  0  0  0
   19.2934   16.5923   26.2033 H   0  0  0  0  0  0  0  0  0  0  0  0
   20.8096   16.2438   25.3433 H   0  0  0  0  0  0  0  0  0  0  0  0
   20.8344   16.5333   27.0833 H   0  0  0  0  0  0  0  0  0  0  0  0
   20.1319   19.1300   27.1118 N   0  3  0  0  0  0  0  0  0  0  0  0
   20.3012   20.1331   26.9936 H   0  0  0  0  0  0  0  0  0  0  0  0
   20.6384   18.8326   27.9507 H   0  0  0  0  0  0  0  0  0  0  0  0
   19.1331   19.0061   27.2981 H   0  0  0  0  0  0  0  0  0  0  0  0
  1  2  1  0  0  0  0
  1  3  1  0  0  0  0
  1  4  1  0  0  0  0
  1  5  1  0  0  0  0
  5  6  1  0  0  0  0
  5  7  1  0  0  0  0
  5  8  1  0  0  0  0
  8  9  1  0  0  0  0
  8 10  1  0  0  0  0
  8 11  1  0  0  0  0
 11 12  1  0  0  0  0
 11 13  1  0  0  0  0
 11 14  1  0  0  0  0
 14 15  1  0  0  0  0
 14 16  1  0  0  0  0
 14 17  1  0  0  0  0
 17 18  1  0  0  0  0
 17 19  1  0  0  0  0
 17 20  1  0  0  0  0
 20 21  1  0  0  0  0
 20 22  1  0  0  0  0
 22 23  1  0  0  0  0
 22 24  1  0  0  0  0
 22 25  1  0  0  0  0
 20 26  1  0  0  0  0
 26 27  1  0  0  0  0
 26 28  1  0  0  0  0
 26 29  1  0  0  0  0
M  END
> <VConfSearch Rank>
530

> <Conf_Id>
135

> <Delta U+W>
1.581

> <U+W>
-26.245

> <U>
25.974

> <W>
-52.219

> <W(PB)>
-54.709

> <W(SA)>
2.490

> <Valence>
4.811

> <Coulomb>
19.700

> <VdW>
1.463

> <VdW6>
-9.391

> <VdW12>
10.854

> <Bond>
0.285

> <Angle>
1.671

> <Pdih>
2.855

> <Idih>
0.000

> <Tether>
0.000

$$$$
VeraChem MOL file


 29 28  0  0  0  0  0  0  0  0999 V2000     
   22.7936   21.6696   22.6195 C   0  0  0  0  0  0  0  0  0  0  0  0
   22.7929   21.7267   23.7157 H   0  0  0  0  0  0  0  0  0  0  0  0
   23.2252   20.7049   22.3253 H   0  0  0  0  0  0  0  0  0  0  0  0
   23.4585   22.4575   22.2425 H   0  0  0  0  0  0  0  0  0  0  0  0
   21.3670   21.8489   22.0529 C   0  0  0  0  0  0  0  0  0  0  0  0
   21.3906   21.7615   20.9577 H   0  0  0  0  0  0  0  0  0  0  0  0
   21.0237   22.8695   22.2727 H   0  0  0  0  0  0  0  0  0  0  0  0
   20.3448   20.8440   22.6365 C   0  0  0  0  0  0  0  0  0  0  0  0
   20.3091   20.9616   23.7275 H   0  0  0  0  0  0  0  0  0  0  0  0
   19.3455   21.1051   22.2621 H   0  0  0  0  0  0  0  0  0  0  0  0
   20.6547   19.3709   22.2694 C   0  0  0  0  0  0  0  0  0  0  0  0
   21.5971   19.0565   22.7370 H   0  0  0  0  0  0  0  0  0  0  0  0
   20.8071   19.2961   21.1839 H   0  0  0  0  0  0  0  0  0  0  0  0
   19.5308   18.3873   22.6775 C   0  0  0  0  0  0  0  0  0  0  0  0
   18.5989   18.6803   22.1763 H   0  0  0  0  0  0  0  0  0  0  0  0
   19.7869   17.3880   22.2992 H   0  0  0  0  0  0  0  0  0  0  0  0
   19.3122   18.3070   24.2104 C   0  0  0  0  0  0  0  0  0  0  0  0
   18.9255   19.2628   24.5864 H   0  0  0  0  0  0  0  0  0  0  0  0
   20.2849   18.1500   24.6949 H   0  0  0  0  0  0  0  0  0  0  0  0
   18.3608   17.1674   24.6405 C   0  0  2  0  0  0  0  0  0  0  0  0
   18.7415   16.2283   24.2274 H   0  0  0  0  0  0  0  0  0  0  0  0
   16.9280   17.3828   24.1213 C   0  0  0  0  0  0  0  0  0  0  0  0
   16.5229   18.3440   24.4616 H   0  0  0  0  0  0  0  0  0  0  0  0
   16.8940   17.3639   23.0258 H   0  0  0  0  0  0  0  0  0  0  0  0
   16.2634   16.5873   24.4802 H   0  0  0  0  0  0  0  0  0  0  0  0
   18.3535   17.0014   26.1347 N   0  3  0  0  0  0  0  0  0  0  0  0
   17.7549   16.2215   26.4212 H   0  0  0  0  0  0  0  0  0  0  0  0
   18.0047   17.8422   26.6028 H   0  0  0  0  0  0  0  0  0  0  0  0
   19.2926   16.8138   26.4978 H   0  0  0  0  0  0  0  0  0  0  0  0
  1  2  1  0  0  0  0
  1  3  1  0  0  0  0
  1  4  1  0  0  0  0
  1  5  1  0  0  0  0
  5  6  1  0  0  0  0
  5  7  1  0  0  0  0
  5  8  1  0  0  0  0
  8  9  1  0  0  0  0
  8 10  1  0  0  0  0
  8 11  1  0  0  0  0
 11 12  1  0  0  0  0
 11 13  1  0  0  0  0
 11 14  1  0  0  0  0
 14 15  1  0  0  0  0
 14 16  1  0  0  0  0
 14 17  1  0  0  0  0
 17 18  1  0  0  0  0
 17 19  1  0  0  0  0
 17 20  1  0  0  0  0
 20 21  1  0  0  0  0
 20 22  1  0  0  0  0
 22 23  1  0  0  0  0
 22 24  1  0  0  0  0
 22 25  1  0  0  0  0
 20 26  1  0  0  0  0
 26 27  1  0  0  0  0
 26 28  1  0  0  0  0
 26 29  1  0  0  0  0
M  END
> <VConfSearch Rank>
531

> <Conf_Id>
130

> <Delta U+W>
1.359

> <U+W>
-26.467

> <U>
25.687

> <W>
-52.154

> <W(PB)>
-54.643

> <W(SA)>
2.489

> <Valence>
4.682

> <Coulomb>
19.653

> <VdW>
1.352

> <VdW6>
-9.477

> <VdW12>
10.829

> <Bond>
0.274

> <Angle>
1.550

> <Pdih>
2.858

> <Idih>
0.000

> <Tether>
0.000

$$$$
VeraChem MOL file


 29 28  0  0  0  0  0  0  0  0999 V2000     
   20.2900   19.1450   27.5470 C   0  0  0  0  0  0  0  0  0  0  0  0
   21.0247   19.2350   28.3576 H   0  0  0  0  0  0  0  0  0  0  0  0
   19.3099   19.4332   27.9487 H   0  0  0  0  0  0  0  0  0  0  0  0
   20.2465   18.0876   27.2581 H   0  0  0  0  0  0  0  0  0  0  0  0
   20.6880   20.0440   26.3546 C   0  0  0  0  0  0  0  0  0  0  0  0
   21.6552   19.7145   25.9499 H   0  0  0  0  0  0  0  0  0  0  0  0
   20.8411   21.0689   26.7205 H   0  0  0  0  0  0  0  0  0  0  0  0
   19.6309   20.0739   25.2243 C   0  0  0  0  0  0  0  0  0  0  0  0
   18.6713   20.4214   25.6310 H   0  0  0  0  0  0  0  0  0  0  0  0
   19.9407   20.8249   24.4868 H   0  0  0  0  0  0  0  0  0  0  0  0
   19.4355   18.7028   24.5278 C   0  0  0  0  0  0  0  0  0  0  0  0
   19.0608   17.9784   25.2626 H   0  0  0  0  0  0  0  0  0  0  0  0
   20.4052   18.3211   24.1862 H   0  0  0  0  0  0  0  0  0  0  0  0
   18.4271   18.7562   23.3507 C   0  0  0  0  0  0  0  0  0  0  0  0
   18.1060   17.7369   23.0953 H   0  0  0  0  0  0  0  0  0  0  0  0
   17.5194   19.2700   23.6962 H   0  0  0  0  0  0  0  0  0  0  0  0
   18.9546   19.4661   22.0730 C   0  0  0  0  0  0  0  0  0  0  0  0
   19.7158   20.2140   22.3251 H   0  0  0  0  0  0  0  0  0  0  0  0
   18.1191   20.0270   21.6339 H   0  0  0  0  0  0  0  0  0  0  0  0
   19.4989   18.5116   20.9834 C   0  0  2  0  0  0  0  0  0  0  0  0
   18.7060   17.8037   20.7234 H   0  0  0  0  0  0  0  0  0  0  0  0
   20.7239   17.7096   21.4541 C   0  0  0  0  0  0  0  0  0  0  0  0
   20.4556   17.0203   22.2630 H   0  0  0  0  0  0  0  0  0  0  0  0
   21.1279   17.1031   20.6342 H   0  0  0  0  0  0  0  0  0  0  0  0
   21.5206   18.3738   21.8115 H   0  0  0  0  0  0  0  0  0  0  0  0
   19.8238   19.2626   19.7220 N   0  3  0  0  0  0  0  0  0  0  0  0
   19.0083   19.7675   19.3630 H   0  0  0  0  0  0  0  0  0  0  0  0
   20.1407   18.6302   18.9816 H   0  0  0  0  0  0  0  0  0  0  0  0
   20.5674   19.9488   19.8766 H   0  0  0  0  0  0  0  0  0  0  0  0
  1  2  1  0  0  0  0
  1  3  1  0  0  0  0
  1  4  1  0  0  0  0
  1  5  1  0  0  0  0
  5  6  1  0  0  0  0
  5  7  1  0  0  0  0
  5  8  1  0  0  0  0
  8  9  1  0  0  0  0
  8 10  1  0  0  0  0
  8 11  1  0  0  0  0
 11 12  1  0  0  0  0
 11 13  1  0  0  0  0
 11 14  1  0  0  0  0
 14 15  1  0  0  0  0
 14 16  1  0  0  0  0
 14 17  1  0  0  0  0
 17 18  1  0  0  0  0
 17 19  1  0  0  0  0
 17 20  1  0  0  0  0
 20 21  1  0  0  0  0
 20 22  1  0  0  0  0
 22 23  1  0  0  0  0
 22 24  1  0  0  0  0
 22 25  1  0  0  0  0
 20 26  1  0  0  0  0
 26 27  1  0  0  0  0
 26 28  1  0  0  0  0
 26 29  1  0  0  0  0
M  END
> <VConfSearch Rank>
532

> <Conf_Id>
157

> <Delta U+W>
4.354

> <U+W>
-23.472

> <U>
28.780

> <W>
-52.252

> <W(PB)>
-54.715

> <W(SA)>
2.462

> <Valence>
7.566

> <Coulomb>
19.822

> <VdW>
1.392

> <VdW6>
-10.248

> <VdW12>
11.641

> <Bond>
0.340

> <Angle>
2.096

> <Pdih>
5.129

> <Idih>
0.000

> <Tether>
0.000

$$$$
VeraChem MOL file


 29 28  0  0  0  0  0  0  0  0999 V2000     
   19.7594   20.6910   26.9000 C   0  0  0  0  0  0  0  0  0  0  0  0
   19.3567   21.5314   27.4801 H   0  0  0  0  0  0  0  0  0  0  0  0
   18.9147   20.1799   26.4252 H   0  0  0  0  0  0  0  0  0  0  0  0
   20.2232   19.9907   27.6068 H   0  0  0  0  0  0  0  0  0  0  0  0
   20.7923   21.1941   25.8648 C   0  0  0  0  0  0  0  0  0  0  0  0
   21.5957   21.7082   26.4108 H   0  0  0  0  0  0  0  0  0  0  0  0
   20.3397   21.9516   25.2100 H   0  0  0  0  0  0  0  0  0  0  0  0
   21.4193   20.0555   25.0197 C   0  0  0  0  0  0  0  0  0  0  0  0
   22.4743   20.3047   24.8405 H   0  0  0  0  0  0  0  0  0  0  0  0
   21.4308   19.1185   25.5934 H   0  0  0  0  0  0  0  0  0  0  0  0
   20.7540   19.8261   23.6380 C   0  0  0  0  0  0  0  0  0  0  0  0
   21.3311   19.0538   23.1134 H   0  0  0  0  0  0  0  0  0  0  0  0
   20.8458   20.7394   23.0341 H   0  0  0  0  0  0  0  0  0  0  0  0
   19.2653   19.4060   23.7100 C   0  0  0  0  0  0  0  0  0  0  0  0
   19.1519   18.5439   24.3804 H   0  0  0  0  0  0  0  0  0  0  0  0
   18.6827   20.2228   24.1547 H   0  0  0  0  0  0  0  0  0  0  0  0
   18.6503   19.0874   22.3228 C   0  0  0  0  0  0  0  0  0  0  0  0
   18.7012   19.9892   21.6982 H   0  0  0  0  0  0  0  0  0  0  0  0
   17.5828   18.8630   22.4499 H   0  0  0  0  0  0  0  0  0  0  0  0
   19.3297   17.9180   21.5751 C   0  0  2  0  0  0  0  0  0  0  0  0
   20.3842   18.1681   21.4272 H   0  0  0  0  0  0  0  0  0  0  0  0
   18.6871   17.7221   20.1930 C   0  0  0  0  0  0  0  0  0  0  0  0
   17.6251   17.4609   20.2820 H   0  0  0  0  0  0  0  0  0  0  0  0
   18.7648   18.6380   19.5940 H   0  0  0  0  0  0  0  0  0  0  0  0
   19.1913   16.9195   19.6407 H   0  0  0  0  0  0  0  0  0  0  0  0
   19.2952   16.6367   22.3619 N   0  3  0  0  0  0  0  0  0  0  0  0
   19.7557   16.7469   23.2695 H   0  0  0  0  0  0  0  0  0  0  0  0
   19.7710   15.8785   21.8646 H   0  0  0  0  0  0  0  0  0  0  0  0
   18.3337   16.3333   22.5376 H   0  0  0  0  0  0  0  0  0  0  0  0
  1  2  1  0  0  0  0
  1  3  1  0  0  0  0
  1  4  1  0  0  0  0
  1  5  1  0  0  0  0
  5  6  1  0  0  0  0
  5  7  1  0  0  0  0
  5  8  1  0  0  0  0
  8  9  1  0  0  0  0
  8 10  1  0  0  0  0
  8 11  1  0  0  0  0
 11 12  1  0  0  0  0
 11 13  1  0  0  0  0
 11 14  1  0  0  0  0
 14 15  1  0  0  0  0
 14 16  1  0  0  0  0
 14 17  1  0  0  0  0
 17 18  1  0  0  0  0
 17 19  1  0  0  0  0
 17 20  1  0  0  0  0
 20 21  1  0  0  0  0
 20 22  1  0  0  0  0
 22 23  1  0  0  0  0
 22 24  1  0  0  0  0
 22 25  1  0  0  0  0
 20 26  1  0  0  0  0
 26 27  1  0  0  0  0
 26 28  1  0  0  0  0
 26 29  1  0  0  0  0
M  END
> <VConfSearch Rank>
533

> <Conf_Id>
158

> <Delta U+W>
3.648

> <U+W>
-24.178

> <U>
28.057

> <W>
-52.235

> <W(PB)>
-54.696

> <W(SA)>
2.460

> <Valence>
6.543

> <Coulomb>
20.387

> <VdW>
1.127

> <VdW6>
-10.342

> <VdW12>
11.469

> <Bond>
0.308

> <Angle>
1.938

> <Pdih>
4.297

> <Idih>
0.000

> <Tether>
0.000

$$$$
VeraChem MOL file


 29 28  0  0  0  0  0  0  0  0999 V2000     
   20.8330   19.6951   27.0081 C   0  0  0  0  0  0  0  0  0  0  0  0
   21.8705   19.4968   26.7092 H   0  0  0  0  0  0  0  0  0  0  0  0
   20.4310   20.4807   26.3565 H   0  0  0  0  0  0  0  0  0  0  0  0
   20.8485   20.0917   28.0315 H   0  0  0  0  0  0  0  0  0  0  0  0
   19.9795   18.4083   26.9401 C   0  0  0  0  0  0  0  0  0  0  0  0
   18.9401   18.6392   27.2120 H   0  0  0  0  0  0  0  0  0  0  0  0
   20.3454   17.7008   27.6973 H   0  0  0  0  0  0  0  0  0  0  0  0
   20.0176   17.7171   25.5559 C   0  0  0  0  0  0  0  0  0  0  0  0
   21.0570   17.4723   25.2971 H   0  0  0  0  0  0  0  0  0  0  0  0
   19.4835   16.7597   25.6292 H   0  0  0  0  0  0  0  0  0  0  0  0
   19.3843   18.5639   24.4262 C   0  0  0  0  0  0  0  0  0  0  0  0
   19.9434   19.4986   24.3085 H   0  0  0  0  0  0  0  0  0  0  0  0
   18.3609   18.8441   24.7113 H   0  0  0  0  0  0  0  0  0  0  0  0
   19.3495   17.7923   23.0842 C   0  0  0  0  0  0  0  0  0  0  0  0
   20.3548   17.4369   22.8187 H   0  0  0  0  0  0  0  0  0  0  0  0
   18.7370   16.8908   23.2239 H   0  0  0  0  0  0  0  0  0  0  0  0
   18.7502   18.6174   21.9145 C   0  0  0  0  0  0  0  0  0  0  0  0
   18.0418   19.3636   22.2981 H   0  0  0  0  0  0  0  0  0  0  0  0
   18.1567   17.9342   21.2927 H   0  0  0  0  0  0  0  0  0  0  0  0
   19.7943   19.2948   20.9943 C   0  0  2  0  0  0  0  0  0  0  0  0
   20.4499   18.5160   20.5929 H   0  0  0  0  0  0  0  0  0  0  0  0
   20.6678   20.3216   21.7346 C   0  0  0  0  0  0  0  0  0  0  0  0
   20.0528   21.0776   22.2384 H   0  0  0  0  0  0  0  0  0  0  0  0
   21.3020   19.8317   22.4824 H   0  0  0  0  0  0  0  0  0  0  0  0
   21.3361   20.8376   21.0342 H   0  0  0  0  0  0  0  0  0  0  0  0
   19.1296   19.9380   19.8090 N   0  3  0  0  0  0  0  0  0  0  0  0
   18.5801   19.2613   19.2714 H   0  0  0  0  0  0  0  0  0  0  0  0
   19.8181   20.3469   19.1706 H   0  0  0  0  0  0  0  0  0  0  0  0
   18.4966   20.6889   20.0973 H   0  0  0  0  0  0  0  0  0  0  0  0
  1  2  1  0  0  0  0
  1  3  1  0  0  0  0
  1  4  1  0  0  0  0
  1  5  1  0  0  0  0
  5  6  1  0  0  0  0
  5  7  1  0  0  0  0
  5  8  1  0  0  0  0
  8  9  1  0  0  0  0
  8 10  1  0  0  0  0
  8 11  1  0  0  0  0
 11 12  1  0  0  0  0
 11 13  1  0  0  0  0
 11 14  1  0  0  0  0
 14 15  1  0  0  0  0
 14 16  1  0  0  0  0
 14 17  1  0  0  0  0
 17 18  1  0  0  0  0
 17 19  1  0  0  0  0
 17 20  1  0  0  0  0
 20 21  1  0  0  0  0
 20 22  1  0  0  0  0
 22 23  1  0  0  0  0
 22 24  1  0  0  0  0
 22 25  1  0  0  0  0
 20 26  1  0  0  0  0
 26 27  1  0  0  0  0
 26 28  1  0  0  0  0
 26 29  1  0  0  0  0
M  END
> <VConfSearch Rank>
534

> <Conf_Id>
156

> <Delta U+W>
3.393

> <U+W>
-24.433

> <U>
27.713

> <W>
-52.146

> <W(PB)>
-54.603

> <W(SA)>
2.458

> <Valence>
6.758

> <Coulomb>
19.720

> <VdW>
1.235

> <VdW6>
-9.782

> <VdW12>
11.017

> <Bond>
0.287

> <Angle>
1.880

> <Pdih>
4.591

> <Idih>
0.000

> <Tether>
0.000

$$$$
VeraChem MOL file


 29 28  0  0  0  0  0  0  0  0999 V2000     
   21.3797   22.5067   22.3543 C   0  0  0  0  0  0  0  0  0  0  0  0
   21.1970   22.8634   23.3764 H   0  0  0  0  0  0  0  0  0  0  0  0
   22.4432   22.6543   22.1254 H   0  0  0  0  0  0  0  0  0  0  0  0
   20.7971   23.1354   21.6685 H   0  0  0  0  0  0  0  0  0  0  0  0
   20.9805   21.0234   22.2056 C   0  0  0  0  0  0  0  0  0  0  0  0
   21.1462   20.7031   21.1675 H   0  0  0  0  0  0  0  0  0  0  0  0
   19.9050   20.9229   22.4029 H   0  0  0  0  0  0  0  0  0  0  0  0
   21.7857   20.1172   23.1662 C   0  0  0  0  0  0  0  0  0  0  0  0
   22.8584   20.2910   23.0044 H   0  0  0  0  0  0  0  0  0  0  0  0
   21.5885   20.4099   24.2059 H   0  0  0  0  0  0  0  0  0  0  0  0
   21.5043   18.6040   22.9765 C   0  0  0  0  0  0  0  0  0  0  0  0
   22.1325   18.0381   23.6782 H   0  0  0  0  0  0  0  0  0  0  0  0
   21.8343   18.3058   21.9719 H   0  0  0  0  0  0  0  0  0  0  0  0
   20.0270   18.1704   23.1624 C   0  0  0  0  0  0  0  0  0  0  0  0
   19.4059   18.6365   22.3873 H   0  0  0  0  0  0  0  0  0  0  0  0
   19.9719   17.0888   22.9849 H   0  0  0  0  0  0  0  0  0  0  0  0
   19.4614   18.4954   24.5719 C   0  0  0  0  0  0  0  0  0  0  0  0
   19.4897   19.5793   24.7376 H   0  0  0  0  0  0  0  0  0  0  0  0
   20.1144   18.0540   25.3362 H   0  0  0  0  0  0  0  0  0  0  0  0
   18.0112   18.0160   24.8177 C   0  0  2  0  0  0  0  0  0  0  0  0
   17.7234   18.3539   25.8181 H   0  0  0  0  0  0  0  0  0  0  0  0
   17.8942   16.4819   24.7958 C   0  0  0  0  0  0  0  0  0  0  0  0
   16.8917   16.1700   25.1135 H   0  0  0  0  0  0  0  0  0  0  0  0
   18.0683   16.0749   23.7928 H   0  0  0  0  0  0  0  0  0  0  0  0
   18.6175   16.0257   25.4831 H   0  0  0  0  0  0  0  0  0  0  0  0
   17.0302   18.6450   23.8671 N   0  3  0  0  0  0  0  0  0  0  0  0
   17.0682   19.6674   23.9107 H   0  0  0  0  0  0  0  0  0  0  0  0
   16.0691   18.3645   24.0823 H   0  0  0  0  0  0  0  0  0  0  0  0
   17.2218   18.3691   22.9009 H   0  0  0  0  0  0  0  0  0  0  0  0
  1  2  1  0  0  0  0
  1  3  1  0  0  0  0
  1  4  1  0  0  0  0
  1  5  1  0  0  0  0
  5  6  1  0  0  0  0
  5  7  1  0  0  0  0
  5  8  1  0  0  0  0
  8  9  1  0  0  0  0
  8 10  1  0  0  0  0
  8 11  1  0  0  0  0
 11 12  1  0  0  0  0
 11 13  1  0  0  0  0
 11 14  1  0  0  0  0
 14 15  1  0  0  0  0
 14 16  1  0  0  0  0
 14 17  1  0  0  0  0
 17 18  1  0  0  0  0
 17 19  1  0  0  0  0
 17 20  1  0  0  0  0
 20 21  1  0  0  0  0
 20 22  1  0  0  0  0
 22 23  1  0  0  0  0
 22 24  1  0  0  0  0
 22 25  1  0  0  0  0
 20 26  1  0  0  0  0
 26 27  1  0  0  0  0
 26 28  1  0  0  0  0
 26 29  1  0  0  0  0
M  END
> <VConfSearch Rank>
535

> <Conf_Id>
78

> <Delta U+W>
1.477

> <U+W>
-26.349

> <U>
26.385

> <W>
-52.734

> <W(PB)>
-55.179

> <W(SA)>
2.445

> <Valence>
4.726

> <Coulomb>
20.482

> <VdW>
1.177

> <VdW6>
-10.349

> <VdW12>
11.526

> <Bond>
0.319

> <Angle>
1.933

> <Pdih>
2.474

> <Idih>
0.000

> <Tether>
0.000

$$$$
VeraChem MOL file


 29 28  0  0  0  0  0  0  0  0999 V2000     
   19.0265   20.0480   27.0333 C   0  0  0  0  0  0  0  0  0  0  0  0
   19.0297   19.1504   27.6652 H   0  0  0  0  0  0  0  0  0  0  0  0
   20.0035   20.1173   26.5423 H   0  0  0  0  0  0  0  0  0  0  0  0
   18.9229   20.9191   27.6931 H   0  0  0  0  0  0  0  0  0  0  0  0
   17.8645   20.0001   26.0140 C   0  0  0  0  0  0  0  0  0  0  0  0
   17.8213   20.9356   25.4390 H   0  0  0  0  0  0  0  0  0  0  0  0
   16.9222   19.9481   26.5772 H   0  0  0  0  0  0  0  0  0  0  0  0
   17.9368   18.7819   25.0577 C   0  0  0  0  0  0  0  0  0  0  0  0
   18.4491   17.9431   25.5487 H   0  0  0  0  0  0  0  0  0  0  0  0
   16.9117   18.4332   24.8708 H   0  0  0  0  0  0  0  0  0  0  0  0
   18.5886   19.0710   23.6808 C   0  0  0  0  0  0  0  0  0  0  0  0
   18.0024   19.8363   23.1537 H   0  0  0  0  0  0  0  0  0  0  0  0
   18.5128   18.1572   23.0773 H   0  0  0  0  0  0  0  0  0  0  0  0
   20.0684   19.5202   23.7587 C   0  0  0  0  0  0  0  0  0  0  0  0
   20.1260   20.4775   24.2921 H   0  0  0  0  0  0  0  0  0  0  0  0
   20.6473   18.8012   24.3531 H   0  0  0  0  0  0  0  0  0  0  0  0
   20.7247   19.7152   22.3671 C   0  0  0  0  0  0  0  0  0  0  0  0
   21.7540   20.0711   22.5069 H   0  0  0  0  0  0  0  0  0  0  0  0
   20.1932   20.5205   21.8431 H   0  0  0  0  0  0  0  0  0  0  0  0
   20.7406   18.4608   21.4615 C   0  0  2  0  0  0  0  0  0  0  0  0
   19.7096   18.1267   21.3140 H   0  0  0  0  0  0  0  0  0  0  0  0
   21.5423   17.3051   22.0862 C   0  0  0  0  0  0  0  0  0  0  0  0
   21.5816   16.4481   21.4027 H   0  0  0  0  0  0  0  0  0  0  0  0
   22.5721   17.6113   22.3084 H   0  0  0  0  0  0  0  0  0  0  0  0
   21.0783   16.9571   23.0164 H   0  0  0  0  0  0  0  0  0  0  0  0
   21.2756   18.7872   20.0950 N   0  3  0  0  0  0  0  0  0  0  0  0
   22.2471   19.1065   20.1403 H   0  0  0  0  0  0  0  0  0  0  0  0
   20.7295   19.5263   19.6429 H   0  0  0  0  0  0  0  0  0  0  0  0
   21.2511   17.9698   19.4786 H   0  0  0  0  0  0  0  0  0  0  0  0
  1  2  1  0  0  0  0
  1  3  1  0  0  0  0
  1  4  1  0  0  0  0
  1  5  1  0  0  0  0
  5  6  1  0  0  0  0
  5  7  1  0  0  0  0
  5  8  1  0  0  0  0
  8  9  1  0  0  0  0
  8 10  1  0  0  0  0
  8 11  1  0  0  0  0
 11 12  1  0  0  0  0
 11 13  1  0  0  0  0
 11 14  1  0  0  0  0
 14 15  1  0  0  0  0
 14 16  1  0  0  0  0
 14 17  1  0  0  0  0
 17 18  1  0  0  0  0
 17 19  1  0  0  0  0
 17 20  1  0  0  0  0
 20 21  1  0  0  0  0
 20 22  1  0  0  0  0
 22 23  1  0  0  0  0
 22 24  1  0  0  0  0
 22 25  1  0  0  0  0
 20 26  1  0  0  0  0
 26 27  1  0  0  0  0
 26 28  1  0  0  0  0
 26 29  1  0  0  0  0
M  END
> <VConfSearch Rank>
536

> <Conf_Id>
145

> <Delta U+W>
3.784

> <U+W>
-24.042

> <U>
28.220

> <W>
-52.262

> <W(PB)>
-54.724

> <W(SA)>
2.462

> <Valence>
7.040

> <Coulomb>
19.984

> <VdW>
1.197

> <VdW6>
-10.566

> <VdW12>
11.763

> <Bond>
0.320

> <Angle>
2.280

> <Pdih>
4.439

> <Idih>
0.000

> <Tether>
0.000

$$$$
VeraChem MOL file


 29 28  0  0  0  0  0  0  0  0999 V2000     
   18.9570   22.9572   22.8462 C   0  0  0  0  0  0  0  0  0  0  0  0
   17.9959   23.4317   23.0836 H   0  0  0  0  0  0  0  0  0  0  0  0
   19.6178   23.0692   23.7157 H   0  0  0  0  0  0  0  0  0  0  0  0
   19.4061   23.5064   22.0085 H   0  0  0  0  0  0  0  0  0  0  0  0
   18.7666   21.4695   22.4829 C   0  0  0  0  0  0  0  0  0  0  0  0
   19.7376   21.0390   22.2099 H   0  0  0  0  0  0  0  0  0  0  0  0
   18.1301   21.3936   21.5903 H   0  0  0  0  0  0  0  0  0  0  0  0
   18.1231   20.6766   23.6460 C   0  0  0  0  0  0  0  0  0  0  0  0
   18.7116   20.7983   24.5656 H   0  0  0  0  0  0  0  0  0  0  0  0
   17.1391   21.1182   23.8561 H   0  0  0  0  0  0  0  0  0  0  0  0
   17.9283   19.1703   23.3316 C   0  0  0  0  0  0  0  0  0  0  0  0
   17.8079   19.0184   22.2502 H   0  0  0  0  0  0  0  0  0  0  0  0
   16.9795   18.8473   23.7821 H   0  0  0  0  0  0  0  0  0  0  0  0
   19.0437   18.2428   23.8793 C   0  0  0  0  0  0  0  0  0  0  0  0
   19.0744   18.3289   24.9736 H   0  0  0  0  0  0  0  0  0  0  0  0
   18.7540   17.2074   23.6600 H   0  0  0  0  0  0  0  0  0  0  0  0
   20.4513   18.5270   23.2904 C   0  0  0  0  0  0  0  0  0  0  0  0
   20.7713   19.5324   23.5897 H   0  0  0  0  0  0  0  0  0  0  0  0
   20.3943   18.5338   22.1939 H   0  0  0  0  0  0  0  0  0  0  0  0
   21.5532   17.5326   23.7267 C   0  0  2  0  0  0  0  0  0  0  0  0
   22.4978   17.8907   23.3057 H   0  0  0  0  0  0  0  0  0  0  0  0
   21.3097   16.1164   23.1762 C   0  0  0  0  0  0  0  0  0  0  0  0
   22.1747   15.4732   23.3791 H   0  0  0  0  0  0  0  0  0  0  0  0
   20.4307   15.6470   23.6332 H   0  0  0  0  0  0  0  0  0  0  0  0
   21.1614   16.1403   22.0895 H   0  0  0  0  0  0  0  0  0  0  0  0
   21.7449   17.5059   25.2180 N   0  3  0  0  0  0  0  0  0  0  0  0
   20.9040   17.1688   25.6934 H   0  0  0  0  0  0  0  0  0  0  0  0
   21.9554   18.4380   25.5862 H   0  0  0  0  0  0  0  0  0  0  0  0
   22.5174   16.8891   25.4850 H   0  0  0  0  0  0  0  0  0  0  0  0
  1  2  1  0  0  0  0
  1  3  1  0  0  0  0
  1  4  1  0  0  0  0
  1  5  1  0  0  0  0
  5  6  1  0  0  0  0
  5  7  1  0  0  0  0
  5  8  1  0  0  0  0
  8  9  1  0  0  0  0
  8 10  1  0  0  0  0
  8 11  1  0  0  0  0
 11 12  1  0  0  0  0
 11 13  1  0  0  0  0
 11 14  1  0  0  0  0
 14 15  1  0  0  0  0
 14 16  1  0  0  0  0
 14 17  1  0  0  0  0
 17 18  1  0  0  0  0
 17 19  1  0  0  0  0
 17 20  1  0  0  0  0
 20 21  1  0  0  0  0
 20 22  1  0  0  0  0
 22 23  1  0  0  0  0
 22 24  1  0  0  0  0
 22 25  1  0  0  0  0
 20 26  1  0  0  0  0
 26 27  1  0  0  0  0
 26 28  1  0  0  0  0
 26 29  1  0  0  0  0
M  END
> <VConfSearch Rank>
537

> <Conf_Id>
71

> <Delta U+W>
3.542

> <U+W>
-24.284

> <U>
28.217

> <W>
-52.501

> <W(PB)>
-54.947

> <W(SA)>
2.446

> <Valence>
6.821

> <Coulomb>
20.147

> <VdW>
1.249

> <VdW6>
-10.237

> <VdW12>
11.486

> <Bond>
0.317

> <Angle>
1.990

> <Pdih>
4.515

> <Idih>
0.000

> <Tether>
0.000

$$$$
VeraChem MOL file


 29 28  0  0  0  0  0  0  0  0999 V2000     
   19.3223   22.9759   24.2377 C   0  0  0  0  0  0  0  0  0  0  0  0
   20.3716   23.0024   23.9160 H   0  0  0  0  0  0  0  0  0  0  0  0
   18.7498   23.6562   23.5936 H   0  0  0  0  0  0  0  0  0  0  0  0
   19.2744   23.3633   25.2637 H   0  0  0  0  0  0  0  0  0  0  0  0
   18.7580   21.5412   24.1699 C   0  0  0  0  0  0  0  0  0  0  0  0
   17.7197   21.5434   24.5298 H   0  0  0  0  0  0  0  0  0  0  0  0
   19.3240   20.9002   24.8564 H   0  0  0  0  0  0  0  0  0  0  0  0
   18.8052   20.9779   22.7291 C   0  0  0  0  0  0  0  0  0  0  0  0
   18.2003   21.6333   22.0872 H   0  0  0  0  0  0  0  0  0  0  0  0
   19.8283   21.0260   22.3317 H   0  0  0  0  0  0  0  0  0  0  0  0
   18.2542   19.5327   22.6117 C   0  0  0  0  0  0  0  0  0  0  0  0
   17.7240   19.4467   21.6531 H   0  0  0  0  0  0  0  0  0  0  0  0
   17.4963   19.3487   23.3856 H   0  0  0  0  0  0  0  0  0  0  0  0
   19.3350   18.4215   22.6472 C   0  0  0  0  0  0  0  0  0  0  0  0
   18.8362   17.4592   22.4733 H   0  0  0  0  0  0  0  0  0  0  0  0
   20.0230   18.5681   21.8040 H   0  0  0  0  0  0  0  0  0  0  0  0
   20.1363   18.3578   23.9745 C   0  0  0  0  0  0  0  0  0  0  0  0
   19.4369   18.3507   24.8206 H   0  0  0  0  0  0  0  0  0  0  0  0
   20.7399   19.2680   24.0788 H   0  0  0  0  0  0  0  0  0  0  0  0
   21.0787   17.1382   24.1064 C   0  0  2  0  0  0  0  0  0  0  0  0
   21.5765   17.2156   25.0780 H   0  0  0  0  0  0  0  0  0  0  0  0
   22.1705   17.1324   23.0225 C   0  0  0  0  0  0  0  0  0  0  0  0
   22.7141   18.0852   23.0116 H   0  0  0  0  0  0  0  0  0  0  0  0
   22.8993   16.3358   23.2162 H   0  0  0  0  0  0  0  0  0  0  0  0
   21.7491   16.9654   22.0240 H   0  0  0  0  0  0  0  0  0  0  0  0
   20.3312   15.8332   24.1254 N   0  3  0  0  0  0  0  0  0  0  0  0
   19.6311   15.8125   24.8724 H   0  0  0  0  0  0  0  0  0  0  0  0
   20.9637   15.0422   24.2765 H   0  0  0  0  0  0  0  0  0  0  0  0
   19.8435   15.6716   23.2409 H   0  0  0  0  0  0  0  0  0  0  0  0
  1  2  1  0  0  0  0
  1  3  1  0  0  0  0
  1  4  1  0  0  0  0
  1  5  1  0  0  0  0
  5  6  1  0  0  0  0
  5  7  1  0  0  0  0
  5  8  1  0  0  0  0
  8  9  1  0  0  0  0
  8 10  1  0  0  0  0
  8 11  1  0  0  0  0
 11 12  1  0  0  0  0
 11 13  1  0  0  0  0
 11 14  1  0  0  0  0
 14 15  1  0  0  0  0
 14 16  1  0  0  0  0
 14 17  1  0  0  0  0
 17 18  1  0  0  0  0
 17 19  1  0  0  0  0
 17 20  1  0  0  0  0
 20 21  1  0  0  0  0
 20 22  1  0  0  0  0
 22 23  1  0  0  0  0
 22 24  1  0  0  0  0
 22 25  1  0  0  0  0
 20 26  1  0  0  0  0
 26 27  1  0  0  0  0
 26 28  1  0  0  0  0
 26 29  1  0  0  0  0
M  END
> <VConfSearch Rank>
538

> <Conf_Id>
163

> <Delta U+W>
3.309

> <U+W>
-24.517

> <U>
27.916

> <W>
-52.433

> <W(PB)>
-54.866

> <W(SA)>
2.433

> <Valence>
6.693

> <Coulomb>
20.015

> <VdW>
1.208

> <VdW6>
-10.294

> <VdW12>
11.503

> <Bond>
0.312

> <Angle>
1.939

> <Pdih>
4.441

> <Idih>
0.000

> <Tether>
0.000

$$$$
VeraChem MOL file


 29 28  0  0  0  0  0  0  0  0999 V2000     
   18.7910   22.5852   25.2767 C   0  0  0  0  0  0  0  0  0  0  0  0
   17.7383   22.4298   25.5465 H   0  0  0  0  0  0  0  0  0  0  0  0
   19.4167   22.1214   26.0491 H   0  0  0  0  0  0  0  0  0  0  0  0
   18.9872   23.6650   25.2989 H   0  0  0  0  0  0  0  0  0  0  0  0
   19.0963   22.0094   23.8752 C   0  0  0  0  0  0  0  0  0  0  0  0
   20.1619   22.1453   23.6432 H   0  0  0  0  0  0  0  0  0  0  0  0
   18.5421   22.5925   23.1265 H   0  0  0  0  0  0  0  0  0  0  0  0
   18.7132   20.5175   23.7231 C   0  0  0  0  0  0  0  0  0  0  0  0
   17.6466   20.3871   23.9520 H   0  0  0  0  0  0  0  0  0  0  0  0
   18.8405   20.2418   22.6684 H   0  0  0  0  0  0  0  0  0  0  0  0
   19.5586   19.5703   24.6119 C   0  0  0  0  0  0  0  0  0  0  0  0
   19.4306   19.8486   25.6659 H   0  0  0  0  0  0  0  0  0  0  0  0
   20.6247   19.7088   24.3893 H   0  0  0  0  0  0  0  0  0  0  0  0
   19.1725   18.0754   24.4655 C   0  0  0  0  0  0  0  0  0  0  0  0
   19.7752   17.4838   25.1677 H   0  0  0  0  0  0  0  0  0  0  0  0
   18.1302   17.9425   24.7866 H   0  0  0  0  0  0  0  0  0  0  0  0
   19.3315   17.4920   23.0359 C   0  0  0  0  0  0  0  0  0  0  0  0
   18.5839   17.9482   22.3746 H   0  0  0  0  0  0  0  0  0  0  0  0
   19.0940   16.4202   23.0604 H   0  0  0  0  0  0  0  0  0  0  0  0
   20.7369   17.6897   22.4261 C   0  0  2  0  0  0  0  0  0  0  0  0
   20.9554   18.7616   22.4063 H   0  0  0  0  0  0  0  0  0  0  0  0
   20.7732   17.1659   20.9820 C   0  0  0  0  0  0  0  0  0  0  0  0
   21.7585   17.3378   20.5313 H   0  0  0  0  0  0  0  0  0  0  0  0
   20.5631   16.0896   20.9445 H   0  0  0  0  0  0  0  0  0  0  0  0
   20.0291   17.6812   20.3619 H   0  0  0  0  0  0  0  0  0  0  0  0
   21.8137   17.0423   23.2528 N   0  3  0  0  0  0  0  0  0  0  0  0
   21.8165   17.4074   24.2091 H   0  0  0  0  0  0  0  0  0  0  0  0
   22.7427   17.2088   22.8556 H   0  0  0  0  0  0  0  0  0  0  0  0
   21.6808   16.0291   23.3095 H   0  0  0  0  0  0  0  0  0  0  0  0
  1  2  1  0  0  0  0
  1  3  1  0  0  0  0
  1  4  1  0  0  0  0
  1  5  1  0  0  0  0
  5  6  1  0  0  0  0
  5  7  1  0  0  0  0
  5  8  1  0  0  0  0
  8  9  1  0  0  0  0
  8 10  1  0  0  0  0
  8 11  1  0  0  0  0
 11 12  1  0  0  0  0
 11 13  1  0  0  0  0
 11 14  1  0  0  0  0
 14 15  1  0  0  0  0
 14 16  1  0  0  0  0
 14 17  1  0  0  0  0
 17 18  1  0  0  0  0
 17 19  1  0  0  0  0
 17 20  1  0  0  0  0
 20 21  1  0  0  0  0
 20 22  1  0  0  0  0
 22 23  1  0  0  0  0
 22 24  1  0  0  0  0
 22 25  1  0  0  0  0
 20 26  1  0  0  0  0
 26 27  1  0  0  0  0
 26 28  1  0  0  0  0
 26 29  1  0  0  0  0
M  END
> <VConfSearch Rank>
539

> <Conf_Id>
173

> <Delta U+W>
1.363

> <U+W>
-26.462

> <U>
25.816

> <W>
-52.279

> <W(PB)>
-54.727

> <W(SA)>
2.449

> <Valence>
4.504

> <Coulomb>
20.342

> <VdW>
0.971

> <VdW6>
-10.532

> <VdW12>
11.503

> <Bond>
0.307

> <Angle>
1.715

> <Pdih>
2.481

> <Idih>
0.000

> <Tether>
0.000

$$$$
VeraChem MOL file


 29 28  0  0  0  0  0  0  0  0999 V2000     
   15.9918   19.2815   22.9336 C   0  0  0  0  0  0  0  0  0  0  0  0
   15.9802   19.1430   21.8446 H   0  0  0  0  0  0  0  0  0  0  0  0
   15.2572   18.5945   23.3736 H   0  0  0  0  0  0  0  0  0  0  0  0
   15.6634   20.3071   23.1466 H   0  0  0  0  0  0  0  0  0  0  0  0
   17.4015   19.0301   23.5092 C   0  0  0  0  0  0  0  0  0  0  0  0
   17.3879   19.2018   24.5944 H   0  0  0  0  0  0  0  0  0  0  0  0
   18.0965   19.7597   23.0730 H   0  0  0  0  0  0  0  0  0  0  0  0
   17.8908   17.5943   23.2123 C   0  0  0  0  0  0  0  0  0  0  0  0
   17.1265   16.8802   23.5489 H   0  0  0  0  0  0  0  0  0  0  0  0
   17.9791   17.4570   22.1258 H   0  0  0  0  0  0  0  0  0  0  0  0
   19.2355   17.2220   23.8889 C   0  0  0  0  0  0  0  0  0  0  0  0
   19.4531   16.1749   23.6365 H   0  0  0  0  0  0  0  0  0  0  0  0
   19.1273   17.2458   24.9820 H   0  0  0  0  0  0  0  0  0  0  0  0
   20.4441   18.0875   23.4465 C   0  0  0  0  0  0  0  0  0  0  0  0
   21.3283   17.4385   23.3945 H   0  0  0  0  0  0  0  0  0  0  0  0
   20.2766   18.4569   22.4266 H   0  0  0  0  0  0  0  0  0  0  0  0
   20.7462   19.2581   24.4230 C   0  0  0  0  0  0  0  0  0  0  0  0
   20.9604   18.8449   25.4173 H   0  0  0  0  0  0  0  0  0  0  0  0
   19.8580   19.8870   24.5496 H   0  0  0  0  0  0  0  0  0  0  0  0
   21.9307   20.1619   24.0074 C   0  0  2  0  0  0  0  0  0  0  0  0
   22.0731   20.8976   24.8051 H   0  0  0  0  0  0  0  0  0  0  0  0
   21.6383   20.9358   22.7100 C   0  0  0  0  0  0  0  0  0  0  0  0
   20.6910   21.4837   22.7876 H   0  0  0  0  0  0  0  0  0  0  0  0
   22.4307   21.6685   22.5142 H   0  0  0  0  0  0  0  0  0  0  0  0
   21.5791   20.2680   21.8426 H   0  0  0  0  0  0  0  0  0  0  0  0
   23.2254   19.4039   23.9036 N   0  3  0  0  0  0  0  0  0  0  0  0
   23.4495   18.9223   24.7791 H   0  0  0  0  0  0  0  0  0  0  0  0
   24.0081   20.0281   23.6881 H   0  0  0  0  0  0  0  0  0  0  0  0
   23.1831   18.6976   23.1648 H   0  0  0  0  0  0  0  0  0  0  0  0
  1  2  1  0  0  0  0
  1  3  1  0  0  0  0
  1  4  1  0  0  0  0
  1  5  1  0  0  0  0
  5  6  1  0  0  0  0
  5  7  1  0  0  0  0
  5  8  1  0  0  0  0
  8  9  1  0  0  0  0
  8 10  1  0  0  0  0
  8 11  1  0  0  0  0
 11 12  1  0  0  0  0
 11 13  1  0  0  0  0
 11 14  1  0  0  0  0
 14 15  1  0  0  0  0
 14 16  1  0  0  0  0
 14 17  1  0  0  0  0
 17 18  1  0  0  0  0
 17 19  1  0  0  0  0
 17 20  1  0  0  0  0
 20 21  1  0  0  0  0
 20 22  1  0  0  0  0
 22 23  1  0  0  0  0
 22 24  1  0  0  0  0
 22 25  1  0  0  0  0
 20 26  1  0  0  0  0
 26 27  1  0  0  0  0
 26 28  1  0  0  0  0
 26 29  1  0  0  0  0
M  END
> <VConfSearch Rank>
540

> <Conf_Id>
117

> <Delta U+W>
3.377

> <U+W>
-24.449

> <U>
27.947

> <W>
-52.396

> <W(PB)>
-54.842

> <W(SA)>
2.447

> <Valence>
6.731

> <Coulomb>
20.067

> <VdW>
1.149

> <VdW6>
-10.427

> <VdW12>
11.575

> <Bond>
0.324

> <Angle>
1.943

> <Pdih>
4.465

> <Idih>
0.000

> <Tether>
0.000

$$$$
VeraChem MOL file


 29 28  0  0  0  0  0  0  0  0999 V2000     
   18.8453   23.8396   22.8540 C   0  0  0  0  0  0  0  0  0  0  0  0
   19.8801   24.1321   23.0751 H   0  0  0  0  0  0  0  0  0  0  0  0
   18.7358   23.7667   21.7641 H   0  0  0  0  0  0  0  0  0  0  0  0
   18.1853   24.6431   23.2061 H   0  0  0  0  0  0  0  0  0  0  0  0
   18.4887   22.5028   23.5379 C   0  0  0  0  0  0  0  0  0  0  0  0
   17.4393   22.2538   23.3268 H   0  0  0  0  0  0  0  0  0  0  0  0
   18.5747   22.6164   24.6277 H   0  0  0  0  0  0  0  0  0  0  0  0
   19.4037   21.3539   23.0595 C   0  0  0  0  0  0  0  0  0  0  0  0
   19.3160   21.2456   21.9696 H   0  0  0  0  0  0  0  0  0  0  0  0
   20.4516   21.6083   23.2705 H   0  0  0  0  0  0  0  0  0  0  0  0
   19.0495   20.0134   23.7421 C   0  0  0  0  0  0  0  0  0  0  0  0
   18.0011   19.7610   23.5314 H   0  0  0  0  0  0  0  0  0  0  0  0
   19.1376   20.1224   24.8320 H   0  0  0  0  0  0  0  0  0  0  0  0
   19.9646   18.8641   23.2627 C   0  0  0  0  0  0  0  0  0  0  0  0
   19.8732   18.7535   22.1732 H   0  0  0  0  0  0  0  0  0  0  0  0
   21.0104   19.1266   23.4708 H   0  0  0  0  0  0  0  0  0  0  0  0
   19.6086   17.5230   23.9490 C   0  0  0  0  0  0  0  0  0  0  0  0
   18.5461   17.3063   23.7747 H   0  0  0  0  0  0  0  0  0  0  0  0
   19.7353   17.6165   25.0358 H   0  0  0  0  0  0  0  0  0  0  0  0
   20.4499   16.3377   23.4281 C   0  0  2  0  0  0  0  0  0  0  0  0
   20.3262   16.2802   22.3423 H   0  0  0  0  0  0  0  0  0  0  0  0
   19.9523   15.0190   24.0411 C   0  0  0  0  0  0  0  0  0  0  0  0
   20.5221   14.1683   23.6473 H   0  0  0  0  0  0  0  0  0  0  0  0
   20.0569   15.0245   25.1333 H   0  0  0  0  0  0  0  0  0  0  0  0
   18.8952   14.8513   23.8000 H   0  0  0  0  0  0  0  0  0  0  0  0
   21.9206   16.5175   23.6877 N   0  3  0  0  0  0  0  0  0  0  0  0
   22.2763   17.3703   23.2473 H   0  0  0  0  0  0  0  0  0  0  0  0
   22.4644   15.7322   23.3185 H   0  0  0  0  0  0  0  0  0  0  0  0
   22.1172   16.5825   24.6901 H   0  0  0  0  0  0  0  0  0  0  0  0
  1  2  1  0  0  0  0
  1  3  1  0  0  0  0
  1  4  1  0  0  0  0
  1  5  1  0  0  0  0
  5  6  1  0  0  0  0
  5  7  1  0  0  0  0
  5  8  1  0  0  0  0
  8  9  1  0  0  0  0
  8 10  1  0  0  0  0
  8 11  1  0  0  0  0
 11 12  1  0  0  0  0
 11 13  1  0  0  0  0
 11 14  1  0  0  0  0
 14 15  1  0  0  0  0
 14 16  1  0  0  0  0
 14 17  1  0  0  0  0
 17 18  1  0  0  0  0
 17 19  1  0  0  0  0
 17 20  1  0  0  0  0
 20 21  1  0  0  0  0
 20 22  1  0  0  0  0
 22 23  1  0  0  0  0
 22 24  1  0  0  0  0
 22 25  1  0  0  0  0
 20 26  1  0  0  0  0
 26 27  1  0  0  0  0
 26 28  1  0  0  0  0
 26 29  1  0  0  0  0
M  END
> <VConfSearch Rank>
541

> <Conf_Id>
164

> <Delta U+W>
0.000

> <U+W>
-27.826

> <U>
23.963

> <W>
-51.789

> <W(PB)>
-54.342

> <W(SA)>
2.554

> <Valence>
3.166

> <Coulomb>
19.734

> <VdW>
1.062

> <VdW6>
-7.938

> <VdW12>
9.001

> <Bond>
0.188

> <Angle>
0.880

> <Pdih>
2.098

> <Idih>
0.000

> <Tether>
0.000

$$$$
VeraChem MOL file


 29 28  0  0  0  0  0  0  0  0999 V2000     
   24.1090   18.9712   25.7574 C   0  0  0  0  0  0  0  0  0  0  0  0
   24.1037   20.0338   26.0330 H   0  0  0  0  0  0  0  0  0  0  0  0
   23.7159   18.3958   26.6057 H   0  0  0  0  0  0  0  0  0  0  0  0
   25.1525   18.6690   25.5997 H   0  0  0  0  0  0  0  0  0  0  0  0
   23.2719   18.7243   24.4844 C   0  0  0  0  0  0  0  0  0  0  0  0
   23.3237   17.6601   24.2147 H   0  0  0  0  0  0  0  0  0  0  0  0
   23.7086   19.2855   23.6464 H   0  0  0  0  0  0  0  0  0  0  0  0
   21.7976   19.1416   24.6797 C   0  0  0  0  0  0  0  0  0  0  0  0
   21.3663   18.5799   25.5198 H   0  0  0  0  0  0  0  0  0  0  0  0
   21.7510   20.2054   24.9512 H   0  0  0  0  0  0  0  0  0  0  0  0
   20.9562   18.8958   23.4070 C   0  0  0  0  0  0  0  0  0  0  0  0
   21.0030   17.8319   23.1362 H   0  0  0  0  0  0  0  0  0  0  0  0
   21.3896   19.4571   22.5676 H   0  0  0  0  0  0  0  0  0  0  0  0
   19.4812   19.3140   23.6026 C   0  0  0  0  0  0  0  0  0  0  0  0
   19.0608   18.7542   24.4483 H   0  0  0  0  0  0  0  0  0  0  0  0
   19.4344   20.3792   23.8684 H   0  0  0  0  0  0  0  0  0  0  0  0
   18.6394   19.0623   22.3276 C   0  0  0  0  0  0  0  0  0  0  0  0
   18.6299   17.9889   22.0958 H   0  0  0  0  0  0  0  0  0  0  0  0
   19.1310   19.5591   21.4807 H   0  0  0  0  0  0  0  0  0  0  0  0
   17.1883   19.5860   22.4257 C   0  0  2  0  0  0  0  0  0  0  0  0
   17.2233   20.6453   22.6981 H   0  0  0  0  0  0  0  0  0  0  0  0
   16.3709   18.8352   23.4922 C   0  0  0  0  0  0  0  0  0  0  0  0
   16.3601   17.7556   23.2966 H   0  0  0  0  0  0  0  0  0  0  0  0
   16.7789   18.9989   24.4962 H   0  0  0  0  0  0  0  0  0  0  0  0
   15.3327   19.1892   23.5030 H   0  0  0  0  0  0  0  0  0  0  0  0
   16.4951   19.5135   21.0936 N   0  3  0  0  0  0  0  0  0  0  0  0
   15.5464   19.8960   21.1444 H   0  0  0  0  0  0  0  0  0  0  0  0
   16.4176   18.5474   20.7643 H   0  0  0  0  0  0  0  0  0  0  0  0
   16.9990   20.0437   20.3768 H   0  0  0  0  0  0  0  0  0  0  0  0
  1  2  1  0  0  0  0
  1  3  1  0  0  0  0
  1  4  1  0  0  0  0
  1  5  1  0  0  0  0
  5  6  1  0  0  0  0
  5  7  1  0  0  0  0
  5  8  1  0  0  0  0
  8  9  1  0  0  0  0
  8 10  1  0  0  0  0
  8 11  1  0  0  0  0
 11 12  1  0  0  0  0
 11 13  1  0  0  0  0
 11 14  1  0  0  0  0
 14 15  1  0  0  0  0
 14 16  1  0  0  0  0
 14 17  1  0  0  0  0
 17 18  1  0  0  0  0
 17 19  1  0  0  0  0
 17 20  1  0  0  0  0
 20 21  1  0  0  0  0
 20 22  1  0  0  0  0
 22 23  1  0  0  0  0
 22 24  1  0  0  0  0
 22 25  1  0  0  0  0
 20 26  1  0  0  0  0
 26 27  1  0  0  0  0
 26 28  1  0  0  0  0
 26 29  1  0  0  0  0
M  END
> <VConfSearch Rank>
542

> <Conf_Id>
58

> <Delta U+W>
0.412

> <U+W>
-27.414

> <U>
24.279

> <W>
-51.694

> <W(PB)>
-54.271

> <W(SA)>
2.577

> <Valence>
3.709

> <Coulomb>
19.380

> <VdW>
1.191

> <VdW6>
-8.093

> <VdW12>
9.284

> <Bond>
0.200

> <Angle>
1.161

> <Pdih>
2.348

> <Idih>
0.000

> <Tether>
0.000

$$$$
VeraChem MOL file


 29 28  0  0  0  0  0  0  0  0999 V2000     
   19.5383   21.2813   19.3270 C   0  0  0  0  0  0  0  0  0  0  0  0
   19.7805   22.2579   19.7660 H   0  0  0  0  0  0  0  0  0  0  0  0
   20.4739   20.8168   18.9890 H   0  0  0  0  0  0  0  0  0  0  0  0
   18.9100   21.4552   18.4438 H   0  0  0  0  0  0  0  0  0  0  0  0
   18.8086   20.3807   20.3460 C   0  0  0  0  0  0  0  0  0  0  0  0
   18.5497   19.4253   19.8684 H   0  0  0  0  0  0  0  0  0  0  0  0
   17.8618   20.8553   20.6395 H   0  0  0  0  0  0  0  0  0  0  0  0
   19.6720   20.1199   21.5999 C   0  0  0  0  0  0  0  0  0  0  0  0
   20.6180   19.6475   21.3012 H   0  0  0  0  0  0  0  0  0  0  0  0
   19.9302   21.0778   22.0723 H   0  0  0  0  0  0  0  0  0  0  0  0
   18.9444   19.2186   22.6228 C   0  0  0  0  0  0  0  0  0  0  0  0
   18.6861   18.2614   22.1491 H   0  0  0  0  0  0  0  0  0  0  0  0
   17.9983   19.6918   22.9204 H   0  0  0  0  0  0  0  0  0  0  0  0
   19.8083   18.9580   23.8774 C   0  0  0  0  0  0  0  0  0  0  0  0
   20.7522   18.4867   23.5730 H   0  0  0  0  0  0  0  0  0  0  0  0
   20.0650   19.9198   24.3404 H   0  0  0  0  0  0  0  0  0  0  0  0
   19.0713   18.0559   24.9013 C   0  0  0  0  0  0  0  0  0  0  0  0
   18.7775   17.1189   24.4103 H   0  0  0  0  0  0  0  0  0  0  0  0
   18.1358   18.5430   25.2066 H   0  0  0  0  0  0  0  0  0  0  0  0
   19.8869   17.7080   26.1690 C   0  0  2  0  0  0  0  0  0  0  0  0
   19.2665   17.0487   26.7839 H   0  0  0  0  0  0  0  0  0  0  0  0
   20.2129   18.9558   27.0082 C   0  0  0  0  0  0  0  0  0  0  0  0
   20.6689   18.6670   27.9631 H   0  0  0  0  0  0  0  0  0  0  0  0
   20.9139   19.6212   26.4905 H   0  0  0  0  0  0  0  0  0  0  0  0
   19.3015   19.5234   27.2332 H   0  0  0  0  0  0  0  0  0  0  0  0
   21.1348   16.9305   25.8530 N   0  3  0  0  0  0  0  0  0  0  0  0
   20.9221   16.0746   25.3325 H   0  0  0  0  0  0  0  0  0  0  0  0
   21.6300   16.6550   26.7060 H   0  0  0  0  0  0  0  0  0  0  0  0
   21.7830   17.4832   25.2865 H   0  0  0  0  0  0  0  0  0  0  0  0
  1  2  1  0  0  0  0
  1  3  1  0  0  0  0
  1  4  1  0  0  0  0
  1  5  1  0  0  0  0
  5  6  1  0  0  0  0
  5  7  1  0  0  0  0
  5  8  1  0  0  0  0
  8  9  1  0  0  0  0
  8 10  1  0  0  0  0
  8 11  1  0  0  0  0
 11 12  1  0  0  0  0
 11 13  1  0  0  0  0
 11 14  1  0  0  0  0
 14 15  1  0  0  0  0
 14 16  1  0  0  0  0
 14 17  1  0  0  0  0
 17 18  1  0  0  0  0
 17 19  1  0  0  0  0
 17 20  1  0  0  0  0
 20 21  1  0  0  0  0
 20 22  1  0  0  0  0
 22 23  1  0  0  0  0
 22 24  1  0  0  0  0
 22 25  1  0  0  0  0
 20 26  1  0  0  0  0
 26 27  1  0  0  0  0
 26 28  1  0  0  0  0
 26 29  1  0  0  0  0
M  END
> <VConfSearch Rank>
543

> <Conf_Id>
137

> <Delta U+W>
0.280

> <U+W>
-27.546

> <U>
24.513

> <W>
-52.059

> <W(PB)>
-54.556

> <W(SA)>
2.497

> <Valence>
3.677

> <Coulomb>
19.662

> <VdW>
1.174

> <VdW6>
-8.569

> <VdW12>
9.743

> <Bond>
0.224

> <Angle>
1.211

> <Pdih>
2.243

> <Idih>
0.000

> <Tether>
0.000

$$$$
VeraChem MOL file


 29 28  0  0  0  0  0  0  0  0999 V2000     
   21.5533   23.2179   23.8269 C   0  0  0  0  0  0  0  0  0  0  0  0
   20.8703   23.2929   24.6831 H   0  0  0  0  0  0  0  0  0  0  0  0
   22.5221   22.8537   24.1930 H   0  0  0  0  0  0  0  0  0  0  0  0
   21.7029   24.2286   23.4256 H   0  0  0  0  0  0  0  0  0  0  0  0
   20.9824   22.2800   22.7423 C   0  0  0  0  0  0  0  0  0  0  0  0
   21.6702   22.2530   21.8855 H   0  0  0  0  0  0  0  0  0  0  0  0
   20.0307   22.6869   22.3724 H   0  0  0  0  0  0  0  0  0  0  0  0
   20.7629   20.8491   23.2812 C   0  0  0  0  0  0  0  0  0  0  0  0
   21.7172   20.4461   23.6473 H   0  0  0  0  0  0  0  0  0  0  0  0
   20.0830   20.8929   24.1417 H   0  0  0  0  0  0  0  0  0  0  0  0
   20.1862   19.9093   22.1949 C   0  0  0  0  0  0  0  0  0  0  0  0
   20.8371   19.9475   21.3105 H   0  0  0  0  0  0  0  0  0  0  0  0
   19.2031   20.2767   21.8695 H   0  0  0  0  0  0  0  0  0  0  0  0
   20.0652   18.4330   22.6474 C   0  0  0  0  0  0  0  0  0  0  0  0
   19.7944   17.8343   21.7684 H   0  0  0  0  0  0  0  0  0  0  0  0
   21.0470   18.0687   22.9800 H   0  0  0  0  0  0  0  0  0  0  0  0
   19.0171   18.2123   23.7693 C   0  0  0  0  0  0  0  0  0  0  0  0
   18.0337   18.5666   23.4331 H   0  0  0  0  0  0  0  0  0  0  0  0
   19.2889   18.8241   24.6378 H   0  0  0  0  0  0  0  0  0  0  0  0
   18.9075   16.7432   24.2385 C   0  0  2  0  0  0  0  0  0  0  0  0
   19.9085   16.3938   24.5101 H   0  0  0  0  0  0  0  0  0  0  0  0
   18.3494   15.8200   23.1403 C   0  0  0  0  0  0  0  0  0  0  0  0
   17.3724   16.1710   22.7855 H   0  0  0  0  0  0  0  0  0  0  0  0
   19.0278   15.7640   22.2815 H   0  0  0  0  0  0  0  0  0  0  0  0
   18.2256   14.7986   23.5209 H   0  0  0  0  0  0  0  0  0  0  0  0
   18.0690   16.6333   25.4817 N   0  3  0  0  0  0  0  0  0  0  0  0
   18.4465   17.2047   26.2432 H   0  0  0  0  0  0  0  0  0  0  0  0
   18.0252   15.6674   25.8189 H   0  0  0  0  0  0  0  0  0  0  0  0
   17.1077   16.9417   25.3127 H   0  0  0  0  0  0  0  0  0  0  0  0
  1  2  1  0  0  0  0
  1  3  1  0  0  0  0
  1  4  1  0  0  0  0
  1  5  1  0  0  0  0
  5  6  1  0  0  0  0
  5  7  1  0  0  0  0
  5  8  1  0  0  0  0
  8  9  1  0  0  0  0
  8 10  1  0  0  0  0
  8 11  1  0  0  0  0
 11 12  1  0  0  0  0
 11 13  1  0  0  0  0
 11 14  1  0  0  0  0
 14 15  1  0  0  0  0
 14 16  1  0  0  0  0
 14 17  1  0  0  0  0
 17 18  1  0  0  0  0
 17 19  1  0  0  0  0
 17 20  1  0  0  0  0
 20 21  1  0  0  0  0
 20 22  1  0  0  0  0
 22 23  1  0  0  0  0
 22 24  1  0  0  0  0
 22 25  1  0  0  0  0
 20 26  1  0  0  0  0
 26 27  1  0  0  0  0
 26 28  1  0  0  0  0
 26 29  1  0  0  0  0
M  END
> <VConfSearch Rank>
544

> <Conf_Id>
40

> <Delta U+W>
1.128

> <U+W>
-26.698

> <U>
25.442

> <W>
-52.140

> <W(PB)>
-54.658

> <W(SA)>
2.519

> <Valence>
4.343

> <Coulomb>
19.740

> <VdW>
1.360

> <VdW6>
-8.739

> <VdW12>
10.099

> <Bond>
0.251

> <Angle>
1.483

> <Pdih>
2.608

> <Idih>
0.000

> <Tether>
0.000

$$$$
VeraChem MOL file


 29 28  0  0  0  0  0  0  0  0999 V2000     
   23.6588   17.7476   22.0945 C   0  0  0  0  0  0  0  0  0  0  0  0
   23.7589   18.8360   22.0013 H   0  0  0  0  0  0  0  0  0  0  0  0
   23.9962   17.4551   23.0973 H   0  0  0  0  0  0  0  0  0  0  0  0
   24.3400   17.2910   21.3649 H   0  0  0  0  0  0  0  0  0  0  0  0
   22.2060   17.2854   21.8400 C   0  0  0  0  0  0  0  0  0  0  0  0
   22.1853   16.1868   21.8163 H   0  0  0  0  0  0  0  0  0  0  0  0
   21.8797   17.6203   20.8455 H   0  0  0  0  0  0  0  0  0  0  0  0
   21.2039   17.7761   22.9130 C   0  0  0  0  0  0  0  0  0  0  0  0
   20.2406   17.2859   22.7239 H   0  0  0  0  0  0  0  0  0  0  0  0
   21.5348   17.4386   23.9047 H   0  0  0  0  0  0  0  0  0  0  0  0
   21.0124   19.3143   22.9201 C   0  0  0  0  0  0  0  0  0  0  0  0
   20.6760   19.6515   21.9301 H   0  0  0  0  0  0  0  0  0  0  0  0
   21.9804   19.7998   23.0989 H   0  0  0  0  0  0  0  0  0  0  0  0
   20.0231   19.8129   24.0025 C   0  0  0  0  0  0  0  0  0  0  0  0
   20.3499   19.4585   24.9900 H   0  0  0  0  0  0  0  0  0  0  0  0
   20.0808   20.9088   24.0332 H   0  0  0  0  0  0  0  0  0  0  0  0
   18.5555   19.3805   23.7502 C   0  0  0  0  0  0  0  0  0  0  0  0
   18.4940   18.2855   23.7477 H   0  0  0  0  0  0  0  0  0  0  0  0
   18.2349   19.7162   22.7551 H   0  0  0  0  0  0  0  0  0  0  0  0
   17.5780   19.9177   24.8183 C   0  0  2  0  0  0  0  0  0  0  0  0
   17.9380   19.6021   25.8024 H   0  0  0  0  0  0  0  0  0  0  0  0
   16.1756   19.3258   24.6050 C   0  0  0  0  0  0  0  0  0  0  0  0
   15.4841   19.6760   25.3812 H   0  0  0  0  0  0  0  0  0  0  0  0
   15.7675   19.6140   23.6281 H   0  0  0  0  0  0  0  0  0  0  0  0
   16.2029   18.2300   24.6541 H   0  0  0  0  0  0  0  0  0  0  0  0
   17.5155   21.4206   24.8408 N   0  3  0  0  0  0  0  0  0  0  0  0
   17.1880   21.7936   23.9457 H   0  0  0  0  0  0  0  0  0  0  0  0
   18.4344   21.8305   25.0285 H   0  0  0  0  0  0  0  0  0  0  0  0
   16.8760   21.7575   25.5661 H   0  0  0  0  0  0  0  0  0  0  0  0
  1  2  1  0  0  0  0
  1  3  1  0  0  0  0
  1  4  1  0  0  0  0
  1  5  1  0  0  0  0
  5  6  1  0  0  0  0
  5  7  1  0  0  0  0
  5  8  1  0  0  0  0
  8  9  1  0  0  0  0
  8 10  1  0  0  0  0
  8 11  1  0  0  0  0
 11 12  1  0  0  0  0
 11 13  1  0  0  0  0
 11 14  1  0  0  0  0
 14 15  1  0  0  0  0
 14 16  1  0  0  0  0
 14 17  1  0  0  0  0
 17 18  1  0  0  0  0
 17 19  1  0  0  0  0
 17 20  1  0  0  0  0
 20 21  1  0  0  0  0
 20 22  1  0  0  0  0
 22 23  1  0  0  0  0
 22 24  1  0  0  0  0
 22 25  1  0  0  0  0
 20 26  1  0  0  0  0
 26 27  1  0  0  0  0
 26 28  1  0  0  0  0
 26 29  1  0  0  0  0
M  END
> <VConfSearch Rank>
545

> <Conf_Id>
134

> <Delta U+W>
1.228

> <U+W>
-26.598

> <U>
25.451

> <W>
-52.048

> <W(PB)>
-54.539

> <W(SA)>
2.490

> <Valence>
4.319

> <Coulomb>
19.732

> <VdW>
1.400

> <VdW6>
-9.173

> <VdW12>
10.573

> <Bond>
0.281

> <Angle>
1.459

> <Pdih>
2.580

> <Idih>
0.000

> <Tether>
0.000

$$$$
VeraChem MOL file


 29 28  0  0  0  0  0  0  0  0999 V2000     
   24.0031   19.4560   24.4038 C   0  0  0  0  0  0  0  0  0  0  0  0
   23.6875   20.4850   24.6157 H   0  0  0  0  0  0  0  0  0  0  0  0
   23.8843   18.8635   25.3202 H   0  0  0  0  0  0  0  0  0  0  0  0
   25.0727   19.4839   24.1586 H   0  0  0  0  0  0  0  0  0  0  0  0
   23.1971   18.8422   23.2366 C   0  0  0  0  0  0  0  0  0  0  0  0
   23.6350   17.8672   22.9806 H   0  0  0  0  0  0  0  0  0  0  0  0
   23.3037   19.4713   22.3418 H   0  0  0  0  0  0  0  0  0  0  0  0
   21.6967   18.6413   23.5599 C   0  0  0  0  0  0  0  0  0  0  0  0
   21.2440   18.0812   22.7318 H   0  0  0  0  0  0  0  0  0  0  0  0
   21.5956   18.0103   24.4536 H   0  0  0  0  0  0  0  0  0  0  0  0
   20.9274   19.9706   23.7679 C   0  0  0  0  0  0  0  0  0  0  0  0
   21.0274   20.6008   22.8735 H   0  0  0  0  0  0  0  0  0  0  0  0
   21.3837   20.5316   24.5936 H   0  0  0  0  0  0  0  0  0  0  0  0
   19.4276   19.7703   24.0975 C   0  0  0  0  0  0  0  0  0  0  0  0
   19.3388   19.1527   25.0010 H   0  0  0  0  0  0  0  0  0  0  0  0
   18.9927   20.7485   24.3453 H   0  0  0  0  0  0  0  0  0  0  0  0
   18.6174   19.1396   22.9355 C   0  0  0  0  0  0  0  0  0  0  0  0
   18.9401   18.1044   22.7680 H   0  0  0  0  0  0  0  0  0  0  0  0
   18.8406   19.6914   22.0128 H   0  0  0  0  0  0  0  0  0  0  0  0
   17.0889   19.1648   23.1636 C   0  0  2  0  0  0  0  0  0  0  0  0
   16.7886   20.1981   23.3630 H   0  0  0  0  0  0  0  0  0  0  0  0
   16.6684   18.2953   24.3620 C   0  0  0  0  0  0  0  0  0  0  0  0
   17.0005   17.2573   24.2350 H   0  0  0  0  0  0  0  0  0  0  0  0
   17.0885   18.6785   25.2992 H   0  0  0  0  0  0  0  0  0  0  0  0
   15.5771   18.2921   24.4730 H   0  0  0  0  0  0  0  0  0  0  0  0
   16.3484   18.7393   21.9263 N   0  3  0  0  0  0  0  0  0  0  0  0
   16.5810   19.3329   21.1248 H   0  0  0  0  0  0  0  0  0  0  0  0
   15.3346   18.7926   22.0605 H   0  0  0  0  0  0  0  0  0  0  0  0
   16.5722   17.7740   21.6697 H   0  0  0  0  0  0  0  0  0  0  0  0
  1  2  1  0  0  0  0
  1  3  1  0  0  0  0
  1  4  1  0  0  0  0
  1  5  1  0  0  0  0
  5  6  1  0  0  0  0
  5  7  1  0  0  0  0
  5  8  1  0  0  0  0
  8  9  1  0  0  0  0
  8 10  1  0  0  0  0
  8 11  1  0  0  0  0
 11 12  1  0  0  0  0
 11 13  1  0  0  0  0
 11 14  1  0  0  0  0
 14 15  1  0  0  0  0
 14 16  1  0  0  0  0
 14 17  1  0  0  0  0
 17 18  1  0  0  0  0
 17 19  1  0  0  0  0
 17 20  1  0  0  0  0
 20 21  1  0  0  0  0
 20 22  1  0  0  0  0
 22 23  1  0  0  0  0
 22 24  1  0  0  0  0
 22 25  1  0  0  0  0
 20 26  1  0  0  0  0
 26 27  1  0  0  0  0
 26 28  1  0  0  0  0
 26 29  1  0  0  0  0
M  END
> <VConfSearch Rank>
546

> <Conf_Id>
73

> <Delta U+W>
1.580

> <U+W>
-26.246

> <U>
25.821

> <W>
-52.067

> <W(PB)>
-54.581

> <W(SA)>
2.514

> <Valence>
4.779

> <Coulomb>
19.614

> <VdW>
1.428

> <VdW6>
-9.390

> <VdW12>
10.818

> <Bond>
0.283

> <Angle>
1.640

> <Pdih>
2.856

> <Idih>
0.000

> <Tether>
0.000

$$$$
VeraChem MOL file


 29 28  0  0  0  0  0  0  0  0999 V2000     
   17.1893   16.5930   26.1134 C   0  0  0  0  0  0  0  0  0  0  0  0
   18.0541   15.9171   26.0907 H   0  0  0  0  0  0  0  0  0  0  0  0
   16.6622   16.4341   27.0632 H   0  0  0  0  0  0  0  0  0  0  0  0
   16.5104   16.3072   25.2993 H   0  0  0  0  0  0  0  0  0  0  0  0
   17.6318   18.0651   25.9755 C   0  0  0  0  0  0  0  0  0  0  0  0
   18.2825   18.3310   26.8203 H   0  0  0  0  0  0  0  0  0  0  0  0
   16.7497   18.7177   26.0368 H   0  0  0  0  0  0  0  0  0  0  0  0
   18.3760   18.3164   24.6454 C   0  0  0  0  0  0  0  0  0  0  0  0
   19.2478   17.6514   24.5934 H   0  0  0  0  0  0  0  0  0  0  0  0
   17.7207   18.0516   23.8041 H   0  0  0  0  0  0  0  0  0  0  0  0
   18.8243   19.7914   24.5086 C   0  0  0  0  0  0  0  0  0  0  0  0
   19.5269   20.0421   25.3154 H   0  0  0  0  0  0  0  0  0  0  0  0
   17.9507   20.4432   24.6476 H   0  0  0  0  0  0  0  0  0  0  0  0
   19.4672   20.1223   23.1391 C   0  0  0  0  0  0  0  0  0  0  0  0
   18.7627   19.8741   22.3332 H   0  0  0  0  0  0  0  0  0  0  0  0
   19.6216   21.2082   23.0911 H   0  0  0  0  0  0  0  0  0  0  0  0
   20.8155   19.3962   22.8965 C   0  0  0  0  0  0  0  0  0  0  0  0
   20.6529   18.3116   22.9194 H   0  0  0  0  0  0  0  0  0  0  0  0
   21.5143   19.6273   23.7114 H   0  0  0  0  0  0  0  0  0  0  0  0
   21.4602   19.7612   21.5415 C   0  0  2  0  0  0  0  0  0  0  0  0
   20.7331   19.5569   20.7495 H   0  0  0  0  0  0  0  0  0  0  0  0
   22.7037   18.8933   21.2904 C   0  0  0  0  0  0  0  0  0  0  0  0
   22.4430   17.8275   21.2948 H   0  0  0  0  0  0  0  0  0  0  0  0
   23.1468   19.1230   20.3136 H   0  0  0  0  0  0  0  0  0  0  0  0
   23.4672   19.0615   22.0603 H   0  0  0  0  0  0  0  0  0  0  0  0
   21.8102   21.2210   21.4428 N   0  3  0  0  0  0  0  0  0  0  0  0
   22.2200   21.4466   20.5319 H   0  0  0  0  0  0  0  0  0  0  0  0
   22.4889   21.4910   22.1598 H   0  0  0  0  0  0  0  0  0  0  0  0
   20.9836   21.8128   21.5616 H   0  0  0  0  0  0  0  0  0  0  0  0
  1  2  1  0  0  0  0
  1  3  1  0  0  0  0
  1  4  1  0  0  0  0
  1  5  1  0  0  0  0
  5  6  1  0  0  0  0
  5  7  1  0  0  0  0
  5  8  1  0  0  0  0
  8  9  1  0  0  0  0
  8 10  1  0  0  0  0
  8 11  1  0  0  0  0
 11 12  1  0  0  0  0
 11 13  1  0  0  0  0
 11 14  1  0  0  0  0
 14 15  1  0  0  0  0
 14 16  1  0  0  0  0
 14 17  1  0  0  0  0
 17 18  1  0  0  0  0
 17 19  1  0  0  0  0
 17 20  1  0  0  0  0
 20 21  1  0  0  0  0
 20 22  1  0  0  0  0
 22 23  1  0  0  0  0
 22 24  1  0  0  0  0
 22 25  1  0  0  0  0
 20 26  1  0  0  0  0
 26 27  1  0  0  0  0
 26 28  1  0  0  0  0
 26 29  1  0  0  0  0
M  END
> <VConfSearch Rank>
547

> <Conf_Id>
111

> <Delta U+W>
0.580

> <U+W>
-27.246

> <U>
24.710

> <W>
-51.957

> <W(PB)>
-54.511

> <W(SA)>
2.555

> <Valence>
3.735

> <Coulomb>
19.760

> <VdW>
1.216

> <VdW6>
-8.624

> <VdW12>
9.840

> <Bond>
0.236

> <Angle>
1.168

> <Pdih>
2.330

> <Idih>
0.000

> <Tether>
0.000

$$$$
VeraChem MOL file


 29 28  0  0  0  0  0  0  0  0999 V2000     
   21.4364   17.5322   19.8141 C   0  0  0  0  0  0  0  0  0  0  0  0
   21.6515   16.5589   20.2741 H   0  0  0  0  0  0  0  0  0  0  0  0
   20.3818   17.5409   19.5093 H   0  0  0  0  0  0  0  0  0  0  0  0
   22.0499   17.6198   18.9080 H   0  0  0  0  0  0  0  0  0  0  0  0
   21.7408   18.6869   20.7918 C   0  0  0  0  0  0  0  0  0  0  0  0
   21.5479   19.6473   20.2934 H   0  0  0  0  0  0  0  0  0  0  0  0
   22.8088   18.6729   21.0508 H   0  0  0  0  0  0  0  0  0  0  0  0
   20.8904   18.5870   22.0774 C   0  0  0  0  0  0  0  0  0  0  0  0
   19.8270   18.5930   21.8045 H   0  0  0  0  0  0  0  0  0  0  0  0
   21.0880   17.6264   22.5730 H   0  0  0  0  0  0  0  0  0  0  0  0
   21.1919   19.7466   23.0568 C   0  0  0  0  0  0  0  0  0  0  0  0
   20.9458   20.7063   22.5818 H   0  0  0  0  0  0  0  0  0  0  0  0
   22.2713   19.7715   23.2609 H   0  0  0  0  0  0  0  0  0  0  0  0
   20.4404   19.6267   24.4053 C   0  0  0  0  0  0  0  0  0  0  0  0
   20.7174   18.6794   24.8865 H   0  0  0  0  0  0  0  0  0  0  0  0
   20.7893   20.4280   25.0714 H   0  0  0  0  0  0  0  0  0  0  0  0
   18.8996   19.7242   24.2624 C   0  0  0  0  0  0  0  0  0  0  0  0
   18.5157   18.8535   23.7156 H   0  0  0  0  0  0  0  0  0  0  0  0
   18.6593   20.6069   23.6553 H   0  0  0  0  0  0  0  0  0  0  0  0
   18.1598   19.8432   25.6142 C   0  0  2  0  0  0  0  0  0  0  0  0
   18.5785   20.6938   26.1608 H   0  0  0  0  0  0  0  0  0  0  0  0
   18.3254   18.5798   26.4776 C   0  0  0  0  0  0  0  0  0  0  0  0
   17.9725   17.6870   25.9464 H   0  0  0  0  0  0  0  0  0  0  0  0
   19.3737   18.4222   26.7563 H   0  0  0  0  0  0  0  0  0  0  0  0
   17.7523   18.6703   27.4086 H   0  0  0  0  0  0  0  0  0  0  0  0
   16.7015   20.1467   25.4099 N   0  3  0  0  0  0  0  0  0  0  0  0
   16.5673   21.0087   24.8734 H   0  0  0  0  0  0  0  0  0  0  0  0
   16.2157   20.2656   26.3035 H   0  0  0  0  0  0  0  0  0  0  0  0
   16.2297   19.3924   24.9038 H   0  0  0  0  0  0  0  0  0  0  0  0
  1  2  1  0  0  0  0
  1  3  1  0  0  0  0
  1  4  1  0  0  0  0
  1  5  1  0  0  0  0
  5  6  1  0  0  0  0
  5  7  1  0  0  0  0
  5  8  1  0  0  0  0
  8  9  1  0  0  0  0
  8 10  1  0  0  0  0
  8 11  1  0  0  0  0
 11 12  1  0  0  0  0
 11 13  1  0  0  0  0
 11 14  1  0  0  0  0
 14 15  1  0  0  0  0
 14 16  1  0  0  0  0
 14 17  1  0  0  0  0
 17 18  1  0  0  0  0
 17 19  1  0  0  0  0
 17 20  1  0  0  0  0
 20 21  1  0  0  0  0
 20 22  1  0  0  0  0
 22 23  1  0  0  0  0
 22 24  1  0  0  0  0
 22 25  1  0  0  0  0
 20 26  1  0  0  0  0
 26 27  1  0  0  0  0
 26 28  1  0  0  0  0
 26 29  1  0  0  0  0
M  END
> <VConfSearch Rank>
548

> <Conf_Id>
39

> <Delta U+W>
0.965

> <U+W>
-26.861

> <U>
25.129

> <W>
-51.990

> <W(PB)>
-54.526

> <W(SA)>
2.536

> <Valence>
4.206

> <Coulomb>
19.678

> <VdW>
1.245

> <VdW6>
-8.834

> <VdW12>
10.079

> <Bond>
0.240

> <Angle>
1.353

> <Pdih>
2.613

> <Idih>
0.000

> <Tether>
0.000

$$$$
VeraChem MOL file


 29 28  0  0  0  0  0  0  0  0999 V2000     
   23.0051   19.5207   20.8045 C   0  0  0  0  0  0  0  0  0  0  0  0
   23.4694   18.6075   21.1987 H   0  0  0  0  0  0  0  0  0  0  0  0
   22.1815   19.2296   20.1411 H   0  0  0  0  0  0  0  0  0  0  0  0
   23.7533   20.0399   20.1917 H   0  0  0  0  0  0  0  0  0  0  0  0
   22.5169   20.4354   21.9508 C   0  0  0  0  0  0  0  0  0  0  0  0
   22.0253   21.3243   21.5315 H   0  0  0  0  0  0  0  0  0  0  0  0
   23.3918   20.8014   22.5061 H   0  0  0  0  0  0  0  0  0  0  0  0
   21.5621   19.7276   22.9425 C   0  0  0  0  0  0  0  0  0  0  0  0
   22.0584   18.8405   23.3593 H   0  0  0  0  0  0  0  0  0  0  0  0
   21.3845   20.4083   23.7847 H   0  0  0  0  0  0  0  0  0  0  0  0
   20.2069   19.3207   22.3097 C   0  0  0  0  0  0  0  0  0  0  0  0
   20.3881   18.6466   21.4627 H   0  0  0  0  0  0  0  0  0  0  0  0
   19.7085   20.2084   21.8969 H   0  0  0  0  0  0  0  0  0  0  0  0
   19.2540   18.6014   23.2961 C   0  0  0  0  0  0  0  0  0  0  0  0
   18.3907   18.2328   22.7271 H   0  0  0  0  0  0  0  0  0  0  0  0
   19.7599   17.7150   23.7012 H   0  0  0  0  0  0  0  0  0  0  0  0
   18.7601   19.5118   24.4537 C   0  0  0  0  0  0  0  0  0  0  0  0
   18.3602   20.4445   24.0349 H   0  0  0  0  0  0  0  0  0  0  0  0
   19.6089   19.8014   25.0853 H   0  0  0  0  0  0  0  0  0  0  0  0
   17.6783   18.8787   25.3603 C   0  0  2  0  0  0  0  0  0  0  0  0
   17.4165   19.6208   26.1209 H   0  0  0  0  0  0  0  0  0  0  0  0
   18.1966   17.6270   26.0897 C   0  0  0  0  0  0  0  0  0  0  0  0
   18.3929   16.8039   25.3923 H   0  0  0  0  0  0  0  0  0  0  0  0
   19.1247   17.8478   26.6314 H   0  0  0  0  0  0  0  0  0  0  0  0
   17.4590   17.2769   26.8222 H   0  0  0  0  0  0  0  0  0  0  0  0
   16.4061   18.5803   24.6157 N   0  3  0  0  0  0  0  0  0  0  0  0
   16.0312   19.4185   24.1624 H   0  0  0  0  0  0  0  0  0  0  0  0
   15.6809   18.2211   25.2432 H   0  0  0  0  0  0  0  0  0  0  0  0
   16.5578   17.8776   23.8879 H   0  0  0  0  0  0  0  0  0  0  0  0
  1  2  1  0  0  0  0
  1  3  1  0  0  0  0
  1  4  1  0  0  0  0
  1  5  1  0  0  0  0
  5  6  1  0  0  0  0
  5  7  1  0  0  0  0
  5  8  1  0  0  0  0
  8  9  1  0  0  0  0
  8 10  1  0  0  0  0
  8 11  1  0  0  0  0
 11 12  1  0  0  0  0
 11 13  1  0  0  0  0
 11 14  1  0  0  0  0
 14 15  1  0  0  0  0
 14 16  1  0  0  0  0
 14 17  1  0  0  0  0
 17 18  1  0  0  0  0
 17 19  1  0  0  0  0
 17 20  1  0  0  0  0
 20 21  1  0  0  0  0
 20 22  1  0  0  0  0
 22 23  1  0  0  0  0
 22 24  1  0  0  0  0
 22 25  1  0  0  0  0
 20 26  1  0  0  0  0
 26 27  1  0  0  0  0
 26 28  1  0  0  0  0
 26 29  1  0  0  0  0
M  END
> <VConfSearch Rank>
549

> <Conf_Id>
155

> <Delta U+W>
1.624

> <U+W>
-26.202

> <U>
25.894

> <W>
-52.096

> <W(PB)>
-54.602

> <W(SA)>
2.506

> <Valence>
4.779

> <Coulomb>
19.659

> <VdW>
1.456

> <VdW6>
-9.843

> <VdW12>
11.299

> <Bond>
0.315

> <Angle>
1.725

> <Pdih>
2.740

> <Idih>
0.000

> <Tether>
0.000

$$$$
VeraChem MOL file


 29 28  0  0  0  0  0  0  0  0999 V2000     
   19.9437   19.9096   27.5108 C   0  0  0  0  0  0  0  0  0  0  0  0
   18.9361   20.2367   27.2255 H   0  0  0  0  0  0  0  0  0  0  0  0
   19.9581   18.8120   27.5252 H   0  0  0  0  0  0  0  0  0  0  0  0
   20.1278   20.2614   28.5342 H   0  0  0  0  0  0  0  0  0  0  0  0
   21.0150   20.4667   26.5462 C   0  0  0  0  0  0  0  0  0  0  0  0
   22.0104   20.2115   26.9359 H   0  0  0  0  0  0  0  0  0  0  0  0
   20.9631   21.5643   26.5305 H   0  0  0  0  0  0  0  0  0  0  0  0
   20.8884   19.9155   25.1056 C   0  0  0  0  0  0  0  0  0  0  0  0
   21.7406   20.2807   24.5160 H   0  0  0  0  0  0  0  0  0  0  0  0
   20.9743   18.8215   25.1332 H   0  0  0  0  0  0  0  0  0  0  0  0
   19.5705   20.3313   24.4043 C   0  0  0  0  0  0  0  0  0  0  0  0
   19.4393   21.4172   24.5083 H   0  0  0  0  0  0  0  0  0  0  0  0
   18.7126   19.8662   24.9076 H   0  0  0  0  0  0  0  0  0  0  0  0
   19.5307   19.9762   22.8973 C   0  0  0  0  0  0  0  0  0  0  0  0
   18.6279   20.4303   22.4693 H   0  0  0  0  0  0  0  0  0  0  0  0
   20.3843   20.4430   22.3866 H   0  0  0  0  0  0  0  0  0  0  0  0
   19.5266   18.4499   22.6219 C   0  0  0  0  0  0  0  0  0  0  0  0
   18.6668   17.9852   23.1224 H   0  0  0  0  0  0  0  0  0  0  0  0
   20.4246   18.0045   23.0667 H   0  0  0  0  0  0  0  0  0  0  0  0
   19.5107   18.0885   21.1187 C   0  0  2  0  0  0  0  0  0  0  0  0
   20.3395   18.6109   20.6311 H   0  0  0  0  0  0  0  0  0  0  0  0
   18.1981   18.5072   20.4319 C   0  0  0  0  0  0  0  0  0  0  0  0
   17.3291   18.0605   20.9310 H   0  0  0  0  0  0  0  0  0  0  0  0
   18.0745   19.5961   20.4347 H   0  0  0  0  0  0  0  0  0  0  0  0
   18.1909   18.1842   19.3836 H   0  0  0  0  0  0  0  0  0  0  0  0
   19.7564   16.6195   20.9128 N   0  3  0  0  0  0  0  0  0  0  0  0
   20.6476   16.3250   21.3224 H   0  0  0  0  0  0  0  0  0  0  0  0
   19.7855   16.3814   19.9172 H   0  0  0  0  0  0  0  0  0  0  0  0
   19.0187   16.0535   21.3407 H   0  0  0  0  0  0  0  0  0  0  0  0
  1  2  1  0  0  0  0
  1  3  1  0  0  0  0
  1  4  1  0  0  0  0
  1  5  1  0  0  0  0
  5  6  1  0  0  0  0
  5  7  1  0  0  0  0
  5  8  1  0  0  0  0
  8  9  1  0  0  0  0
  8 10  1  0  0  0  0
  8 11  1  0  0  0  0
 11 12  1  0  0  0  0
 11 13  1  0  0  0  0
 11 14  1  0  0  0  0
 14 15  1  0  0  0  0
 14 16  1  0  0  0  0
 14 17  1  0  0  0  0
 17 18  1  0  0  0  0
 17 19  1  0  0  0  0
 17 20  1  0  0  0  0
 20 21  1  0  0  0  0
 20 22  1  0  0  0  0
 22 23  1  0  0  0  0
 22 24  1  0  0  0  0
 22 25  1  0  0  0  0
 20 26  1  0  0  0  0
 26 27  1  0  0  0  0
 26 28  1  0  0  0  0
 26 29  1  0  0  0  0
M  END
> <VConfSearch Rank>
550

> <Conf_Id>
135

> <Delta U+W>
1.581

> <U+W>
-26.245

> <U>
25.974

> <W>
-52.219

> <W(PB)>
-54.709

> <W(SA)>
2.490

> <Valence>
4.811

> <Coulomb>
19.700

> <VdW>
1.463

> <VdW6>
-9.391

> <VdW12>
10.854

> <Bond>
0.285

> <Angle>
1.671

> <Pdih>
2.855

> <Idih>
0.000

> <Tether>
0.000

$$$$
VeraChem MOL file


 29 28  0  0  0  0  0  0  0  0999 V2000     
   17.7797   20.7875   26.6780 C   0  0  0  0  0  0  0  0  0  0  0  0
   17.1347   19.9271   26.4574 H   0  0  0  0  0  0  0  0  0  0  0  0
   18.6908   20.4187   27.1653 H   0  0  0  0  0  0  0  0  0  0  0  0
   17.2539   21.4251   27.4004 H   0  0  0  0  0  0  0  0  0  0  0  0
   18.1058   21.5813   25.3927 C   0  0  0  0  0  0  0  0  0  0  0  0
   18.7727   22.4203   25.6357 H   0  0  0  0  0  0  0  0  0  0  0  0
   17.1786   22.0274   25.0065 H   0  0  0  0  0  0  0  0  0  0  0  0
   18.7406   20.7128   24.2802 C   0  0  0  0  0  0  0  0  0  0  0  0
   18.0523   19.8961   24.0260 H   0  0  0  0  0  0  0  0  0  0  0  0
   18.8443   21.3261   23.3746 H   0  0  0  0  0  0  0  0  0  0  0  0
   20.1277   20.1397   24.6658 C   0  0  0  0  0  0  0  0  0  0  0  0
   20.0241   19.4301   25.4972 H   0  0  0  0  0  0  0  0  0  0  0  0
   20.7639   20.9568   25.0328 H   0  0  0  0  0  0  0  0  0  0  0  0
   20.8524   19.4425   23.4885 C   0  0  0  0  0  0  0  0  0  0  0  0
   20.9909   20.1659   22.6742 H   0  0  0  0  0  0  0  0  0  0  0  0
   21.8585   19.1516   23.8210 H   0  0  0  0  0  0  0  0  0  0  0  0
   20.1087   18.1857   22.9679 C   0  0  0  0  0  0  0  0  0  0  0  0
   19.1552   18.4755   22.5082 H   0  0  0  0  0  0  0  0  0  0  0  0
   19.8618   17.5451   23.8248 H   0  0  0  0  0  0  0  0  0  0  0  0
   20.9309   17.3555   21.9562 C   0  0  2  0  0  0  0  0  0  0  0  0
   21.8915   17.1060   22.4173 H   0  0  0  0  0  0  0  0  0  0  0  0
   21.2018   18.1319   20.6552 C   0  0  0  0  0  0  0  0  0  0  0  0
   20.2655   18.4568   20.1846 H   0  0  0  0  0  0  0  0  0  0  0  0
   21.8188   19.0186   20.8413 H   0  0  0  0  0  0  0  0  0  0  0  0
   21.7438   17.5046   19.9367 H   0  0  0  0  0  0  0  0  0  0  0  0
   20.2548   16.0478   21.6508 N   0  3  0  0  0  0  0  0  0  0  0  0
   20.8156   15.4774   21.0115 H   0  0  0  0  0  0  0  0  0  0  0  0
   19.3421   16.1924   21.2105 H   0  0  0  0  0  0  0  0  0  0  0  0
   20.1034   15.4944   22.4992 H   0  0  0  0  0  0  0  0  0  0  0  0
  1  2  1  0  0  0  0
  1  3  1  0  0  0  0
  1  4  1  0  0  0  0
  1  5  1  0  0  0  0
  5  6  1  0  0  0  0
  5  7  1  0  0  0  0
  5  8  1  0  0  0  0
  8  9  1  0  0  0  0
  8 10  1  0  0  0  0
  8 11  1  0  0  0  0
 11 12  1  0  0  0  0
 11 13  1  0  0  0  0
 11 14  1  0  0  0  0
 14 15  1  0  0  0  0
 14 16  1  0  0  0  0
 14 17  1  0  0  0  0
 17 18  1  0  0  0  0
 17 19  1  0  0  0  0
 17 20  1  0  0  0  0
 20 21  1  0  0  0  0
 20 22  1  0  0  0  0
 22 23  1  0  0  0  0
 22 24  1  0  0  0  0
 22 25  1  0  0  0  0
 20 26  1  0  0  0  0
 26 27  1  0  0  0  0
 26 28  1  0  0  0  0
 26 29  1  0  0  0  0
M  END
> <VConfSearch Rank>
551

> <Conf_Id>
130

> <Delta U+W>
1.359

> <U+W>
-26.467

> <U>
25.687

> <W>
-52.154

> <W(PB)>
-54.643

> <W(SA)>
2.489

> <Valence>
4.682

> <Coulomb>
19.653

> <VdW>
1.352

> <VdW6>
-9.477

> <VdW12>
10.829

> <Bond>
0.274

> <Angle>
1.550

> <Pdih>
2.858

> <Idih>
0.000

> <Tether>
0.000

$$$$
VeraChem MOL file


 29 28  0  0  0  0  0  0  0  0999 V2000     
   16.4440   16.7044   23.5038 C   0  0  0  0  0  0  0  0  0  0  0  0
   15.4168   16.6022   23.1306 H   0  0  0  0  0  0  0  0  0  0  0  0
   16.8056   15.7027   23.7702 H   0  0  0  0  0  0  0  0  0  0  0  0
   16.4035   17.3103   24.4174 H   0  0  0  0  0  0  0  0  0  0  0  0
   17.3468   17.3539   22.4307 C   0  0  0  0  0  0  0  0  0  0  0  0
   16.9841   18.3667   22.2062 H   0  0  0  0  0  0  0  0  0  0  0  0
   17.2548   16.7807   21.4976 H   0  0  0  0  0  0  0  0  0  0  0  0
   18.8405   17.4103   22.8326 C   0  0  0  0  0  0  0  0  0  0  0  0
   19.2020   16.3934   23.0380 H   0  0  0  0  0  0  0  0  0  0  0  0
   19.4133   17.7701   21.9687 H   0  0  0  0  0  0  0  0  0  0  0  0
   19.1140   18.3179   24.0593 C   0  0  0  0  0  0  0  0  0  0  0  0
   18.5894   17.9077   24.9320 H   0  0  0  0  0  0  0  0  0  0  0  0
   18.6882   19.3132   23.8840 H   0  0  0  0  0  0  0  0  0  0  0  0
   20.6202   18.4257   24.4130 C   0  0  0  0  0  0  0  0  0  0  0  0
   20.7310   18.8185   25.4332 H   0  0  0  0  0  0  0  0  0  0  0  0
   21.0416   17.4114   24.4437 H   0  0  0  0  0  0  0  0  0  0  0  0
   21.4590   19.2921   23.4329 C   0  0  0  0  0  0  0  0  0  0  0  0
   21.0141   19.2935   22.4307 H   0  0  0  0  0  0  0  0  0  0  0  0
   22.4415   18.8146   23.3225 H   0  0  0  0  0  0  0  0  0  0  0  0
   21.6980   20.7473   23.9017 C   0  0  2  0  0  0  0  0  0  0  0  0
   22.1786   20.7142   24.8843 H   0  0  0  0  0  0  0  0  0  0  0  0
   20.3935   21.5515   24.0316 C   0  0  0  0  0  0  0  0  0  0  0  0
   19.7587   21.1454   24.8275 H   0  0  0  0  0  0  0  0  0  0  0  0
   20.6068   22.5960   24.2904 H   0  0  0  0  0  0  0  0  0  0  0  0
   19.8254   21.5419   23.0931 H   0  0  0  0  0  0  0  0  0  0  0  0
   22.6568   21.4578   22.9872 N   0  3  0  0  0  0  0  0  0  0  0  0
   23.5519   20.9644   22.9221 H   0  0  0  0  0  0  0  0  0  0  0  0
   22.8554   22.4064   23.3179 H   0  0  0  0  0  0  0  0  0  0  0  0
   22.2795   21.5376   22.0391 H   0  0  0  0  0  0  0  0  0  0  0  0
  1  2  1  0  0  0  0
  1  3  1  0  0  0  0
  1  4  1  0  0  0  0
  1  5  1  0  0  0  0
  5  6  1  0  0  0  0
  5  7  1  0  0  0  0
  5  8  1  0  0  0  0
  8  9  1  0  0  0  0
  8 10  1  0  0  0  0
  8 11  1  0  0  0  0
 11 12  1  0  0  0  0
 11 13  1  0  0  0  0
 11 14  1  0  0  0  0
 14 15  1  0  0  0  0
 14 16  1  0  0  0  0
 14 17  1  0  0  0  0
 17 18  1  0  0  0  0
 17 19  1  0  0  0  0
 17 20  1  0  0  0  0
 20 21  1  0  0  0  0
 20 22  1  0  0  0  0
 22 23  1  0  0  0  0
 22 24  1  0  0  0  0
 22 25  1  0  0  0  0
 20 26  1  0  0  0  0
 26 27  1  0  0  0  0
 26 28  1  0  0  0  0
 26 29  1  0  0  0  0
M  END
> <VConfSearch Rank>
552

> <Conf_Id>
157

> <Delta U+W>
4.354

> <U+W>
-23.472

> <U>
28.780

> <W>
-52.252

> <W(PB)>
-54.715

> <W(SA)>
2.462

> <Valence>
7.566

> <Coulomb>
19.822

> <VdW>
1.392

> <VdW6>
-10.248

> <VdW12>
11.641

> <Bond>
0.340

> <Angle>
2.096

> <Pdih>
5.129

> <Idih>
0.000

> <Tether>
0.000

$$$$
VeraChem MOL file


 29 28  0  0  0  0  0  0  0  0999 V2000     
   16.4212   18.9006   21.9031 C   0  0  0  0  0  0  0  0  0  0  0  0
   15.4714   19.4334   21.7661 H   0  0  0  0  0  0  0  0  0  0  0  0
   17.2303   19.5899   21.6376 H   0  0  0  0  0  0  0  0  0  0  0  0
   16.4409   18.0666   21.1896 H   0  0  0  0  0  0  0  0  0  0  0  0
   16.5479   18.3859   23.3560 C   0  0  0  0  0  0  0  0  0  0  0  0
   15.6973   17.7186   23.5539 H   0  0  0  0  0  0  0  0  0  0  0  0
   16.4502   19.2184   24.0665 H   0  0  0  0  0  0  0  0  0  0  0  0
   17.8608   17.6041   23.6181 C   0  0  0  0  0  0  0  0  0  0  0  0
   17.6355   16.7809   24.3103 H   0  0  0  0  0  0  0  0  0  0  0  0
   18.2088   17.1246   22.6929 H   0  0  0  0  0  0  0  0  0  0  0  0
   19.0044   18.4412   24.2472 C   0  0  0  0  0  0  0  0  0  0  0  0
   19.8427   17.7624   24.4502 H   0  0  0  0  0  0  0  0  0  0  0  0
   18.6790   18.8258   25.2235 H   0  0  0  0  0  0  0  0  0  0  0  0
   19.4890   19.6197   23.3671 C   0  0  0  0  0  0  0  0  0  0  0  0
   19.7365   19.2578   22.3605 H   0  0  0  0  0  0  0  0  0  0  0  0
   18.6682   20.3378   23.2449 H   0  0  0  0  0  0  0  0  0  0  0  0
   20.6969   20.3806   23.9722 C   0  0  0  0  0  0  0  0  0  0  0  0
   20.3990   20.8027   24.9413 H   0  0  0  0  0  0  0  0  0  0  0  0
   20.9380   21.2359   23.3270 H   0  0  0  0  0  0  0  0  0  0  0  0
   21.9640   19.5178   24.1669 C   0  0  2  0  0  0  0  0  0  0  0  0
   21.7183   18.6883   24.8363 H   0  0  0  0  0  0  0  0  0  0  0  0
   23.0793   20.3466   24.8235 C   0  0  0  0  0  0  0  0  0  0  0  0
   23.3718   21.1925   24.1887 H   0  0  0  0  0  0  0  0  0  0  0  0
   22.7506   20.7438   25.7920 H   0  0  0  0  0  0  0  0  0  0  0  0
   23.9684   19.7292   25.0013 H   0  0  0  0  0  0  0  0  0  0  0  0
   22.4456   18.9071   22.8797 N   0  3  0  0  0  0  0  0  0  0  0  0
   21.7219   18.3213   22.4541 H   0  0  0  0  0  0  0  0  0  0  0  0
   23.2702   18.3186   23.0294 H   0  0  0  0  0  0  0  0  0  0  0  0
   22.7012   19.6269   22.1986 H   0  0  0  0  0  0  0  0  0  0  0  0
  1  2  1  0  0  0  0
  1  3  1  0  0  0  0
  1  4  1  0  0  0  0
  1  5  1  0  0  0  0
  5  6  1  0  0  0  0
  5  7  1  0  0  0  0
  5  8  1  0  0  0  0
  8  9  1  0  0  0  0
  8 10  1  0  0  0  0
  8 11  1  0  0  0  0
 11 12  1  0  0  0  0
 11 13  1  0  0  0  0
 11 14  1  0  0  0  0
 14 15  1  0  0  0  0
 14 16  1  0  0  0  0
 14 17  1  0  0  0  0
 17 18  1  0  0  0  0
 17 19  1  0  0  0  0
 17 20  1  0  0  0  0
 20 21  1  0  0  0  0
 20 22  1  0  0  0  0
 22 23  1  0  0  0  0
 22 24  1  0  0  0  0
 22 25  1  0  0  0  0
 20 26  1  0  0  0  0
 26 27  1  0  0  0  0
 26 28  1  0  0  0  0
 26 29  1  0  0  0  0
M  END
> <VConfSearch Rank>
553

> <Conf_Id>
158

> <Delta U+W>
3.648

> <U+W>
-24.178

> <U>
28.057

> <W>
-52.235

> <W(PB)>
-54.696

> <W(SA)>
2.460

> <Valence>
6.543

> <Coulomb>
20.387

> <VdW>
1.127

> <VdW6>
-10.342

> <VdW12>
11.469

> <Bond>
0.308

> <Angle>
1.938

> <Pdih>
4.297

> <Idih>
0.000

> <Tether>
0.000

$$$$
VeraChem MOL file


 29 28  0  0  0  0  0  0  0  0999 V2000     
   21.8859   15.9700   23.1857 C   0  0  0  0  0  0  0  0  0  0  0  0
   22.6863   16.4955   23.7225 H   0  0  0  0  0  0  0  0  0  0  0  0
   20.9815   15.9942   23.8061 H   0  0  0  0  0  0  0  0  0  0  0  0
   22.1856   14.9192   23.0811 H   0  0  0  0  0  0  0  0  0  0  0  0
   21.6397   16.6026   21.7972 C   0  0  0  0  0  0  0  0  0  0  0  0
   20.8139   16.0805   21.2941 H   0  0  0  0  0  0  0  0  0  0  0  0
   22.5300   16.4430   21.1729 H   0  0  0  0  0  0  0  0  0  0  0  0
   21.3411   18.1200   21.8565 C   0  0  0  0  0  0  0  0  0  0  0  0
   22.1776   18.6392   22.3441 H   0  0  0  0  0  0  0  0  0  0  0  0
   21.2938   18.5067   20.8291 H   0  0  0  0  0  0  0  0  0  0  0  0
   20.0196   18.4603   22.5860 C   0  0  0  0  0  0  0  0  0  0  0  0
   20.0771   18.1265   23.6278 H   0  0  0  0  0  0  0  0  0  0  0  0
   19.1940   17.9026   22.1228 H   0  0  0  0  0  0  0  0  0  0  0  0
   19.7092   19.9763   22.5295 C   0  0  0  0  0  0  0  0  0  0  0  0
   20.5566   20.5571   22.9194 H   0  0  0  0  0  0  0  0  0  0  0  0
   19.6047   20.2647   21.4743 H   0  0  0  0  0  0  0  0  0  0  0  0
   18.4068   20.3668   23.2773 C   0  0  0  0  0  0  0  0  0  0  0  0
   17.7068   19.5209   23.2909 H   0  0  0  0  0  0  0  0  0  0  0  0
   17.9110   21.1555   22.6961 H   0  0  0  0  0  0  0  0  0  0  0  0
   18.6179   20.9093   24.7115 C   0  0  2  0  0  0  0  0  0  0  0  0
   19.2792   21.7792   24.6521 H   0  0  0  0  0  0  0  0  0  0  0  0
   19.2652   19.8789   25.6520 C   0  0  0  0  0  0  0  0  0  0  0  0
   18.6895   18.9453   25.6759 H   0  0  0  0  0  0  0  0  0  0  0  0
   20.2902   19.6497   25.3383 H   0  0  0  0  0  0  0  0  0  0  0  0
   19.3217   20.2706   26.6750 H   0  0  0  0  0  0  0  0  0  0  0  0
   17.3235   21.4034   25.2955 N   0  3  0  0  0  0  0  0  0  0  0  0
   16.8972   22.1272   24.7096 H   0  0  0  0  0  0  0  0  0  0  0  0
   17.4634   21.8079   26.2258 H   0  0  0  0  0  0  0  0  0  0  0  0
   16.6431   20.6447   25.3914 H   0  0  0  0  0  0  0  0  0  0  0  0
  1  2  1  0  0  0  0
  1  3  1  0  0  0  0
  1  4  1  0  0  0  0
  1  5  1  0  0  0  0
  5  6  1  0  0  0  0
  5  7  1  0  0  0  0
  5  8  1  0  0  0  0
  8  9  1  0  0  0  0
  8 10  1  0  0  0  0
  8 11  1  0  0  0  0
 11 12  1  0  0  0  0
 11 13  1  0  0  0  0
 11 14  1  0  0  0  0
 14 15  1  0  0  0  0
 14 16  1  0  0  0  0
 14 17  1  0  0  0  0
 17 18  1  0  0  0  0
 17 19  1  0  0  0  0
 17 20  1  0  0  0  0
 20 21  1  0  0  0  0
 20 22  1  0  0  0  0
 22 23  1  0  0  0  0
 22 24  1  0  0  0  0
 22 25  1  0  0  0  0
 20 26  1  0  0  0  0
 26 27  1  0  0  0  0
 26 28  1  0  0  0  0
 26 29  1  0  0  0  0
M  END
> <VConfSearch Rank>
554

> <Conf_Id>
156

> <Delta U+W>
3.393

> <U+W>
-24.433

> <U>
27.713

> <W>
-52.146

> <W(PB)>
-54.603

> <W(SA)>
2.458

> <Valence>
6.758

> <Coulomb>
19.720

> <VdW>
1.235

> <VdW6>
-9.782

> <VdW12>
11.017

> <Bond>
0.287

> <Angle>
1.880

> <Pdih>
4.591

> <Idih>
0.000

> <Tether>
0.000

$$$$
VeraChem MOL file


 29 28  0  0  0  0  0  0  0  0999 V2000     
   19.8541   15.5635   22.0294 C   0  0  0  0  0  0  0  0  0  0  0  0
   20.6456   15.3659   22.7640 H   0  0  0  0  0  0  0  0  0  0  0  0
   19.0774   14.7969   22.1488 H   0  0  0  0  0  0  0  0  0  0  0  0
   20.2880   15.4501   21.0274 H   0  0  0  0  0  0  0  0  0  0  0  0
   19.2691   16.9798   22.2126 C   0  0  0  0  0  0  0  0  0  0  0  0
   18.5018   17.1597   21.4468 H   0  0  0  0  0  0  0  0  0  0  0  0
   20.0651   17.7176   22.0467 H   0  0  0  0  0  0  0  0  0  0  0  0
   18.6553   17.1653   23.6202 C   0  0  0  0  0  0  0  0  0  0  0  0
   17.9169   16.3705   23.7943 H   0  0  0  0  0  0  0  0  0  0  0  0
   19.4306   17.0264   24.3850 H   0  0  0  0  0  0  0  0  0  0  0  0
   17.9522   18.5334   23.8170 C   0  0  0  0  0  0  0  0  0  0  0  0
   17.5272   18.5688   24.8296 H   0  0  0  0  0  0  0  0  0  0  0  0
   17.0962   18.5935   23.1308 H   0  0  0  0  0  0  0  0  0  0  0  0
   18.8473   19.7818   23.6037 C   0  0  0  0  0  0  0  0  0  0  0  0
   19.1797   19.8226   22.5589 H   0  0  0  0  0  0  0  0  0  0  0  0
   18.2224   20.6707   23.7577 H   0  0  0  0  0  0  0  0  0  0  0  0
   20.0705   19.8343   24.5595 C   0  0  0  0  0  0  0  0  0  0  0  0
   20.7101   18.9605   24.3851 H   0  0  0  0  0  0  0  0  0  0  0  0
   19.7238   19.7546   25.5982 H   0  0  0  0  0  0  0  0  0  0  0  0
   20.9494   21.1000   24.4227 C   0  0  2  0  0  0  0  0  0  0  0  0
   21.7950   20.9829   25.1076 H   0  0  0  0  0  0  0  0  0  0  0  0
   20.1963   22.3780   24.8316 C   0  0  0  0  0  0  0  0  0  0  0  0
   20.8824   23.2333   24.8622 H   0  0  0  0  0  0  0  0  0  0  0  0
   19.3926   22.6199   24.1263 H   0  0  0  0  0  0  0  0  0  0  0  0
   19.7566   22.2688   25.8307 H   0  0  0  0  0  0  0  0  0  0  0  0
   21.5428   21.2405   23.0481 N   0  3  0  0  0  0  0  0  0  0  0  0
   22.0863   20.4127   22.7875 H   0  0  0  0  0  0  0  0  0  0  0  0
   22.1694   22.0486   22.9924 H   0  0  0  0  0  0  0  0  0  0  0  0
   20.8142   21.3676   22.3413 H   0  0  0  0  0  0  0  0  0  0  0  0
  1  2  1  0  0  0  0
  1  3  1  0  0  0  0
  1  4  1  0  0  0  0
  1  5  1  0  0  0  0
  5  6  1  0  0  0  0
  5  7  1  0  0  0  0
  5  8  1  0  0  0  0
  8  9  1  0  0  0  0
  8 10  1  0  0  0  0
  8 11  1  0  0  0  0
 11 12  1  0  0  0  0
 11 13  1  0  0  0  0
 11 14  1  0  0  0  0
 14 15  1  0  0  0  0
 14 16  1  0  0  0  0
 14 17  1  0  0  0  0
 17 18  1  0  0  0  0
 17 19  1  0  0  0  0
 17 20  1  0  0  0  0
 20 21  1  0  0  0  0
 20 22  1  0  0  0  0
 22 23  1  0  0  0  0
 22 24  1  0  0  0  0
 22 25  1  0  0  0  0
 20 26  1  0  0  0  0
 26 27  1  0  0  0  0
 26 28  1  0  0  0  0
 26 29  1  0  0  0  0
M  END
> <VConfSearch Rank>
555

> <Conf_Id>
78

> <Delta U+W>
1.477

> <U+W>
-26.349

> <U>
26.385

> <W>
-52.734

> <W(PB)>
-55.179

> <W(SA)>
2.445

> <Valence>
4.726

> <Coulomb>
20.482

> <VdW>
1.177

> <VdW6>
-10.349

> <VdW12>
11.526

> <Bond>
0.319

> <Angle>
1.933

> <Pdih>
2.474

> <Idih>
0.000

> <Tether>
0.000

$$$$
VeraChem MOL file


 29 28  0  0  0  0  0  0  0  0999 V2000     
   17.3418   21.6190   22.4177 C   0  0  0  0  0  0  0  0  0  0  0  0
   16.4184   21.1134   22.1067 H   0  0  0  0  0  0  0  0  0  0  0  0
   17.5511   21.3302   23.4536 H   0  0  0  0  0  0  0  0  0  0  0  0
   17.1498   22.6997   22.4055 H   0  0  0  0  0  0  0  0  0  0  0  0
   18.5099   21.2664   21.4675 C   0  0  0  0  0  0  0  0  0  0  0  0
   19.4093   21.8365   21.7391 H   0  0  0  0  0  0  0  0  0  0  0  0
   18.2358   21.5986   20.4564 H   0  0  0  0  0  0  0  0  0  0  0  0
   18.8264   19.7494   21.4207 C   0  0  0  0  0  0  0  0  0  0  0  0
   17.9208   19.1653   21.6350 H   0  0  0  0  0  0  0  0  0  0  0  0
   19.1074   19.4908   20.3903 H   0  0  0  0  0  0  0  0  0  0  0  0
   19.9841   19.2954   22.3469 C   0  0  0  0  0  0  0  0  0  0  0  0
   20.9098   19.8079   22.0510 H   0  0  0  0  0  0  0  0  0  0  0  0
   20.1550   18.2260   22.1677 H   0  0  0  0  0  0  0  0  0  0  0  0
   19.7239   19.5339   23.8546 C   0  0  0  0  0  0  0  0  0  0  0  0
   19.6369   20.6123   24.0383 H   0  0  0  0  0  0  0  0  0  0  0  0
   18.7604   19.0937   24.1426 H   0  0  0  0  0  0  0  0  0  0  0  0
   20.8546   18.9896   24.7661 C   0  0  0  0  0  0  0  0  0  0  0  0
   20.6166   19.2326   25.8101 H   0  0  0  0  0  0  0  0  0  0  0  0
   21.7801   19.5317   24.5312 H   0  0  0  0  0  0  0  0  0  0  0  0
   21.1262   17.4710   24.6482 C   0  0  2  0  0  0  0  0  0  0  0  0
   21.3802   17.2440   23.6088 H   0  0  0  0  0  0  0  0  0  0  0  0
   19.8994   16.6304   25.0443 C   0  0  0  0  0  0  0  0  0  0  0  0
   20.1343   15.5598   25.0021 H   0  0  0  0  0  0  0  0  0  0  0  0
   19.5687   16.8668   26.0633 H   0  0  0  0  0  0  0  0  0  0  0  0
   19.0604   16.8055   24.3608 H   0  0  0  0  0  0  0  0  0  0  0  0
   22.3199   17.0699   25.4693 N   0  3  0  0  0  0  0  0  0  0  0  0
   22.1643   17.2453   26.4657 H   0  0  0  0  0  0  0  0  0  0  0  0
   23.1590   17.5880   25.1930 H   0  0  0  0  0  0  0  0  0  0  0  0
   22.5287   16.0729   25.3636 H   0  0  0  0  0  0  0  0  0  0  0  0
  1  2  1  0  0  0  0
  1  3  1  0  0  0  0
  1  4  1  0  0  0  0
  1  5  1  0  0  0  0
  5  6  1  0  0  0  0
  5  7  1  0  0  0  0
  5  8  1  0  0  0  0
  8  9  1  0  0  0  0
  8 10  1  0  0  0  0
  8 11  1  0  0  0  0
 11 12  1  0  0  0  0
 11 13  1  0  0  0  0
 11 14  1  0  0  0  0
 14 15  1  0  0  0  0
 14 16  1  0  0  0  0
 14 17  1  0  0  0  0
 17 18  1  0  0  0  0
 17 19  1  0  0  0  0
 17 20  1  0  0  0  0
 20 21  1  0  0  0  0
 20 22  1  0  0  0  0
 22 23  1  0  0  0  0
 22 24  1  0  0  0  0
 22 25  1  0  0  0  0
 20 26  1  0  0  0  0
 26 27  1  0  0  0  0
 26 28  1  0  0  0  0
 26 29  1  0  0  0  0
M  END
> <VConfSearch Rank>
556

> <Conf_Id>
145

> <Delta U+W>
3.784

> <U+W>
-24.042

> <U>
28.220

> <W>
-52.262

> <W(PB)>
-54.724

> <W(SA)>
2.462

> <Valence>
7.040

> <Coulomb>
19.984

> <VdW>
1.197

> <VdW6>
-10.566

> <VdW12>
11.763

> <Bond>
0.320

> <Angle>
2.280

> <Pdih>
4.439

> <Idih>
0.000

> <Tether>
0.000

$$$$
VeraChem MOL file


 29 28  0  0  0  0  0  0  0  0999 V2000     
   20.5182   15.6693   21.8352 C   0  0  0  0  0  0  0  0  0  0  0  0
   19.9118   15.2329   21.0308 H   0  0  0  0  0  0  0  0  0  0  0  0
   21.3189   16.2636   21.3760 H   0  0  0  0  0  0  0  0  0  0  0  0
   20.9856   14.8453   22.3898 H   0  0  0  0  0  0  0  0  0  0  0  0
   19.6533   16.5365   22.7741 C   0  0  0  0  0  0  0  0  0  0  0  0
   20.2801   16.9200   23.5881 H   0  0  0  0  0  0  0  0  0  0  0  0
   18.8848   15.9063   23.2430 H   0  0  0  0  0  0  0  0  0  0  0  0
   18.9738   17.6992   22.0111 C   0  0  0  0  0  0  0  0  0  0  0  0
   19.7243   18.3000   21.4793 H   0  0  0  0  0  0  0  0  0  0  0  0
   18.3280   17.2660   21.2348 H   0  0  0  0  0  0  0  0  0  0  0  0
   18.1067   18.6093   22.9196 C   0  0  0  0  0  0  0  0  0  0  0  0
   17.7273   18.0401   23.7794 H   0  0  0  0  0  0  0  0  0  0  0  0
   17.2169   18.9117   22.3504 H   0  0  0  0  0  0  0  0  0  0  0  0
   18.8109   19.9026   23.4053 C   0  0  0  0  0  0  0  0  0  0  0  0
   19.0856   20.5091   22.5321 H   0  0  0  0  0  0  0  0  0  0  0  0
   18.0760   20.4906   23.9696 H   0  0  0  0  0  0  0  0  0  0  0  0
   20.0644   19.6504   24.2851 C   0  0  0  0  0  0  0  0  0  0  0  0
   20.8289   19.1408   23.6862 H   0  0  0  0  0  0  0  0  0  0  0  0
   19.8051   18.9659   25.1035 H   0  0  0  0  0  0  0  0  0  0  0  0
   20.7069   20.9238   24.8842 C   0  0  2  0  0  0  0  0  0  0  0  0
   21.6136   20.6117   25.4118 H   0  0  0  0  0  0  0  0  0  0  0  0
   19.7890   21.6108   25.9105 C   0  0  0  0  0  0  0  0  0  0  0  0
   20.3242   22.4211   26.4205 H   0  0  0  0  0  0  0  0  0  0  0  0
   18.9006   22.0444   25.4367 H   0  0  0  0  0  0  0  0  0  0  0  0
   19.4578   20.8983   26.6762 H   0  0  0  0  0  0  0  0  0  0  0  0
   21.1536   21.8941   23.8257 N   0  3  0  0  0  0  0  0  0  0  0  0
   20.3582   22.2471   23.2877 H   0  0  0  0  0  0  0  0  0  0  0  0
   21.8034   21.4571   23.1659 H   0  0  0  0  0  0  0  0  0  0  0  0
   21.6304   22.7022   24.2360 H   0  0  0  0  0  0  0  0  0  0  0  0
  1  2  1  0  0  0  0
  1  3  1  0  0  0  0
  1  4  1  0  0  0  0
  1  5  1  0  0  0  0
  5  6  1  0  0  0  0
  5  7  1  0  0  0  0
  5  8  1  0  0  0  0
  8  9  1  0  0  0  0
  8 10  1  0  0  0  0
  8 11  1  0  0  0  0
 11 12  1  0  0  0  0
 11 13  1  0  0  0  0
 11 14  1  0  0  0  0
 14 15  1  0  0  0  0
 14 16  1  0  0  0  0
 14 17  1  0  0  0  0
 17 18  1  0  0  0  0
 17 19  1  0  0  0  0
 17 20  1  0  0  0  0
 20 21  1  0  0  0  0
 20 22  1  0  0  0  0
 22 23  1  0  0  0  0
 22 24  1  0  0  0  0
 22 25  1  0  0  0  0
 20 26  1  0  0  0  0
 26 27  1  0  0  0  0
 26 28  1  0  0  0  0
 26 29  1  0  0  0  0
M  END
> <VConfSearch Rank>
557

> <Conf_Id>
71

> <Delta U+W>
3.542

> <U+W>
-24.284

> <U>
28.217

> <W>
-52.501

> <W(PB)>
-54.947

> <W(SA)>
2.446

> <Valence>
6.821

> <Coulomb>
20.147

> <VdW>
1.249

> <VdW6>
-10.237

> <VdW12>
11.486

> <Bond>
0.317

> <Angle>
1.990

> <Pdih>
4.515

> <Idih>
0.000

> <Tether>
0.000

$$$$
VeraChem MOL file


 29 28  0  0  0  0  0  0  0  0999 V2000     
   15.9325   19.1612   22.9213 C   0  0  0  0  0  0  0  0  0  0  0  0
   16.1229   20.2408   22.8634 H   0  0  0  0  0  0  0  0  0  0  0  0
   15.4446   18.8494   21.9885 H   0  0  0  0  0  0  0  0  0  0  0  0
   15.2278   18.9868   23.7447 H   0  0  0  0  0  0  0  0  0  0  0  0
   17.2429   18.3789   23.1505 C   0  0  0  0  0  0  0  0  0  0  0  0
   17.0141   17.3076   23.2377 H   0  0  0  0  0  0  0  0  0  0  0  0
   17.6793   18.6831   24.1093 H   0  0  0  0  0  0  0  0  0  0  0  0
   18.2485   18.6010   21.9952 C   0  0  0  0  0  0  0  0  0  0  0  0
   17.7799   18.2532   21.0641 H   0  0  0  0  0  0  0  0  0  0  0  0
   18.4407   19.6736   21.8547 H   0  0  0  0  0  0  0  0  0  0  0  0
   19.5863   17.8393   22.1847 C   0  0  0  0  0  0  0  0  0  0  0  0
   19.9254   17.4948   21.1979 H   0  0  0  0  0  0  0  0  0  0  0  0
   19.4263   16.9275   22.7765 H   0  0  0  0  0  0  0  0  0  0  0  0
   20.7315   18.6829   22.8020 C   0  0  0  0  0  0  0  0  0  0  0  0
   21.6398   18.0665   22.8084 H   0  0  0  0  0  0  0  0  0  0  0  0
   20.9419   19.5339   22.1406 H   0  0  0  0  0  0  0  0  0  0  0  0
   20.4406   19.1929   24.2384 C   0  0  0  0  0  0  0  0  0  0  0  0
   20.0970   18.3547   24.8584 H   0  0  0  0  0  0  0  0  0  0  0  0
   19.6150   19.9148   24.2077 H   0  0  0  0  0  0  0  0  0  0  0  0
   21.6414   19.8656   24.9444 C   0  0  2  0  0  0  0  0  0  0  0  0
   21.3028   20.1748   25.9381 H   0  0  0  0  0  0  0  0  0  0  0  0
   22.1162   21.1261   24.2008 C   0  0  0  0  0  0  0  0  0  0  0  0
   21.2819   21.8194   24.0367 H   0  0  0  0  0  0  0  0  0  0  0  0
   22.8772   21.6544   24.7882 H   0  0  0  0  0  0  0  0  0  0  0  0
   22.5557   20.8802   23.2267 H   0  0  0  0  0  0  0  0  0  0  0  0
   22.7823   18.9126   25.1722 N   0  3  0  0  0  0  0  0  0  0  0  0
   22.4838   18.0901   25.7044 H   0  0  0  0  0  0  0  0  0  0  0  0
   23.5420   19.3569   25.6958 H   0  0  0  0  0  0  0  0  0  0  0  0
   23.1726   18.5818   24.2864 H   0  0  0  0  0  0  0  0  0  0  0  0
  1  2  1  0  0  0  0
  1  3  1  0  0  0  0
  1  4  1  0  0  0  0
  1  5  1  0  0  0  0
  5  6  1  0  0  0  0
  5  7  1  0  0  0  0
  5  8  1  0  0  0  0
  8  9  1  0  0  0  0
  8 10  1  0  0  0  0
  8 11  1  0  0  0  0
 11 12  1  0  0  0  0
 11 13  1  0  0  0  0
 11 14  1  0  0  0  0
 14 15  1  0  0  0  0
 14 16  1  0  0  0  0
 14 17  1  0  0  0  0
 17 18  1  0  0  0  0
 17 19  1  0  0  0  0
 17 20  1  0  0  0  0
 20 21  1  0  0  0  0
 20 22  1  0  0  0  0
 22 23  1  0  0  0  0
 22 24  1  0  0  0  0
 22 25  1  0  0  0  0
 20 26  1  0  0  0  0
 26 27  1  0  0  0  0
 26 28  1  0  0  0  0
 26 29  1  0  0  0  0
M  END
> <VConfSearch Rank>
558

> <Conf_Id>
163

> <Delta U+W>
3.309

> <U+W>
-24.517

> <U>
27.916

> <W>
-52.433

> <W(PB)>
-54.866

> <W(SA)>
2.433

> <Valence>
6.693

> <Coulomb>
20.015

> <VdW>
1.208

> <VdW6>
-10.294

> <VdW12>
11.503

> <Bond>
0.312

> <Angle>
1.939

> <Pdih>
4.441

> <Idih>
0.000

> <Tether>
0.000

$$$$
VeraChem MOL file


 29 28  0  0  0  0  0  0  0  0999 V2000     
   22.7693   18.3342   26.0555 C   0  0  0  0  0  0  0  0  0  0  0  0
   23.2602   17.4640   25.6007 H   0  0  0  0  0  0  0  0  0  0  0  0
   23.1487   19.2390   25.5651 H   0  0  0  0  0  0  0  0  0  0  0  0
   23.0738   18.3786   27.1091 H   0  0  0  0  0  0  0  0  0  0  0  0
   21.2316   18.2272   25.9418 C   0  0  0  0  0  0  0  0  0  0  0  0
   20.7653   19.1247   26.3715 H   0  0  0  0  0  0  0  0  0  0  0  0
   20.8911   17.3808   26.5545 H   0  0  0  0  0  0  0  0  0  0  0  0
   20.7321   18.0207   24.4914 C   0  0  0  0  0  0  0  0  0  0  0  0
   21.1976   17.1204   24.0674 H   0  0  0  0  0  0  0  0  0  0  0  0
   19.6531   17.8233   24.5306 H   0  0  0  0  0  0  0  0  0  0  0  0
   21.0035   19.2347   23.5672 C   0  0  0  0  0  0  0  0  0  0  0  0
   22.0828   19.4308   23.5305 H   0  0  0  0  0  0  0  0  0  0  0  0
   20.5463   20.1356   23.9971 H   0  0  0  0  0  0  0  0  0  0  0  0
   20.5090   19.0277   22.1118 C   0  0  0  0  0  0  0  0  0  0  0  0
   20.7910   19.9048   21.5141 H   0  0  0  0  0  0  0  0  0  0  0  0
   21.0506   18.1813   21.6675 H   0  0  0  0  0  0  0  0  0  0  0  0
   18.9844   18.7760   21.9648 C   0  0  0  0  0  0  0  0  0  0  0  0
   18.7375   17.7957   22.3919 H   0  0  0  0  0  0  0  0  0  0  0  0
   18.7363   18.7076   20.8973 H   0  0  0  0  0  0  0  0  0  0  0  0
   18.0996   19.8555   22.6265 C   0  0  2  0  0  0  0  0  0  0  0  0
   18.3573   19.9077   23.6885 H   0  0  0  0  0  0  0  0  0  0  0  0
   16.6149   19.4764   22.5111 C   0  0  0  0  0  0  0  0  0  0  0  0
   15.9842   20.2209   23.0122 H   0  0  0  0  0  0  0  0  0  0  0  0
   16.3015   19.4134   21.4615 H   0  0  0  0  0  0  0  0  0  0  0  0
   16.4231   18.5051   22.9840 H   0  0  0  0  0  0  0  0  0  0  0  0
   18.3441   21.2240   22.0526 N   0  3  0  0  0  0  0  0  0  0  0  0
   19.3255   21.4976   22.1521 H   0  0  0  0  0  0  0  0  0  0  0  0
   17.7759   21.9347   22.5221 H   0  0  0  0  0  0  0  0  0  0  0  0
   18.1144   21.2560   21.0558 H   0  0  0  0  0  0  0  0  0  0  0  0
  1  2  1  0  0  0  0
  1  3  1  0  0  0  0
  1  4  1  0  0  0  0
  1  5  1  0  0  0  0
  5  6  1  0  0  0  0
  5  7  1  0  0  0  0
  5  8  1  0  0  0  0
  8  9  1  0  0  0  0
  8 10  1  0  0  0  0
  8 11  1  0  0  0  0
 11 12  1  0  0  0  0
 11 13  1  0  0  0  0
 11 14  1  0  0  0  0
 14 15  1  0  0  0  0
 14 16  1  0  0  0  0
 14 17  1  0  0  0  0
 17 18  1  0  0  0  0
 17 19  1  0  0  0  0
 17 20  1  0  0  0  0
 20 21  1  0  0  0  0
 20 22  1  0  0  0  0
 22 23  1  0  0  0  0
 22 24  1  0  0  0  0
 22 25  1  0  0  0  0
 20 26  1  0  0  0  0
 26 27  1  0  0  0  0
 26 28  1  0  0  0  0
 26 29  1  0  0  0  0
M  END
> <VConfSearch Rank>
559

> <Conf_Id>
173

> <Delta U+W>
1.363

> <U+W>
-26.462

> <U>
25.816

> <W>
-52.279

> <W(PB)>
-54.727

> <W(SA)>
2.449

> <Valence>
4.504

> <Coulomb>
20.342

> <VdW>
0.971

> <VdW6>
-10.532

> <VdW12>
11.503

> <Bond>
0.307

> <Angle>
1.715

> <Pdih>
2.481

> <Idih>
0.000

> <Tether>
0.000

$$$$
VeraChem MOL file


 29 28  0  0  0  0  0  0  0  0999 V2000     
   18.4808   17.1782   20.3941 C   0  0  0  0  0  0  0  0  0  0  0  0
   17.4495   17.0092   20.7302 H   0  0  0  0  0  0  0  0  0  0  0  0
   18.4455   17.6078   19.3844 H   0  0  0  0  0  0  0  0  0  0  0  0
   18.9780   16.2018   20.3274 H   0  0  0  0  0  0  0  0  0  0  0  0
   19.2355   18.1084   21.3673 C   0  0  0  0  0  0  0  0  0  0  0  0
   20.2700   18.2371   21.0199 H   0  0  0  0  0  0  0  0  0  0  0  0
   19.2809   17.6267   22.3529 H   0  0  0  0  0  0  0  0  0  0  0  0
   18.5477   19.4875   21.4865 C   0  0  0  0  0  0  0  0  0  0  0  0
   18.4024   19.9020   20.4793 H   0  0  0  0  0  0  0  0  0  0  0  0
   17.5425   19.3576   21.9108 H   0  0  0  0  0  0  0  0  0  0  0  0
   19.3324   20.5249   22.3306 C   0  0  0  0  0  0  0  0  0  0  0  0
   18.7658   21.4661   22.3068 H   0  0  0  0  0  0  0  0  0  0  0  0
   20.2963   20.7485   21.8532 H   0  0  0  0  0  0  0  0  0  0  0  0
   19.5440   20.1251   23.8142 C   0  0  0  0  0  0  0  0  0  0  0  0
   19.4632   21.0324   24.4274 H   0  0  0  0  0  0  0  0  0  0  0  0
   18.7278   19.4657   24.1362 H   0  0  0  0  0  0  0  0  0  0  0  0
   20.9288   19.4712   24.0783 C   0  0  0  0  0  0  0  0  0  0  0  0
   21.7168   20.1809   23.7940 H   0  0  0  0  0  0  0  0  0  0  0  0
   21.0682   18.5997   23.4291 H   0  0  0  0  0  0  0  0  0  0  0  0
   21.1732   19.0351   25.5421 C   0  0  2  0  0  0  0  0  0  0  0  0
   22.1974   18.6538   25.6006 H   0  0  0  0  0  0  0  0  0  0  0  0
   20.2298   17.8975   25.9702 C   0  0  0  0  0  0  0  0  0  0  0  0
   20.2810   17.0610   25.2623 H   0  0  0  0  0  0  0  0  0  0  0  0
   20.5149   17.5148   26.9578 H   0  0  0  0  0  0  0  0  0  0  0  0
   19.1880   18.2337   26.0303 H   0  0  0  0  0  0  0  0  0  0  0  0
   21.1018   20.1871   26.5062 N   0  3  0  0  0  0  0  0  0  0  0  0
   21.7600   20.9297   26.2530 H   0  0  0  0  0  0  0  0  0  0  0  0
   21.3263   19.8908   27.4604 H   0  0  0  0  0  0  0  0  0  0  0  0
   20.1650   20.5978   26.5243 H   0  0  0  0  0  0  0  0  0  0  0  0
  1  2  1  0  0  0  0
  1  3  1  0  0  0  0
  1  4  1  0  0  0  0
  1  5  1  0  0  0  0
  5  6  1  0  0  0  0
  5  7  1  0  0  0  0
  5  8  1  0  0  0  0
  8  9  1  0  0  0  0
  8 10  1  0  0  0  0
  8 11  1  0  0  0  0
 11 12  1  0  0  0  0
 11 13  1  0  0  0  0
 11 14  1  0  0  0  0
 14 15  1  0  0  0  0
 14 16  1  0  0  0  0
 14 17  1  0  0  0  0
 17 18  1  0  0  0  0
 17 19  1  0  0  0  0
 17 20  1  0  0  0  0
 20 21  1  0  0  0  0
 20 22  1  0  0  0  0
 22 23  1  0  0  0  0
 22 24  1  0  0  0  0
 22 25  1  0  0  0  0
 20 26  1  0  0  0  0
 26 27  1  0  0  0  0
 26 28  1  0  0  0  0
 26 29  1  0  0  0  0
M  END
> <VConfSearch Rank>
560

> <Conf_Id>
117

> <Delta U+W>
3.377

> <U+W>
-24.449

> <U>
27.947

> <W>
-52.396

> <W(PB)>
-54.842

> <W(SA)>
2.447

> <Valence>
6.731

> <Coulomb>
20.067

> <VdW>
1.149

> <VdW6>
-10.427

> <VdW12>
11.575

> <Bond>
0.324

> <Angle>
1.943

> <Pdih>
4.465

> <Idih>
0.000

> <Tether>
0.000

$$$$
VeraChem MOL file


 29 28  0  0  0  0  0  0  0  0999 V2000     
   17.6335   15.7730   26.2580 C   0  0  0  0  0  0  0  0  0  0  0  0
   16.7514   16.4002   26.4419 H   0  0  0  0  0  0  0  0  0  0  0  0
   17.4043   15.0964   25.4243 H   0  0  0  0  0  0  0  0  0  0  0  0
   17.8036   15.1599   27.1526 H   0  0  0  0  0  0  0  0  0  0  0  0
   18.8734   16.6374   25.9460 C   0  0  0  0  0  0  0  0  0  0  0  0
   19.7456   15.9847   25.8004 H   0  0  0  0  0  0  0  0  0  0  0  0
   19.0977   17.2785   26.8101 H   0  0  0  0  0  0  0  0  0  0  0  0
   18.6601   17.5109   24.6900 C   0  0  0  0  0  0  0  0  0  0  0  0
   18.4340   16.8660   23.8296 H   0  0  0  0  0  0  0  0  0  0  0  0
   17.7860   18.1597   24.8394 H   0  0  0  0  0  0  0  0  0  0  0  0
   19.8997   18.3779   24.3743 C   0  0  0  0  0  0  0  0  0  0  0  0
   20.7733   17.7279   24.2265 H   0  0  0  0  0  0  0  0  0  0  0  0
   20.1251   19.0227   25.2351 H   0  0  0  0  0  0  0  0  0  0  0  0
   19.6863   19.2511   23.1172 C   0  0  0  0  0  0  0  0  0  0  0  0
   19.4645   18.6052   22.2562 H   0  0  0  0  0  0  0  0  0  0  0  0
   18.8084   19.8928   23.2701 H   0  0  0  0  0  0  0  0  0  0  0  0
   20.9289   20.1194   22.8041 C   0  0  0  0  0  0  0  0  0  0  0  0
   21.8050   19.4640   22.7089 H   0  0  0  0  0  0  0  0  0  0  0  0
   21.1324   20.7943   23.6461 H   0  0  0  0  0  0  0  0  0  0  0  0
   20.7785   20.9404   21.5051 C   0  0  2  0  0  0  0  0  0  0  0  0
   20.5529   20.2495   20.6869 H   0  0  0  0  0  0  0  0  0  0  0  0
   22.0930   21.6656   21.1759 C   0  0  0  0  0  0  0  0  0  0  0  0
   22.0045   22.2217   20.2345 H   0  0  0  0  0  0  0  0  0  0  0  0
   22.3642   22.3749   21.9679 H   0  0  0  0  0  0  0  0  0  0  0  0
   22.9159   20.9488   21.0626 H   0  0  0  0  0  0  0  0  0  0  0  0
   19.6387   21.9198   21.5717 N   0  3  0  0  0  0  0  0  0  0  0  0
   18.7485   21.4459   21.7466 H   0  0  0  0  0  0  0  0  0  0  0  0
   19.5416   22.4410   20.6956 H   0  0  0  0  0  0  0  0  0  0  0  0
   19.7774   22.6029   22.3212 H   0  0  0  0  0  0  0  0  0  0  0  0
  1  2  1  0  0  0  0
  1  3  1  0  0  0  0
  1  4  1  0  0  0  0
  1  5  1  0  0  0  0
  5  6  1  0  0  0  0
  5  7  1  0  0  0  0
  5  8  1  0  0  0  0
  8  9  1  0  0  0  0
  8 10  1  0  0  0  0
  8 11  1  0  0  0  0
 11 12  1  0  0  0  0
 11 13  1  0  0  0  0
 11 14  1  0  0  0  0
 14 15  1  0  0  0  0
 14 16  1  0  0  0  0
 14 17  1  0  0  0  0
 17 18  1  0  0  0  0
 17 19  1  0  0  0  0
 17 20  1  0  0  0  0
 20 21  1  0  0  0  0
 20 22  1  0  0  0  0
 22 23  1  0  0  0  0
 22 24  1  0  0  0  0
 22 25  1  0  0  0  0
 20 26  1  0  0  0  0
 26 27  1  0  0  0  0
 26 28  1  0  0  0  0
 26 29  1  0  0  0  0
M  END
> <VConfSearch Rank>
561

> <Conf_Id>
164

> <Delta U+W>
0.000

> <U+W>
-27.826

> <U>
23.963

> <W>
-51.789

> <W(PB)>
-54.342

> <W(SA)>
2.554

> <Valence>
3.166

> <Coulomb>
19.734

> <VdW>
1.062

> <VdW6>
-7.938

> <VdW12>
9.001

> <Bond>
0.188

> <Angle>
0.880

> <Pdih>
2.098

> <Idih>
0.000

> <Tether>
0.000

$$$$
VeraChem MOL file


 29 28  0  0  0  0  0  0  0  0999 V2000     
   16.9023   16.2177   20.9248 C   0  0  0  0  0  0  0  0  0  0  0  0
   17.4769   15.3027   21.1193 H   0  0  0  0  0  0  0  0  0  0  0  0
   16.0908   16.2752   21.6620 H   0  0  0  0  0  0  0  0  0  0  0  0
   16.4479   16.1253   19.9298 H   0  0  0  0  0  0  0  0  0  0  0  0
   17.8066   17.4663   20.9969 C   0  0  0  0  0  0  0  0  0  0  0  0
   17.2119   18.3610   20.7652 H   0  0  0  0  0  0  0  0  0  0  0  0
   18.5873   17.3960   20.2266 H   0  0  0  0  0  0  0  0  0  0  0  0
   18.4593   17.6200   22.3885 C   0  0  0  0  0  0  0  0  0  0  0  0
   17.6751   17.6874   23.1552 H   0  0  0  0  0  0  0  0  0  0  0  0
   19.0507   16.7225   22.6167 H   0  0  0  0  0  0  0  0  0  0  0  0
   19.3656   18.8693   22.4646 C   0  0  0  0  0  0  0  0  0  0  0  0
   18.7734   19.7665   22.2366 H   0  0  0  0  0  0  0  0  0  0  0  0
   20.1483   18.8011   21.6964 H   0  0  0  0  0  0  0  0  0  0  0  0
   20.0188   19.0224   23.8569 C   0  0  0  0  0  0  0  0  0  0  0  0
   19.2290   19.0810   24.6172 H   0  0  0  0  0  0  0  0  0  0  0  0
   20.6151   18.1273   24.0825 H   0  0  0  0  0  0  0  0  0  0  0  0
   20.9227   20.2775   23.9319 C   0  0  0  0  0  0  0  0  0  0  0  0
   20.3176   21.1798   23.7717 H   0  0  0  0  0  0  0  0  0  0  0  0
   21.6457   20.2371   23.1065 H   0  0  0  0  0  0  0  0  0  0  0  0
   21.7038   20.4042   25.2598 C   0  0  2  0  0  0  0  0  0  0  0  0
   22.2649   19.4780   25.4177 H   0  0  0  0  0  0  0  0  0  0  0  0
   20.7702   20.6199   26.4644 C   0  0  0  0  0  0  0  0  0  0  0  0
   20.1384   21.5057   26.3232 H   0  0  0  0  0  0  0  0  0  0  0  0
   20.1177   19.7538   26.6238 H   0  0  0  0  0  0  0  0  0  0  0  0
   21.3520   20.7604   27.3837 H   0  0  0  0  0  0  0  0  0  0  0  0
   22.7210   21.5089   25.1866 N   0  3  0  0  0  0  0  0  0  0  0  0
   23.2683   21.5711   26.0499 H   0  0  0  0  0  0  0  0  0  0  0  0
   22.2752   22.4188   25.0413 H   0  0  0  0  0  0  0  0  0  0  0  0
   23.3813   21.3632   24.4174 H   0  0  0  0  0  0  0  0  0  0  0  0
  1  2  1  0  0  0  0
  1  3  1  0  0  0  0
  1  4  1  0  0  0  0
  1  5  1  0  0  0  0
  5  6  1  0  0  0  0
  5  7  1  0  0  0  0
  5  8  1  0  0  0  0
  8  9  1  0  0  0  0
  8 10  1  0  0  0  0
  8 11  1  0  0  0  0
 11 12  1  0  0  0  0
 11 13  1  0  0  0  0
 11 14  1  0  0  0  0
 14 15  1  0  0  0  0
 14 16  1  0  0  0  0
 14 17  1  0  0  0  0
 17 18  1  0  0  0  0
 17 19  1  0  0  0  0
 17 20  1  0  0  0  0
 20 21  1  0  0  0  0
 20 22  1  0  0  0  0
 22 23  1  0  0  0  0
 22 24  1  0  0  0  0
 22 25  1  0  0  0  0
 20 26  1  0  0  0  0
 26 27  1  0  0  0  0
 26 28  1  0  0  0  0
 26 29  1  0  0  0  0
M  END
> <VConfSearch Rank>
562

> <Conf_Id>
58

> <Delta U+W>
0.412

> <U+W>
-27.414

> <U>
24.279

> <W>
-51.694

> <W(PB)>
-54.271

> <W(SA)>
2.577

> <Valence>
3.709

> <Coulomb>
19.380

> <VdW>
1.191

> <VdW6>
-8.093

> <VdW12>
9.284

> <Bond>
0.200

> <Angle>
1.161

> <Pdih>
2.348

> <Idih>
0.000

> <Tether>
0.000

$$$$
VeraChem MOL file


 29 28  0  0  0  0  0  0  0  0999 V2000     
   15.4887   20.3717   25.0729 C   0  0  0  0  0  0  0  0  0  0  0  0
   15.4077   21.1976   24.3541 H   0  0  0  0  0  0  0  0  0  0  0  0
   15.0092   19.4874   24.6333 H   0  0  0  0  0  0  0  0  0  0  0  0
   14.9230   20.6502   25.9715 H   0  0  0  0  0  0  0  0  0  0  0  0
   16.9639   20.0855   25.4247 C   0  0  0  0  0  0  0  0  0  0  0  0
   17.0112   19.2790   26.1698 H   0  0  0  0  0  0  0  0  0  0  0  0
   17.4065   20.9760   25.8927 H   0  0  0  0  0  0  0  0  0  0  0  0
   17.7833   19.6907   24.1762 C   0  0  0  0  0  0  0  0  0  0  0  0
   17.3359   18.8016   23.7108 H   0  0  0  0  0  0  0  0  0  0  0  0
   17.7310   20.4988   23.4335 H   0  0  0  0  0  0  0  0  0  0  0  0
   19.2612   19.4036   24.5246 C   0  0  0  0  0  0  0  0  0  0  0  0
   19.3121   18.5958   25.2679 H   0  0  0  0  0  0  0  0  0  0  0  0
   19.7075   20.2931   24.9904 H   0  0  0  0  0  0  0  0  0  0  0  0
   20.0809   19.0088   23.2754 C   0  0  0  0  0  0  0  0  0  0  0  0
   19.6291   18.1207   22.8141 H   0  0  0  0  0  0  0  0  0  0  0  0
   20.0199   19.8194   22.5374 H   0  0  0  0  0  0  0  0  0  0  0  0
   21.5636   18.7253   23.6309 C   0  0  0  0  0  0  0  0  0  0  0  0
   21.6064   17.9482   24.4053 H   0  0  0  0  0  0  0  0  0  0  0  0
   22.0072   19.6238   24.0801 H   0  0  0  0  0  0  0  0  0  0  0  0
   22.4451   18.2778   22.4410 C   0  0  2  0  0  0  0  0  0  0  0  0
   23.4479   18.0838   22.8343 H   0  0  0  0  0  0  0  0  0  0  0  0
   22.5703   19.3742   21.3688 C   0  0  0  0  0  0  0  0  0  0  0  0
   23.3057   19.0844   20.6083 H   0  0  0  0  0  0  0  0  0  0  0  0
   21.6161   19.5548   20.8597 H   0  0  0  0  0  0  0  0  0  0  0  0
   22.9071   20.3185   21.8142 H   0  0  0  0  0  0  0  0  0  0  0  0
   21.9775   16.9832   21.8353 N   0  3  0  0  0  0  0  0  0  0  0  0
   21.9339   16.2359   22.5342 H   0  0  0  0  0  0  0  0  0  0  0  0
   22.6067   16.6698   21.0906 H   0  0  0  0  0  0  0  0  0  0  0  0
   21.0439   17.0798   21.4283 H   0  0  0  0  0  0  0  0  0  0  0  0
  1  2  1  0  0  0  0
  1  3  1  0  0  0  0
  1  4  1  0  0  0  0
  1  5  1  0  0  0  0
  5  6  1  0  0  0  0
  5  7  1  0  0  0  0
  5  8  1  0  0  0  0
  8  9  1  0  0  0  0
  8 10  1  0  0  0  0
  8 11  1  0  0  0  0
 11 12  1  0  0  0  0
 11 13  1  0  0  0  0
 11 14  1  0  0  0  0
 14 15  1  0  0  0  0
 14 16  1  0  0  0  0
 14 17  1  0  0  0  0
 17 18  1  0  0  0  0
 17 19  1  0  0  0  0
 17 20  1  0  0  0  0
 20 21  1  0  0  0  0
 20 22  1  0  0  0  0
 22 23  1  0  0  0  0
 22 24  1  0  0  0  0
 22 25  1  0  0  0  0
 20 26  1  0  0  0  0
 26 27  1  0  0  0  0
 26 28  1  0  0  0  0
 26 29  1  0  0  0  0
M  END
> <VConfSearch Rank>
563

> <Conf_Id>
137

> <Delta U+W>
0.280

> <U+W>
-27.546

> <U>
24.513

> <W>
-52.059

> <W(PB)>
-54.556

> <W(SA)>
2.497

> <Valence>
3.677

> <Coulomb>
19.662

> <VdW>
1.174

> <VdW6>
-8.569

> <VdW12>
9.743

> <Bond>
0.224

> <Angle>
1.211

> <Pdih>
2.243

> <Idih>
0.000

> <Tether>
0.000

$$$$
VeraChem MOL file


 29 28  0  0  0  0  0  0  0  0999 V2000     
   18.5815   17.4667   27.4892 C   0  0  0  0  0  0  0  0  0  0  0  0
   19.0985   16.5802   27.0993 H   0  0  0  0  0  0  0  0  0  0  0  0
   19.3085   18.0669   28.0518 H   0  0  0  0  0  0  0  0  0  0  0  0
   17.8104   17.1253   28.1920 H   0  0  0  0  0  0  0  0  0  0  0  0
   17.9506   18.2889   26.3454 C   0  0  0  0  0  0  0  0  0  0  0  0
   17.4120   19.1482   26.7689 H   0  0  0  0  0  0  0  0  0  0  0  0
   17.2050   17.6737   25.8223 H   0  0  0  0  0  0  0  0  0  0  0  0
   19.0155   18.7830   25.3414 C   0  0  0  0  0  0  0  0  0  0  0  0
   19.7567   19.3992   25.8686 H   0  0  0  0  0  0  0  0  0  0  0  0
   19.5514   17.9157   24.9349 H   0  0  0  0  0  0  0  0  0  0  0  0
   18.3826   19.6039   24.1918 C   0  0  0  0  0  0  0  0  0  0  0  0
   17.7809   20.4152   24.6245 H   0  0  0  0  0  0  0  0  0  0  0  0
   17.6850   18.9723   23.6246 H   0  0  0  0  0  0  0  0  0  0  0  0
   19.4203   20.2283   23.2264 C   0  0  0  0  0  0  0  0  0  0  0  0
   18.8832   20.9041   22.5488 H   0  0  0  0  0  0  0  0  0  0  0  0
   20.1222   20.8535   23.7954 H   0  0  0  0  0  0  0  0  0  0  0  0
   20.2066   19.1789   22.3981 C   0  0  0  0  0  0  0  0  0  0  0  0
   19.5058   18.5610   21.8213 H   0  0  0  0  0  0  0  0  0  0  0  0
   20.7289   18.5008   23.0836 H   0  0  0  0  0  0  0  0  0  0  0  0
   21.2581   19.7968   21.4478 C   0  0  2  0  0  0  0  0  0  0  0  0
   21.9063   20.4552   22.0344 H   0  0  0  0  0  0  0  0  0  0  0  0
   20.6122   20.6241   20.3217 C   0  0  0  0  0  0  0  0  0  0  0  0
   19.8988   20.0216   19.7457 H   0  0  0  0  0  0  0  0  0  0  0  0
   20.0829   21.4973   20.7196 H   0  0  0  0  0  0  0  0  0  0  0  0
   21.3772   20.9980   19.6300 H   0  0  0  0  0  0  0  0  0  0  0  0
   22.1494   18.7359   20.8639 N   0  3  0  0  0  0  0  0  0  0  0  0
   22.6268   18.2000   21.5945 H   0  0  0  0  0  0  0  0  0  0  0  0
   22.8723   19.1437   20.2640 H   0  0  0  0  0  0  0  0  0  0  0  0
   21.6174   18.0730   20.2935 H   0  0  0  0  0  0  0  0  0  0  0  0
  1  2  1  0  0  0  0
  1  3  1  0  0  0  0
  1  4  1  0  0  0  0
  1  5  1  0  0  0  0
  5  6  1  0  0  0  0
  5  7  1  0  0  0  0
  5  8  1  0  0  0  0
  8  9  1  0  0  0  0
  8 10  1  0  0  0  0
  8 11  1  0  0  0  0
 11 12  1  0  0  0  0
 11 13  1  0  0  0  0
 11 14  1  0  0  0  0
 14 15  1  0  0  0  0
 14 16  1  0  0  0  0
 14 17  1  0  0  0  0
 17 18  1  0  0  0  0
 17 19  1  0  0  0  0
 17 20  1  0  0  0  0
 20 21  1  0  0  0  0
 20 22  1  0  0  0  0
 22 23  1  0  0  0  0
 22 24  1  0  0  0  0
 22 25  1  0  0  0  0
 20 26  1  0  0  0  0
 26 27  1  0  0  0  0
 26 28  1  0  0  0  0
 26 29  1  0  0  0  0
M  END
> <VConfSearch Rank>
564

> <Conf_Id>
40

> <Delta U+W>
1.128

> <U+W>
-26.698

> <U>
25.442

> <W>
-52.140

> <W(PB)>
-54.658

> <W(SA)>
2.519

> <Valence>
4.343

> <Coulomb>
19.740

> <VdW>
1.360

> <VdW6>
-8.739

> <VdW12>
10.099

> <Bond>
0.251

> <Angle>
1.483

> <Pdih>
2.608

> <Idih>
0.000

> <Tether>
0.000

$$$$
VeraChem MOL file


 29 28  0  0  0  0  0  0  0  0999 V2000     
   20.6538   21.9386   26.7217 C   0  0  0  0  0  0  0  0  0  0  0  0
   21.5203   21.2679   26.7727 H   0  0  0  0  0  0  0  0  0  0  0  0
   20.8897   22.7543   26.0259 H   0  0  0  0  0  0  0  0  0  0  0  0
   20.5180   22.3770   27.7188 H   0  0  0  0  0  0  0  0  0  0  0  0
   19.3764   21.1866   26.2839 C   0  0  0  0  0  0  0  0  0  0  0  0
   18.5187   21.8678   26.3738 H   0  0  0  0  0  0  0  0  0  0  0  0
   19.1815   20.3544   26.9746 H   0  0  0  0  0  0  0  0  0  0  0  0
   19.4377   20.6576   24.8304 C   0  0  0  0  0  0  0  0  0  0  0  0
   18.4450   20.2684   24.5711 H   0  0  0  0  0  0  0  0  0  0  0  0
   19.6326   21.4933   24.1444 H   0  0  0  0  0  0  0  0  0  0  0  0
   20.5016   19.5497   24.6219 C   0  0  0  0  0  0  0  0  0  0  0  0
   20.3037   18.7113   25.3037 H   0  0  0  0  0  0  0  0  0  0  0  0
   21.4907   19.9408   24.8927 H   0  0  0  0  0  0  0  0  0  0  0  0
   20.5789   19.0278   23.1656 C   0  0  0  0  0  0  0  0  0  0  0  0
   20.7574   19.8699   22.4826 H   0  0  0  0  0  0  0  0  0  0  0  0
   21.4582   18.3751   23.0874 H   0  0  0  0  0  0  0  0  0  0  0  0
   19.3161   18.2479   22.7167 C   0  0  0  0  0  0  0  0  0  0  0  0
   18.4425   18.9089   22.7683 H   0  0  0  0  0  0  0  0  0  0  0  0
   19.1251   17.4186   23.4106 H   0  0  0  0  0  0  0  0  0  0  0  0
   19.4262   17.7031   21.2758 C   0  0  2  0  0  0  0  0  0  0  0  0
   19.6531   18.5405   20.6088 H   0  0  0  0  0  0  0  0  0  0  0  0
   18.0902   17.0837   20.8353 C   0  0  0  0  0  0  0  0  0  0  0  0
   18.1506   16.7258   19.8001 H   0  0  0  0  0  0  0  0  0  0  0  0
   17.8158   16.2354   21.4750 H   0  0  0  0  0  0  0  0  0  0  0  0
   17.2819   17.8240   20.8844 H   0  0  0  0  0  0  0  0  0  0  0  0
   20.5434   16.7080   21.1180 N   0  3  0  0  0  0  0  0  0  0  0  0
   20.4027   15.8911   21.7184 H   0  0  0  0  0  0  0  0  0  0  0  0
   21.4481   17.1192   21.3631 H   0  0  0  0  0  0  0  0  0  0  0  0
   20.6112   16.3717   20.1532 H   0  0  0  0  0  0  0  0  0  0  0  0
  1  2  1  0  0  0  0
  1  3  1  0  0  0  0
  1  4  1  0  0  0  0
  1  5  1  0  0  0  0
  5  6  1  0  0  0  0
  5  7  1  0  0  0  0
  5  8  1  0  0  0  0
  8  9  1  0  0  0  0
  8 10  1  0  0  0  0
  8 11  1  0  0  0  0
 11 12  1  0  0  0  0
 11 13  1  0  0  0  0
 11 14  1  0  0  0  0
 14 15  1  0  0  0  0
 14 16  1  0  0  0  0
 14 17  1  0  0  0  0
 17 18  1  0  0  0  0
 17 19  1  0  0  0  0
 17 20  1  0  0  0  0
 20 21  1  0  0  0  0
 20 22  1  0  0  0  0
 22 23  1  0  0  0  0
 22 24  1  0  0  0  0
 22 25  1  0  0  0  0
 20 26  1  0  0  0  0
 26 27  1  0  0  0  0
 26 28  1  0  0  0  0
 26 29  1  0  0  0  0
M  END
> <VConfSearch Rank>
565

> <Conf_Id>
134

> <Delta U+W>
1.228

> <U+W>
-26.598

> <U>
25.451

> <W>
-52.048

> <W(PB)>
-54.539

> <W(SA)>
2.490

> <Valence>
4.319

> <Coulomb>
19.732

> <VdW>
1.400

> <VdW6>
-9.173

> <VdW12>
10.573

> <Bond>
0.281

> <Angle>
1.459

> <Pdih>
2.580

> <Idih>
0.000

> <Tether>
0.000

$$$$
VeraChem MOL file


 29 28  0  0  0  0  0  0  0  0999 V2000     
   19.5138   14.9368   22.3206 C   0  0  0  0  0  0  0  0  0  0  0  0
   20.2134   14.8324   23.1590 H   0  0  0  0  0  0  0  0  0  0  0  0
   18.4913   14.8684   22.7143 H   0  0  0  0  0  0  0  0  0  0  0  0
   19.6732   14.0821   21.6506 H   0  0  0  0  0  0  0  0  0  0  0  0
   19.7292   16.2658   21.5614 C   0  0  0  0  0  0  0  0  0  0  0  0
   19.0982   16.2637   20.6617 H   0  0  0  0  0  0  0  0  0  0  0  0
   20.7680   16.3261   21.2079 H   0  0  0  0  0  0  0  0  0  0  0  0
   19.3884   17.5201   22.4021 C   0  0  0  0  0  0  0  0  0  0  0  0
   19.4405   18.3949   21.7413 H   0  0  0  0  0  0  0  0  0  0  0  0
   18.3487   17.4560   22.7511 H   0  0  0  0  0  0  0  0  0  0  0  0
   20.3349   17.7276   23.6117 C   0  0  0  0  0  0  0  0  0  0  0  0
   21.3744   17.7932   23.2622 H   0  0  0  0  0  0  0  0  0  0  0  0
   20.2850   16.8504   24.2694 H   0  0  0  0  0  0  0  0  0  0  0  0
   19.9907   18.9788   24.4568 C   0  0  0  0  0  0  0  0  0  0  0  0
   18.9557   18.8962   24.8140 H   0  0  0  0  0  0  0  0  0  0  0  0
   20.6292   18.9805   25.3511 H   0  0  0  0  0  0  0  0  0  0  0  0
   20.1897   20.3144   23.6945 C   0  0  0  0  0  0  0  0  0  0  0  0
   19.4584   20.3977   22.8808 H   0  0  0  0  0  0  0  0  0  0  0  0
   21.1822   20.3055   23.2251 H   0  0  0  0  0  0  0  0  0  0  0  0
   20.0871   21.5631   24.5995 C   0  0  2  0  0  0  0  0  0  0  0  0
   20.7975   21.4486   25.4241 H   0  0  0  0  0  0  0  0  0  0  0  0
   18.6767   21.7341   25.1917 C   0  0  0  0  0  0  0  0  0  0  0  0
   17.9189   21.7946   24.4007 H   0  0  0  0  0  0  0  0  0  0  0  0
   18.4180   20.8987   25.8525 H   0  0  0  0  0  0  0  0  0  0  0  0
   18.6177   22.6515   25.7902 H   0  0  0  0  0  0  0  0  0  0  0  0
   20.4947   22.8058   23.8581 N   0  3  0  0  0  0  0  0  0  0  0  0
   21.4481   22.7306   23.4916 H   0  0  0  0  0  0  0  0  0  0  0  0
   20.4663   23.6298   24.4655 H   0  0  0  0  0  0  0  0  0  0  0  0
   19.8737   22.9891   23.0653 H   0  0  0  0  0  0  0  0  0  0  0  0
  1  2  1  0  0  0  0
  1  3  1  0  0  0  0
  1  4  1  0  0  0  0
  1  5  1  0  0  0  0
  5  6  1  0  0  0  0
  5  7  1  0  0  0  0
  5  8  1  0  0  0  0
  8  9  1  0  0  0  0
  8 10  1  0  0  0  0
  8 11  1  0  0  0  0
 11 12  1  0  0  0  0
 11 13  1  0  0  0  0
 11 14  1  0  0  0  0
 14 15  1  0  0  0  0
 14 16  1  0  0  0  0
 14 17  1  0  0  0  0
 17 18  1  0  0  0  0
 17 19  1  0  0  0  0
 17 20  1  0  0  0  0
 20 21  1  0  0  0  0
 20 22  1  0  0  0  0
 22 23  1  0  0  0  0
 22 24  1  0  0  0  0
 22 25  1  0  0  0  0
 20 26  1  0  0  0  0
 26 27  1  0  0  0  0
 26 28  1  0  0  0  0
 26 29  1  0  0  0  0
M  END
> <VConfSearch Rank>
566

> <Conf_Id>
73

> <Delta U+W>
1.580

> <U+W>
-26.246

> <U>
25.821

> <W>
-52.067

> <W(PB)>
-54.581

> <W(SA)>
2.514

> <Valence>
4.779

> <Coulomb>
19.614

> <VdW>
1.428

> <VdW6>
-9.390

> <VdW12>
10.818

> <Bond>
0.283

> <Angle>
1.640

> <Pdih>
2.856

> <Idih>
0.000

> <Tether>
0.000

$$$$
VeraChem MOL file


 29 28  0  0  0  0  0  0  0  0999 V2000     
   20.9845   16.4994   20.0657 C   0  0  0  0  0  0  0  0  0  0  0  0
   20.5798   17.3420   19.4900 H   0  0  0  0  0  0  0  0  0  0  0  0
   21.7569   16.0140   19.4551 H   0  0  0  0  0  0  0  0  0  0  0  0
   20.1758   15.7743   20.2252 H   0  0  0  0  0  0  0  0  0  0  0  0
   21.5734   16.9777   21.4098 C   0  0  0  0  0  0  0  0  0  0  0  0
   22.4004   17.6756   21.2179 H   0  0  0  0  0  0  0  0  0  0  0  0
   22.0009   16.1190   21.9461 H   0  0  0  0  0  0  0  0  0  0  0  0
   20.5058   17.6644   22.2900 C   0  0  0  0  0  0  0  0  0  0  0  0
   20.0808   18.5129   21.7383 H   0  0  0  0  0  0  0  0  0  0  0  0
   19.6827   16.9621   22.4811 H   0  0  0  0  0  0  0  0  0  0  0  0
   21.0968   18.1486   23.6360 C   0  0  0  0  0  0  0  0  0  0  0  0
   21.8804   18.8960   23.4497 H   0  0  0  0  0  0  0  0  0  0  0  0
   21.5907   17.3021   24.1328 H   0  0  0  0  0  0  0  0  0  0  0  0
   20.0404   18.7346   24.6049 C   0  0  0  0  0  0  0  0  0  0  0  0
   19.2589   17.9853   24.7929 H   0  0  0  0  0  0  0  0  0  0  0  0
   20.5309   18.9182   25.5698 H   0  0  0  0  0  0  0  0  0  0  0  0
   19.3932   20.0480   24.0947 C   0  0  0  0  0  0  0  0  0  0  0  0
   18.8821   19.8549   23.1435 H   0  0  0  0  0  0  0  0  0  0  0  0
   20.1744   20.7913   23.8874 H   0  0  0  0  0  0  0  0  0  0  0  0
   18.3663   20.6374   25.0860 C   0  0  2  0  0  0  0  0  0  0  0  0
   17.6200   19.8676   25.3050 H   0  0  0  0  0  0  0  0  0  0  0  0
   17.6471   21.8416   24.4572 C   0  0  0  0  0  0  0  0  0  0  0  0
   17.1348   21.5503   23.5317 H   0  0  0  0  0  0  0  0  0  0  0  0
   16.8913   22.2440   25.1429 H   0  0  0  0  0  0  0  0  0  0  0  0
   18.3543   22.6456   24.2178 H   0  0  0  0  0  0  0  0  0  0  0  0
   18.9882   21.0248   26.3999 N   0  3  0  0  0  0  0  0  0  0  0  0
   18.2893   21.3969   27.0492 H   0  0  0  0  0  0  0  0  0  0  0  0
   19.7051   21.7447   26.2753 H   0  0  0  0  0  0  0  0  0  0  0  0
   19.4321   20.2225   26.8547 H   0  0  0  0  0  0  0  0  0  0  0  0
  1  2  1  0  0  0  0
  1  3  1  0  0  0  0
  1  4  1  0  0  0  0
  1  5  1  0  0  0  0
  5  6  1  0  0  0  0
  5  7  1  0  0  0  0
  5  8  1  0  0  0  0
  8  9  1  0  0  0  0
  8 10  1  0  0  0  0
  8 11  1  0  0  0  0
 11 12  1  0  0  0  0
 11 13  1  0  0  0  0
 11 14  1  0  0  0  0
 14 15  1  0  0  0  0
 14 16  1  0  0  0  0
 14 17  1  0  0  0  0
 17 18  1  0  0  0  0
 17 19  1  0  0  0  0
 17 20  1  0  0  0  0
 20 21  1  0  0  0  0
 20 22  1  0  0  0  0
 22 23  1  0  0  0  0
 22 24  1  0  0  0  0
 22 25  1  0  0  0  0
 20 26  1  0  0  0  0
 26 27  1  0  0  0  0
 26 28  1  0  0  0  0
 26 29  1  0  0  0  0
M  END
> <VConfSearch Rank>
567

> <Conf_Id>
111

> <Delta U+W>
0.580

> <U+W>
-27.246

> <U>
24.710

> <W>
-51.957

> <W(PB)>
-54.511

> <W(SA)>
2.555

> <Valence>
3.735

> <Coulomb>
19.760

> <VdW>
1.216

> <VdW6>
-8.624

> <VdW12>
9.840

> <Bond>
0.236

> <Angle>
1.168

> <Pdih>
2.330

> <Idih>
0.000

> <Tether>
0.000

$$$$
VeraChem MOL file


 29 28  0  0  0  0  0  0  0  0999 V2000     
   23.8633   18.1714   22.4997 C   0  0  0  0  0  0  0  0  0  0  0  0
   23.5648   17.5854   21.6206 H   0  0  0  0  0  0  0  0  0  0  0  0
   23.8633   19.2328   22.2193 H   0  0  0  0  0  0  0  0  0  0  0  0
   24.8927   17.8910   22.7580 H   0  0  0  0  0  0  0  0  0  0  0  0
   22.9133   17.9116   23.6879 C   0  0  0  0  0  0  0  0  0  0  0  0
   23.2558   18.4848   24.5609 H   0  0  0  0  0  0  0  0  0  0  0  0
   22.9612   16.8497   23.9671 H   0  0  0  0  0  0  0  0  0  0  0  0
   21.4562   18.2974   23.3502 C   0  0  0  0  0  0  0  0  0  0  0  0
   21.4236   19.3570   23.0647 H   0  0  0  0  0  0  0  0  0  0  0  0
   21.1177   17.7207   22.4784 H   0  0  0  0  0  0  0  0  0  0  0  0
   20.5034   18.0411   24.5424 C   0  0  0  0  0  0  0  0  0  0  0  0
   20.8089   18.6563   25.3999 H   0  0  0  0  0  0  0  0  0  0  0  0
   20.6038   16.9948   24.8625 H   0  0  0  0  0  0  0  0  0  0  0  0
   19.0151   18.3126   24.2124 C   0  0  0  0  0  0  0  0  0  0  0  0
   18.7112   17.6703   23.3753 H   0  0  0  0  0  0  0  0  0  0  0  0
   18.4058   18.0090   25.0749 H   0  0  0  0  0  0  0  0  0  0  0  0
   18.7185   19.7982   23.8825 C   0  0  0  0  0  0  0  0  0  0  0  0
   19.2099   20.0813   22.9430 H   0  0  0  0  0  0  0  0  0  0  0  0
   19.1587   20.4261   24.6684 H   0  0  0  0  0  0  0  0  0  0  0  0
   17.2101   20.1205   23.7854 C   0  0  2  0  0  0  0  0  0  0  0  0
   16.7301   19.8001   24.7152 H   0  0  0  0  0  0  0  0  0  0  0  0
   16.5362   19.3877   22.6115 C   0  0  0  0  0  0  0  0  0  0  0  0
   17.0231   19.6320   21.6592 H   0  0  0  0  0  0  0  0  0  0  0  0
   16.5720   18.3006   22.7472 H   0  0  0  0  0  0  0  0  0  0  0  0
   15.4790   19.6704   22.5354 H   0  0  0  0  0  0  0  0  0  0  0  0
   16.9775   21.6019   23.6767 N   0  3  0  0  0  0  0  0  0  0  0  0
   17.3810   22.1063   24.4715 H   0  0  0  0  0  0  0  0  0  0  0  0
   15.9778   21.8225   23.6521 H   0  0  0  0  0  0  0  0  0  0  0  0
   17.3959   21.9847   22.8246 H   0  0  0  0  0  0  0  0  0  0  0  0
  1  2  1  0  0  0  0
  1  3  1  0  0  0  0
  1  4  1  0  0  0  0
  1  5  1  0  0  0  0
  5  6  1  0  0  0  0
  5  7  1  0  0  0  0
  5  8  1  0  0  0  0
  8  9  1  0  0  0  0
  8 10  1  0  0  0  0
  8 11  1  0  0  0  0
 11 12  1  0  0  0  0
 11 13  1  0  0  0  0
 11 14  1  0  0  0  0
 14 15  1  0  0  0  0
 14 16  1  0  0  0  0
 14 17  1  0  0  0  0
 17 18  1  0  0  0  0
 17 19  1  0  0  0  0
 17 20  1  0  0  0  0
 20 21  1  0  0  0  0
 20 22  1  0  0  0  0
 22 23  1  0  0  0  0
 22 24  1  0  0  0  0
 22 25  1  0  0  0  0
 20 26  1  0  0  0  0
 26 27  1  0  0  0  0
 26 28  1  0  0  0  0
 26 29  1  0  0  0  0
M  END
> <VConfSearch Rank>
568

> <Conf_Id>
39

> <Delta U+W>
0.965

> <U+W>
-26.861

> <U>
25.129

> <W>
-51.990

> <W(PB)>
-54.526

> <W(SA)>
2.536

> <Valence>
4.206

> <Coulomb>
19.678

> <VdW>
1.245

> <VdW6>
-8.834

> <VdW12>
10.079

> <Bond>
0.240

> <Angle>
1.353

> <Pdih>
2.613

> <Idih>
0.000

> <Tether>
0.000

$$$$
VeraChem MOL file


 29 28  0  0  0  0  0  0  0  0999 V2000     
   18.3092   22.7910   21.9873 C   0  0  0  0  0  0  0  0  0  0  0  0
   17.4817   22.7791   22.7084 H   0  0  0  0  0  0  0  0  0  0  0  0
   19.2227   23.0894   22.5161 H   0  0  0  0  0  0  0  0  0  0  0  0
   18.0929   23.5664   21.2411 H   0  0  0  0  0  0  0  0  0  0  0  0
   18.4709   21.4140   21.3040 C   0  0  0  0  0  0  0  0  0  0  0  0
   19.3259   21.4410   20.6142 H   0  0  0  0  0  0  0  0  0  0  0  0
   17.5831   21.2216   20.6854 H   0  0  0  0  0  0  0  0  0  0  0  0
   18.6407   20.2441   22.3033 C   0  0  0  0  0  0  0  0  0  0  0  0
   17.7833   20.2211   22.9897 H   0  0  0  0  0  0  0  0  0  0  0  0
   18.6081   19.3063   21.7343 H   0  0  0  0  0  0  0  0  0  0  0  0
   19.9595   20.3129   23.1147 C   0  0  0  0  0  0  0  0  0  0  0  0
   19.9931   21.2554   23.6762 H   0  0  0  0  0  0  0  0  0  0  0  0
   20.8171   20.3314   22.4284 H   0  0  0  0  0  0  0  0  0  0  0  0
   20.1268   19.1504   24.1242 C   0  0  0  0  0  0  0  0  0  0  0  0
   21.0102   19.3604   24.7412 H   0  0  0  0  0  0  0  0  0  0  0  0
   19.2667   19.1417   24.8067 H   0  0  0  0  0  0  0  0  0  0  0  0
   20.2871   17.7616   23.4470 C   0  0  0  0  0  0  0  0  0  0  0  0
   21.0764   17.8191   22.6861 H   0  0  0  0  0  0  0  0  0  0  0  0
   19.3660   17.5024   22.9107 H   0  0  0  0  0  0  0  0  0  0  0  0
   20.6238   16.6030   24.4152 C   0  0  2  0  0  0  0  0  0  0  0  0
   20.7164   15.6933   23.8138 H   0  0  0  0  0  0  0  0  0  0  0  0
   19.5057   16.3684   25.4457 C   0  0  0  0  0  0  0  0  0  0  0  0
   19.4178   17.2074   26.1462 H   0  0  0  0  0  0  0  0  0  0  0  0
   18.5379   16.2337   24.9469 H   0  0  0  0  0  0  0  0  0  0  0  0
   19.7072   15.4629   26.0310 H   0  0  0  0  0  0  0  0  0  0  0  0
   21.9525   16.7888   25.0948 N   0  3  0  0  0  0  0  0  0  0  0  0
   22.7094   16.9029   24.4144 H   0  0  0  0  0  0  0  0  0  0  0  0
   22.1878   15.9838   25.6824 H   0  0  0  0  0  0  0  0  0  0  0  0
   21.9500   17.6170   25.6953 H   0  0  0  0  0  0  0  0  0  0  0  0
  1  2  1  0  0  0  0
  1  3  1  0  0  0  0
  1  4  1  0  0  0  0
  1  5  1  0  0  0  0
  5  6  1  0  0  0  0
  5  7  1  0  0  0  0
  5  8  1  0  0  0  0
  8  9  1  0  0  0  0
  8 10  1  0  0  0  0
  8 11  1  0  0  0  0
 11 12  1  0  0  0  0
 11 13  1  0  0  0  0
 11 14  1  0  0  0  0
 14 15  1  0  0  0  0
 14 16  1  0  0  0  0
 14 17  1  0  0  0  0
 17 18  1  0  0  0  0
 17 19  1  0  0  0  0
 17 20  1  0  0  0  0
 20 21  1  0  0  0  0
 20 22  1  0  0  0  0
 22 23  1  0  0  0  0
 22 24  1  0  0  0  0
 22 25  1  0  0  0  0
 20 26  1  0  0  0  0
 26 27  1  0  0  0  0
 26 28  1  0  0  0  0
 26 29  1  0  0  0  0
M  END
> <VConfSearch Rank>
569

> <Conf_Id>
155

> <Delta U+W>
1.624

> <U+W>
-26.202

> <U>
25.894

> <W>
-52.096

> <W(PB)>
-54.602

> <W(SA)>
2.506

> <Valence>
4.779

> <Coulomb>
19.659

> <VdW>
1.456

> <VdW6>
-9.843

> <VdW12>
11.299

> <Bond>
0.315

> <Angle>
1.725

> <Pdih>
2.740

> <Idih>
0.000

> <Tether>
0.000

$$$$
VeraChem MOL file


 29 28  0  0  0  0  0  0  0  0999 V2000     
   20.7368   18.6946   27.4523 C   0  0  0  0  0  0  0  0  0  0  0  0
   21.1059   19.6925   27.1847 H   0  0  0  0  0  0  0  0  0  0  0  0
   19.6424   18.7403   27.5247 H   0  0  0  0  0  0  0  0  0  0  0  0
   21.1297   18.4534   28.4485 H   0  0  0  0  0  0  0  0  0  0  0  0
   21.1816   17.6310   26.4231 C   0  0  0  0  0  0  0  0  0  0  0  0
   20.8904   16.6373   26.7914 H   0  0  0  0  0  0  0  0  0  0  0  0
   22.2782   17.6228   26.3506 H   0  0  0  0  0  0  0  0  0  0  0  0
   20.5654   17.8413   25.0191 C   0  0  0  0  0  0  0  0  0  0  0  0
   20.8506   16.9929   24.3820 H   0  0  0  0  0  0  0  0  0  0  0  0
   19.4711   17.8150   25.1021 H   0  0  0  0  0  0  0  0  0  0  0  0
   21.0192   19.1596   24.3423 C   0  0  0  0  0  0  0  0  0  0  0  0
   22.1147   19.2266   24.3927 H   0  0  0  0  0  0  0  0  0  0  0  0
   20.6302   20.0225   24.8989 H   0  0  0  0  0  0  0  0  0  0  0  0
   20.5901   19.2750   22.8586 C   0  0  0  0  0  0  0  0  0  0  0  0
   21.0723   20.1667   22.4383 H   0  0  0  0  0  0  0  0  0  0  0  0
   20.9805   18.4166   22.2948 H   0  0  0  0  0  0  0  0  0  0  0  0
   19.0543   19.3736   22.6653 C   0  0  0  0  0  0  0  0  0  0  0  0
   18.6657   20.2385   23.2192 H   0  0  0  0  0  0  0  0  0  0  0  0
   18.5818   18.4856   23.1022 H   0  0  0  0  0  0  0  0  0  0  0  0
   18.6178   19.4655   21.1850 C   0  0  2  0  0  0  0  0  0  0  0  0
   19.0663   18.6278   20.6421 H   0  0  0  0  0  0  0  0  0  0  0  0
   19.0748   20.7777   20.5224 C   0  0  0  0  0  0  0  0  0  0  0  0
   18.7047   21.6508   21.0741 H   0  0  0  0  0  0  0  0  0  0  0  0
   20.1677   20.8407   20.4713 H   0  0  0  0  0  0  0  0  0  0  0  0
   18.6994   20.8417   19.4936 H   0  0  0  0  0  0  0  0  0  0  0  0
   17.1285   19.3091   21.0494 N   0  3  0  0  0  0  0  0  0  0  0  0
   16.8050   18.4208   21.4433 H   0  0  0  0  0  0  0  0  0  0  0  0
   16.8383   19.3302   20.0675 H   0  0  0  0  0  0  0  0  0  0  0  0
   16.6282   20.0604   21.5320 H   0  0  0  0  0  0  0  0  0  0  0  0
  1  2  1  0  0  0  0
  1  3  1  0  0  0  0
  1  4  1  0  0  0  0
  1  5  1  0  0  0  0
  5  6  1  0  0  0  0
  5  7  1  0  0  0  0
  5  8  1  0  0  0  0
  8  9  1  0  0  0  0
  8 10  1  0  0  0  0
  8 11  1  0  0  0  0
 11 12  1  0  0  0  0
 11 13  1  0  0  0  0
 11 14  1  0  0  0  0
 14 15  1  0  0  0  0
 14 16  1  0  0  0  0
 14 17  1  0  0  0  0
 17 18  1  0  0  0  0
 17 19  1  0  0  0  0
 17 20  1  0  0  0  0
 20 21  1  0  0  0  0
 20 22  1  0  0  0  0
 22 23  1  0  0  0  0
 22 24  1  0  0  0  0
 22 25  1  0  0  0  0
 20 26  1  0  0  0  0
 26 27  1  0  0  0  0
 26 28  1  0  0  0  0
 26 29  1  0  0  0  0
M  END
> <VConfSearch Rank>
570

> <Conf_Id>
135

> <Delta U+W>
1.581

> <U+W>
-26.245

> <U>
25.974

> <W>
-52.219

> <W(PB)>
-54.709

> <W(SA)>
2.490

> <Valence>
4.811

> <Coulomb>
19.700

> <VdW>
1.463

> <VdW6>
-9.391

> <VdW12>
10.854

> <Bond>
0.285

> <Angle>
1.671

> <Pdih>
2.855

> <Idih>
0.000

> <Tether>
0.000

$$$$
VeraChem MOL file


 29 28  0  0  0  0  0  0  0  0999 V2000     
   20.0196   23.1605   23.0395 C   0  0  0  0  0  0  0  0  0  0  0  0
   19.2843   22.9055   22.2655 H   0  0  0  0  0  0  0  0  0  0  0  0
   19.5263   23.0967   24.0173 H   0  0  0  0  0  0  0  0  0  0  0  0
   20.3182   24.2059   22.8879 H   0  0  0  0  0  0  0  0  0  0  0  0
   21.2512   22.2299   22.9640 C   0  0  0  0  0  0  0  0  0  0  0  0
   21.9590   22.4880   23.7641 H   0  0  0  0  0  0  0  0  0  0  0  0
   21.7772   22.4139   22.0169 H   0  0  0  0  0  0  0  0  0  0  0  0
   20.8903   20.7274   23.0486 C   0  0  0  0  0  0  0  0  0  0  0  0
   20.2065   20.4760   22.2272 H   0  0  0  0  0  0  0  0  0  0  0  0
   21.8035   20.1390   22.8849 H   0  0  0  0  0  0  0  0  0  0  0  0
   20.2631   20.3226   24.4065 C   0  0  0  0  0  0  0  0  0  0  0  0
   19.2888   20.8129   24.5324 H   0  0  0  0  0  0  0  0  0  0  0  0
   20.9027   20.6901   25.2207 H   0  0  0  0  0  0  0  0  0  0  0  0
   20.0883   18.7929   24.5700 C   0  0  0  0  0  0  0  0  0  0  0  0
   21.0701   18.3090   24.4842 H   0  0  0  0  0  0  0  0  0  0  0  0
   19.7288   18.5894   25.5882 H   0  0  0  0  0  0  0  0  0  0  0  0
   19.0961   18.1762   23.5507 C   0  0  0  0  0  0  0  0  0  0  0  0
   19.5044   18.2510   22.5349 H   0  0  0  0  0  0  0  0  0  0  0  0
   18.1710   18.7674   23.5611 H   0  0  0  0  0  0  0  0  0  0  0  0
   18.7391   16.7024   23.8495 C   0  0  2  0  0  0  0  0  0  0  0  0
   18.3678   16.6407   24.8771 H   0  0  0  0  0  0  0  0  0  0  0  0
   19.9586   15.7729   23.7153 C   0  0  0  0  0  0  0  0  0  0  0  0
   20.4040   15.8446   22.7153 H   0  0  0  0  0  0  0  0  0  0  0  0
   20.7302   16.0188   24.4540 H   0  0  0  0  0  0  0  0  0  0  0  0
   19.6687   14.7285   23.8845 H   0  0  0  0  0  0  0  0  0  0  0  0
   17.6209   16.2249   22.9652 N   0  3  0  0  0  0  0  0  0  0  0  0
   17.3544   15.2613   23.1870 H   0  0  0  0  0  0  0  0  0  0  0  0
   17.8890   16.2481   21.9776 H   0  0  0  0  0  0  0  0  0  0  0  0
   16.7830   16.8043   23.0707 H   0  0  0  0  0  0  0  0  0  0  0  0
  1  2  1  0  0  0  0
  1  3  1  0  0  0  0
  1  4  1  0  0  0  0
  1  5  1  0  0  0  0
  5  6  1  0  0  0  0
  5  7  1  0  0  0  0
  5  8  1  0  0  0  0
  8  9  1  0  0  0  0
  8 10  1  0  0  0  0
  8 11  1  0  0  0  0
 11 12  1  0  0  0  0
 11 13  1  0  0  0  0
 11 14  1  0  0  0  0
 14 15  1  0  0  0  0
 14 16  1  0  0  0  0
 14 17  1  0  0  0  0
 17 18  1  0  0  0  0
 17 19  1  0  0  0  0
 17 20  1  0  0  0  0
 20 21  1  0  0  0  0
 20 22  1  0  0  0  0
 22 23  1  0  0  0  0
 22 24  1  0  0  0  0
 22 25  1  0  0  0  0
 20 26  1  0  0  0  0
 26 27  1  0  0  0  0
 26 28  1  0  0  0  0
 26 29  1  0  0  0  0
M  END
> <VConfSearch Rank>
571

> <Conf_Id>
130

> <Delta U+W>
1.359

> <U+W>
-26.467

> <U>
25.687

> <W>
-52.154

> <W(PB)>
-54.643

> <W(SA)>
2.489

> <Valence>
4.682

> <Coulomb>
19.653

> <VdW>
1.352

> <VdW6>
-9.477

> <VdW12>
10.829

> <Bond>
0.274

> <Angle>
1.550

> <Pdih>
2.858

> <Idih>
0.000

> <Tether>
0.000

$$$$
VeraChem MOL file


 29 28  0  0  0  0  0  0  0  0999 V2000     
   19.5527   15.0305   22.8664 C   0  0  0  0  0  0  0  0  0  0  0  0
   19.6905   14.0412   23.3215 H   0  0  0  0  0  0  0  0  0  0  0  0
   18.8678   14.9165   22.0162 H   0  0  0  0  0  0  0  0  0  0  0  0
   20.5277   15.3550   22.4823 H   0  0  0  0  0  0  0  0  0  0  0  0
   18.9897   16.0287   23.9034 C   0  0  0  0  0  0  0  0  0  0  0  0
   19.7074   16.1507   24.7266 H   0  0  0  0  0  0  0  0  0  0  0  0
   18.0810   15.6003   24.3490 H   0  0  0  0  0  0  0  0  0  0  0  0
   18.6424   17.4124   23.3029 C   0  0  0  0  0  0  0  0  0  0  0  0
   17.9110   17.2857   22.4929 H   0  0  0  0  0  0  0  0  0  0  0  0
   18.1409   18.0050   24.0782 H   0  0  0  0  0  0  0  0  0  0  0  0
   19.8795   18.1810   22.7719 C   0  0  0  0  0  0  0  0  0  0  0  0
   20.3313   17.6087   21.9513 H   0  0  0  0  0  0  0  0  0  0  0  0
   20.6406   18.2436   23.5589 H   0  0  0  0  0  0  0  0  0  0  0  0
   19.5340   19.5949   22.2362 C   0  0  0  0  0  0  0  0  0  0  0  0
   20.3617   19.9653   21.6158 H   0  0  0  0  0  0  0  0  0  0  0  0
   18.6761   19.5064   21.5553 H   0  0  0  0  0  0  0  0  0  0  0  0
   19.2024   20.6440   23.3335 C   0  0  0  0  0  0  0  0  0  0  0  0
   18.7969   20.1599   24.2299 H   0  0  0  0  0  0  0  0  0  0  0  0
   18.3973   21.2846   22.9502 H   0  0  0  0  0  0  0  0  0  0  0  0
   20.3840   21.5637   23.7242 C   0  0  2  0  0  0  0  0  0  0  0  0
   20.7412   22.0630   22.8182 H   0  0  0  0  0  0  0  0  0  0  0  0
   21.5606   20.7893   24.3418 C   0  0  0  0  0  0  0  0  0  0  0  0
   22.0158   20.1144   23.6079 H   0  0  0  0  0  0  0  0  0  0  0  0
   22.3453   21.4793   24.6758 H   0  0  0  0  0  0  0  0  0  0  0  0
   21.2365   20.1971   25.2066 H   0  0  0  0  0  0  0  0  0  0  0  0
   19.9335   22.6537   24.6566 N   0  3  0  0  0  0  0  0  0  0  0  0
   19.1807   23.2138   24.2463 H   0  0  0  0  0  0  0  0  0  0  0  0
   20.7007   23.2933   24.8823 H   0  0  0  0  0  0  0  0  0  0  0  0
   19.5858   22.2701   25.5396 H   0  0  0  0  0  0  0  0  0  0  0  0
  1  2  1  0  0  0  0
  1  3  1  0  0  0  0
  1  4  1  0  0  0  0
  1  5  1  0  0  0  0
  5  6  1  0  0  0  0
  5  7  1  0  0  0  0
  5  8  1  0  0  0  0
  8  9  1  0  0  0  0
  8 10  1  0  0  0  0
  8 11  1  0  0  0  0
 11 12  1  0  0  0  0
 11 13  1  0  0  0  0
 11 14  1  0  0  0  0
 14 15  1  0  0  0  0
 14 16  1  0  0  0  0
 14 17  1  0  0  0  0
 17 18  1  0  0  0  0
 17 19  1  0  0  0  0
 17 20  1  0  0  0  0
 20 21  1  0  0  0  0
 20 22  1  0  0  0  0
 22 23  1  0  0  0  0
 22 24  1  0  0  0  0
 22 25  1  0  0  0  0
 20 26  1  0  0  0  0
 26 27  1  0  0  0  0
 26 28  1  0  0  0  0
 26 29  1  0  0  0  0
M  END
> <VConfSearch Rank>
572

> <Conf_Id>
157

> <Delta U+W>
4.354

> <U+W>
-23.472

> <U>
28.780

> <W>
-52.252

> <W(PB)>
-54.715

> <W(SA)>
2.462

> <Valence>
7.566

> <Coulomb>
19.822

> <VdW>
1.392

> <VdW6>
-10.248

> <VdW12>
11.641

> <Bond>
0.340

> <Angle>
2.096

> <Pdih>
5.129

> <Idih>
0.000

> <Tether>
0.000

$$$$
VeraChem MOL file


 29 28  0  0  0  0  0  0  0  0999 V2000     
   17.1760   16.4763   23.2177 C   0  0  0  0  0  0  0  0  0  0  0  0
   16.7164   15.6324   23.7483 H   0  0  0  0  0  0  0  0  0  0  0  0
   17.1288   17.3493   23.8780 H   0  0  0  0  0  0  0  0  0  0  0  0
   16.5609   16.6884   22.3336 H   0  0  0  0  0  0  0  0  0  0  0  0
   18.6276   16.1327   22.8095 C   0  0  0  0  0  0  0  0  0  0  0  0
   18.5964   15.2417   22.1668 H   0  0  0  0  0  0  0  0  0  0  0  0
   19.2159   15.8473   23.6927 H   0  0  0  0  0  0  0  0  0  0  0  0
   19.3349   17.2753   22.0363 C   0  0  0  0  0  0  0  0  0  0  0  0
   19.9764   16.8216   21.2683 H   0  0  0  0  0  0  0  0  0  0  0  0
   18.5969   17.8761   21.4871 H   0  0  0  0  0  0  0  0  0  0  0  0
   20.2299   18.1954   22.9062 C   0  0  0  0  0  0  0  0  0  0  0  0
   20.7272   18.9083   22.2360 H   0  0  0  0  0  0  0  0  0  0  0  0
   21.0296   17.5973   23.3643 H   0  0  0  0  0  0  0  0  0  0  0  0
   19.4667   18.9649   24.0124 C   0  0  0  0  0  0  0  0  0  0  0  0
   18.6127   19.4989   23.5754 H   0  0  0  0  0  0  0  0  0  0  0  0
   19.0488   18.2450   24.7276 H   0  0  0  0  0  0  0  0  0  0  0  0
   20.3640   19.9510   24.8039 C   0  0  0  0  0  0  0  0  0  0  0  0
   21.1628   19.3826   25.2986 H   0  0  0  0  0  0  0  0  0  0  0  0
   19.7698   20.4064   25.6072 H   0  0  0  0  0  0  0  0  0  0  0  0
   20.9986   21.0684   23.9454 C   0  0  2  0  0  0  0  0  0  0  0  0
   21.6126   20.6021   23.1696 H   0  0  0  0  0  0  0  0  0  0  0  0
   21.9115   21.9528   24.8093 C   0  0  0  0  0  0  0  0  0  0  0  0
   21.3436   22.4535   25.6035 H   0  0  0  0  0  0  0  0  0  0  0  0
   22.7019   21.3545   25.2793 H   0  0  0  0  0  0  0  0  0  0  0  0
   22.3965   22.7238   24.1979 H   0  0  0  0  0  0  0  0  0  0  0  0
   19.9674   21.9035   23.2375 N   0  3  0  0  0  0  0  0  0  0  0  0
   19.3787   21.3280   22.6292 H   0  0  0  0  0  0  0  0  0  0  0  0
   20.4039   22.6227   22.6536 H   0  0  0  0  0  0  0  0  0  0  0  0
   19.3526   22.3793   23.9031 H   0  0  0  0  0  0  0  0  0  0  0  0
  1  2  1  0  0  0  0
  1  3  1  0  0  0  0
  1  4  1  0  0  0  0
  1  5  1  0  0  0  0
  5  6  1  0  0  0  0
  5  7  1  0  0  0  0
  5  8  1  0  0  0  0
  8  9  1  0  0  0  0
  8 10  1  0  0  0  0
  8 11  1  0  0  0  0
 11 12  1  0  0  0  0
 11 13  1  0  0  0  0
 11 14  1  0  0  0  0
 14 15  1  0  0  0  0
 14 16  1  0  0  0  0
 14 17  1  0  0  0  0
 17 18  1  0  0  0  0
 17 19  1  0  0  0  0
 17 20  1  0  0  0  0
 20 21  1  0  0  0  0
 20 22  1  0  0  0  0
 22 23  1  0  0  0  0
 22 24  1  0  0  0  0
 22 25  1  0  0  0  0
 20 26  1  0  0  0  0
 26 27  1  0  0  0  0
 26 28  1  0  0  0  0
 26 29  1  0  0  0  0
M  END
> <VConfSearch Rank>
573

> <Conf_Id>
158

> <Delta U+W>
3.648

> <U+W>
-24.178

> <U>
28.057

> <W>
-52.235

> <W(PB)>
-54.696

> <W(SA)>
2.460

> <Valence>
6.543

> <Coulomb>
20.387

> <VdW>
1.127

> <VdW6>
-10.342

> <VdW12>
11.469

> <Bond>
0.308

> <Angle>
1.938

> <Pdih>
4.297

> <Idih>
0.000

> <Tether>
0.000

$$$$
VeraChem MOL file


 29 28  0  0  0  0  0  0  0  0999 V2000     
   17.2083   19.5330   26.0971 C   0  0  0  0  0  0  0  0  0  0  0  0
   17.9965   19.8837   26.7759 H   0  0  0  0  0  0  0  0  0  0  0  0
   17.2481   20.1367   25.1820 H   0  0  0  0  0  0  0  0  0  0  0  0
   16.2406   19.7265   26.5778 H   0  0  0  0  0  0  0  0  0  0  0  0
   17.3681   18.0264   25.7914 C   0  0  0  0  0  0  0  0  0  0  0  0
   16.5883   17.7075   25.0857 H   0  0  0  0  0  0  0  0  0  0  0  0
   17.1972   17.4577   26.7161 H   0  0  0  0  0  0  0  0  0  0  0  0
   18.7632   17.6566   25.2323 C   0  0  0  0  0  0  0  0  0  0  0  0
   19.5378   17.9613   25.9495 H   0  0  0  0  0  0  0  0  0  0  0  0
   18.8284   16.5626   25.1529 H   0  0  0  0  0  0  0  0  0  0  0  0
   19.0585   18.2823   23.8483 C   0  0  0  0  0  0  0  0  0  0  0  0
   19.0491   19.3748   23.9281 H   0  0  0  0  0  0  0  0  0  0  0  0
   18.2565   18.0118   23.1479 H   0  0  0  0  0  0  0  0  0  0  0  0
   20.4173   17.8021   23.2819 C   0  0  0  0  0  0  0  0  0  0  0  0
   21.2242   17.9954   24.0023 H   0  0  0  0  0  0  0  0  0  0  0  0
   20.3720   16.7105   23.1641 H   0  0  0  0  0  0  0  0  0  0  0  0
   20.7686   18.4307   21.9074 C   0  0  0  0  0  0  0  0  0  0  0  0
   19.8519   18.6969   21.3645 H   0  0  0  0  0  0  0  0  0  0  0  0
   21.2604   17.6579   21.3019 H   0  0  0  0  0  0  0  0  0  0  0  0
   21.7234   19.6471   21.9733 C   0  0  2  0  0  0  0  0  0  0  0  0
   22.6429   19.3308   22.4754 H   0  0  0  0  0  0  0  0  0  0  0  0
   21.1320   20.8304   22.7577 C   0  0  0  0  0  0  0  0  0  0  0  0
   20.1575   21.1293   22.3522 H   0  0  0  0  0  0  0  0  0  0  0  0
   21.0072   20.5768   23.8168 H   0  0  0  0  0  0  0  0  0  0  0  0
   21.8011   21.6985   22.7114 H   0  0  0  0  0  0  0  0  0  0  0  0
   22.1273   20.0892   20.5942 N   0  3  0  0  0  0  0  0  0  0  0  0
   22.5689   19.3291   20.0686 H   0  0  0  0  0  0  0  0  0  0  0  0
   22.7968   20.8632   20.6307 H   0  0  0  0  0  0  0  0  0  0  0  0
   21.3197   20.4091   20.0528 H   0  0  0  0  0  0  0  0  0  0  0  0
  1  2  1  0  0  0  0
  1  3  1  0  0  0  0
  1  4  1  0  0  0  0
  1  5  1  0  0  0  0
  5  6  1  0  0  0  0
  5  7  1  0  0  0  0
  5  8  1  0  0  0  0
  8  9  1  0  0  0  0
  8 10  1  0  0  0  0
  8 11  1  0  0  0  0
 11 12  1  0  0  0  0
 11 13  1  0  0  0  0
 11 14  1  0  0  0  0
 14 15  1  0  0  0  0
 14 16  1  0  0  0  0
 14 17  1  0  0  0  0
 17 18  1  0  0  0  0
 17 19  1  0  0  0  0
 17 20  1  0  0  0  0
 20 21  1  0  0  0  0
 20 22  1  0  0  0  0
 22 23  1  0  0  0  0
 22 24  1  0  0  0  0
 22 25  1  0  0  0  0
 20 26  1  0  0  0  0
 26 27  1  0  0  0  0
 26 28  1  0  0  0  0
 26 29  1  0  0  0  0
M  END
> <VConfSearch Rank>
574

> <Conf_Id>
156

> <Delta U+W>
3.393

> <U+W>
-24.433

> <U>
27.713

> <W>
-52.146

> <W(PB)>
-54.603

> <W(SA)>
2.458

> <Valence>
6.758

> <Coulomb>
19.720

> <VdW>
1.235

> <VdW6>
-9.782

> <VdW12>
11.017

> <Bond>
0.287

> <Angle>
1.880

> <Pdih>
4.591

> <Idih>
0.000

> <Tether>
0.000

$$$$
VeraChem MOL file


 29 28  0  0  0  0  0  0  0  0999 V2000     
   17.1514   20.6846   26.0013 C   0  0  0  0  0  0  0  0  0  0  0  0
   17.1656   19.7049   26.4965 H   0  0  0  0  0  0  0  0  0  0  0  0
   17.3615   21.4529   26.7568 H   0  0  0  0  0  0  0  0  0  0  0  0
   16.1361   20.8554   25.6206 H   0  0  0  0  0  0  0  0  0  0  0  0
   18.1805   20.7397   24.8525 C   0  0  0  0  0  0  0  0  0  0  0  0
   18.1230   21.7192   24.3577 H   0  0  0  0  0  0  0  0  0  0  0  0
   17.9143   19.9856   24.1000 H   0  0  0  0  0  0  0  0  0  0  0  0
   19.6198   20.4971   25.3643 C   0  0  0  0  0  0  0  0  0  0  0  0
   19.8369   21.2127   26.1692 H   0  0  0  0  0  0  0  0  0  0  0  0
   19.6886   19.5017   25.8222 H   0  0  0  0  0  0  0  0  0  0  0  0
   20.7050   20.6550   24.2678 C   0  0  0  0  0  0  0  0  0  0  0  0
   21.6916   20.4902   24.7222 H   0  0  0  0  0  0  0  0  0  0  0  0
   20.7064   21.6968   23.9186 H   0  0  0  0  0  0  0  0  0  0  0  0
   20.5549   19.7204   23.0393 C   0  0  0  0  0  0  0  0  0  0  0  0
   19.6269   19.9601   22.5053 H   0  0  0  0  0  0  0  0  0  0  0  0
   21.3724   19.9495   22.3439 H   0  0  0  0  0  0  0  0  0  0  0  0
   20.5905   18.2112   23.4044 C   0  0  0  0  0  0  0  0  0  0  0  0
   19.7560   17.9766   24.0765 H   0  0  0  0  0  0  0  0  0  0  0  0
   21.5063   17.9957   23.9704 H   0  0  0  0  0  0  0  0  0  0  0  0
   20.5120   17.2474   22.1969 C   0  0  2  0  0  0  0  0  0  0  0  0
   20.4923   16.2286   22.5961 H   0  0  0  0  0  0  0  0  0  0  0  0
   21.7428   17.3618   21.2806 C   0  0  0  0  0  0  0  0  0  0  0  0
   21.7280   16.5721   20.5195 H   0  0  0  0  0  0  0  0  0  0  0  0
   21.7746   18.3262   20.7603 H   0  0  0  0  0  0  0  0  0  0  0  0
   22.6697   17.2504   21.8568 H   0  0  0  0  0  0  0  0  0  0  0  0
   19.2393   17.4125   21.4130 N   0  3  0  0  0  0  0  0  0  0  0  0
   18.4141   17.2900   22.0069 H   0  0  0  0  0  0  0  0  0  0  0  0
   19.1758   16.7269   20.6550 H   0  0  0  0  0  0  0  0  0  0  0  0
   19.1820   18.3428   20.9914 H   0  0  0  0  0  0  0  0  0  0  0  0
  1  2  1  0  0  0  0
  1  3  1  0  0  0  0
  1  4  1  0  0  0  0
  1  5  1  0  0  0  0
  5  6  1  0  0  0  0
  5  7  1  0  0  0  0
  5  8  1  0  0  0  0
  8  9  1  0  0  0  0
  8 10  1  0  0  0  0
  8 11  1  0  0  0  0
 11 12  1  0  0  0  0
 11 13  1  0  0  0  0
 11 14  1  0  0  0  0
 14 15  1  0  0  0  0
 14 16  1  0  0  0  0
 14 17  1  0  0  0  0
 17 18  1  0  0  0  0
 17 19  1  0  0  0  0
 17 20  1  0  0  0  0
 20 21  1  0  0  0  0
 20 22  1  0  0  0  0
 22 23  1  0  0  0  0
 22 24  1  0  0  0  0
 22 25  1  0  0  0  0
 20 26  1  0  0  0  0
 26 27  1  0  0  0  0
 26 28  1  0  0  0  0
 26 29  1  0  0  0  0
M  END
> <VConfSearch Rank>
575

> <Conf_Id>
78

> <Delta U+W>
1.477

> <U+W>
-26.349

> <U>
26.385

> <W>
-52.734

> <W(PB)>
-55.179

> <W(SA)>
2.445

> <Valence>
4.726

> <Coulomb>
20.482

> <VdW>
1.177

> <VdW6>
-10.349

> <VdW12>
11.526

> <Bond>
0.319

> <Angle>
1.933

> <Pdih>
2.474

> <Idih>
0.000

> <Tether>
0.000

$$$$
VeraChem MOL file


 29 28  0  0  0  0  0  0  0  0999 V2000     
   19.5389   15.5505   24.7360 C   0  0  0  0  0  0  0  0  0  0  0  0
   18.5042   15.2069   24.6083 H   0  0  0  0  0  0  0  0  0  0  0  0
   19.9098   15.8729   23.7568 H   0  0  0  0  0  0  0  0  0  0  0  0
   20.1395   14.6878   25.0521 H   0  0  0  0  0  0  0  0  0  0  0  0
   19.6182   16.6800   25.7893 C   0  0  0  0  0  0  0  0  0  0  0  0
   20.6648   16.9638   25.9677 H   0  0  0  0  0  0  0  0  0  0  0  0
   19.2472   16.2798   26.7433 H   0  0  0  0  0  0  0  0  0  0  0  0
   18.7770   17.9277   25.4159 C   0  0  0  0  0  0  0  0  0  0  0  0
   17.9218   17.6363   24.7907 H   0  0  0  0  0  0  0  0  0  0  0  0
   18.3424   18.3353   26.3392 H   0  0  0  0  0  0  0  0  0  0  0  0
   19.5718   19.0697   24.7317 C   0  0  0  0  0  0  0  0  0  0  0  0
   20.3571   19.4258   25.4127 H   0  0  0  0  0  0  0  0  0  0  0  0
   18.8854   19.9140   24.5872 H   0  0  0  0  0  0  0  0  0  0  0  0
   20.2068   18.6790   23.3745 C   0  0  0  0  0  0  0  0  0  0  0  0
   20.9525   17.8911   23.5400 H   0  0  0  0  0  0  0  0  0  0  0  0
   19.4434   18.2467   22.7145 H   0  0  0  0  0  0  0  0  0  0  0  0
   20.9184   19.8614   22.6669 C   0  0  0  0  0  0  0  0  0  0  0  0
   21.3748   19.4959   21.7374 H   0  0  0  0  0  0  0  0  0  0  0  0
   21.7491   20.1961   23.3021 H   0  0  0  0  0  0  0  0  0  0  0  0
   20.0188   21.0784   22.3455 C   0  0  2  0  0  0  0  0  0  0  0  0
   19.5850   21.4451   23.2802 H   0  0  0  0  0  0  0  0  0  0  0  0
   18.8718   20.7140   21.3863 C   0  0  0  0  0  0  0  0  0  0  0  0
   18.2813   21.6033   21.1341 H   0  0  0  0  0  0  0  0  0  0  0  0
   19.2564   20.2844   20.4530 H   0  0  0  0  0  0  0  0  0  0  0  0
   18.1875   19.9891   21.8426 H   0  0  0  0  0  0  0  0  0  0  0  0
   20.8269   22.2148   21.7835 N   0  3  0  0  0  0  0  0  0  0  0  0
   21.2683   21.9569   20.8967 H   0  0  0  0  0  0  0  0  0  0  0  0
   21.5711   22.5021   22.4257 H   0  0  0  0  0  0  0  0  0  0  0  0
   20.2430   23.0372   21.6062 H   0  0  0  0  0  0  0  0  0  0  0  0
  1  2  1  0  0  0  0
  1  3  1  0  0  0  0
  1  4  1  0  0  0  0
  1  5  1  0  0  0  0
  5  6  1  0  0  0  0
  5  7  1  0  0  0  0
  5  8  1  0  0  0  0
  8  9  1  0  0  0  0
  8 10  1  0  0  0  0
  8 11  1  0  0  0  0
 11 12  1  0  0  0  0
 11 13  1  0  0  0  0
 11 14  1  0  0  0  0
 14 15  1  0  0  0  0
 14 16  1  0  0  0  0
 14 17  1  0  0  0  0
 17 18  1  0  0  0  0
 17 19  1  0  0  0  0
 17 20  1  0  0  0  0
 20 21  1  0  0  0  0
 20 22  1  0  0  0  0
 22 23  1  0  0  0  0
 22 24  1  0  0  0  0
 22 25  1  0  0  0  0
 20 26  1  0  0  0  0
 26 27  1  0  0  0  0
 26 28  1  0  0  0  0
 26 29  1  0  0  0  0
M  END
> <VConfSearch Rank>
576

> <Conf_Id>
145

> <Delta U+W>
3.784

> <U+W>
-24.042

> <U>
28.220

> <W>
-52.262

> <W(PB)>
-54.724

> <W(SA)>
2.462

> <Valence>
7.040

> <Coulomb>
19.984

> <VdW>
1.197

> <VdW6>
-10.566

> <VdW12>
11.763

> <Bond>
0.320

> <Angle>
2.280

> <Pdih>
4.439

> <Idih>
0.000

> <Tether>
0.000

$$$$
VeraChem MOL file


 29 28  0  0  0  0  0  0  0  0999 V2000     
   19.5875   19.7146   19.6239 C   0  0  0  0  0  0  0  0  0  0  0  0
   19.8084   20.6649   19.1204 H   0  0  0  0  0  0  0  0  0  0  0  0
   20.5160   19.1313   19.6762 H   0  0  0  0  0  0  0  0  0  0  0  0
   18.8755   19.1598   18.9991 H   0  0  0  0  0  0  0  0  0  0  0  0
   19.0043   19.9553   21.0323 C   0  0  0  0  0  0  0  0  0  0  0  0
   18.7552   18.9895   21.4881 H   0  0  0  0  0  0  0  0  0  0  0  0
   18.0600   20.5103   20.9428 H   0  0  0  0  0  0  0  0  0  0  0  0
   19.9867   20.7472   21.9284 C   0  0  0  0  0  0  0  0  0  0  0  0
   20.9602   20.2398   21.9728 H   0  0  0  0  0  0  0  0  0  0  0  0
   20.1742   21.7196   21.4522 H   0  0  0  0  0  0  0  0  0  0  0  0
   19.4489   20.9978   23.3614 C   0  0  0  0  0  0  0  0  0  0  0  0
   18.3505   21.0267   23.3573 H   0  0  0  0  0  0  0  0  0  0  0  0
   19.7690   22.0009   23.6758 H   0  0  0  0  0  0  0  0  0  0  0  0
   19.9518   19.9922   24.4292 C   0  0  0  0  0  0  0  0  0  0  0  0
   21.0460   20.0575   24.4939 H   0  0  0  0  0  0  0  0  0  0  0  0
   19.5658   20.3191   25.4031 H   0  0  0  0  0  0  0  0  0  0  0  0
   19.5277   18.5226   24.1662 C   0  0  0  0  0  0  0  0  0  0  0  0
   19.9909   18.1746   23.2350 H   0  0  0  0  0  0  0  0  0  0  0  0
   18.4423   18.4779   24.0076 H   0  0  0  0  0  0  0  0  0  0  0  0
   19.9102   17.5239   25.2842 C   0  0  2  0  0  0  0  0  0  0  0  0
   19.6238   16.5257   24.9388 H   0  0  0  0  0  0  0  0  0  0  0  0
   19.1480   17.7961   26.5929 C   0  0  0  0  0  0  0  0  0  0  0  0
   19.3298   16.9915   27.3159 H   0  0  0  0  0  0  0  0  0  0  0  0
   19.4597   18.7388   27.0577 H   0  0  0  0  0  0  0  0  0  0  0  0
   18.0669   17.8422   26.4124 H   0  0  0  0  0  0  0  0  0  0  0  0
   21.3938   17.4721   25.5250 N   0  3  0  0  0  0  0  0  0  0  0  0
   21.7454   18.3709   25.8642 H   0  0  0  0  0  0  0  0  0  0  0  0
   21.9054   17.2435   24.6679 H   0  0  0  0  0  0  0  0  0  0  0  0
   21.6348   16.7638   26.2241 H   0  0  0  0  0  0  0  0  0  0  0  0
  1  2  1  0  0  0  0
  1  3  1  0  0  0  0
  1  4  1  0  0  0  0
  1  5  1  0  0  0  0
  5  6  1  0  0  0  0
  5  7  1  0  0  0  0
  5  8  1  0  0  0  0
  8  9  1  0  0  0  0
  8 10  1  0  0  0  0
  8 11  1  0  0  0  0
 11 12  1  0  0  0  0
 11 13  1  0  0  0  0
 11 14  1  0  0  0  0
 14 15  1  0  0  0  0
 14 16  1  0  0  0  0
 14 17  1  0  0  0  0
 17 18  1  0  0  0  0
 17 19  1  0  0  0  0
 17 20  1  0  0  0  0
 20 21  1  0  0  0  0
 20 22  1  0  0  0  0
 22 23  1  0  0  0  0
 22 24  1  0  0  0  0
 22 25  1  0  0  0  0
 20 26  1  0  0  0  0
 26 27  1  0  0  0  0
 26 28  1  0  0  0  0
 26 29  1  0  0  0  0
M  END
> <VConfSearch Rank>
577

> <Conf_Id>
71

> <Delta U+W>
3.542

> <U+W>
-24.284

> <U>
28.217

> <W>
-52.501

> <W(PB)>
-54.947

> <W(SA)>
2.446

> <Valence>
6.821

> <Coulomb>
20.147

> <VdW>
1.249

> <VdW6>
-10.237

> <VdW12>
11.486

> <Bond>
0.317

> <Angle>
1.990

> <Pdih>
4.515

> <Idih>
0.000

> <Tether>
0.000

$$$$
VeraChem MOL file


 29 28  0  0  0  0  0  0  0  0999 V2000     
   20.7852   19.7354   27.3090 C   0  0  0  0  0  0  0  0  0  0  0  0
   19.7141   19.5293   27.4336 H   0  0  0  0  0  0  0  0  0  0  0  0
   21.3448   19.0251   27.9316 H   0  0  0  0  0  0  0  0  0  0  0  0
   20.9809   20.7456   27.6914 H   0  0  0  0  0  0  0  0  0  0  0  0
   21.2024   19.6232   25.8275 C   0  0  0  0  0  0  0  0  0  0  0  0
   22.2695   19.8680   25.7326 H   0  0  0  0  0  0  0  0  0  0  0  0
   20.6576   20.3744   25.2434 H   0  0  0  0  0  0  0  0  0  0  0  0
   20.9458   18.2026   25.2693 C   0  0  0  0  0  0  0  0  0  0  0  0
   21.5354   17.4913   25.8641 H   0  0  0  0  0  0  0  0  0  0  0  0
   19.8943   17.9183   25.4128 H   0  0  0  0  0  0  0  0  0  0  0  0
   21.3433   18.0427   23.7786 C   0  0  0  0  0  0  0  0  0  0  0  0
   21.7553   17.0332   23.6419 H   0  0  0  0  0  0  0  0  0  0  0  0
   22.1608   18.7317   23.5252 H   0  0  0  0  0  0  0  0  0  0  0  0
   20.1741   18.2082   22.7739 C   0  0  0  0  0  0  0  0  0  0  0  0
   20.5589   17.9922   21.7688 H   0  0  0  0  0  0  0  0  0  0  0  0
   19.4147   17.4431   22.9835 H   0  0  0  0  0  0  0  0  0  0  0  0
   19.5201   19.6154   22.7875 C   0  0  0  0  0  0  0  0  0  0  0  0
   20.3040   20.3805   22.7158 H   0  0  0  0  0  0  0  0  0  0  0  0
   19.0191   19.7742   23.7505 H   0  0  0  0  0  0  0  0  0  0  0  0
   18.4882   19.8630   21.6621 C   0  0  2  0  0  0  0  0  0  0  0  0
   18.1089   20.8819   21.7871 H   0  0  0  0  0  0  0  0  0  0  0  0
   17.2886   18.9042   21.7575 C   0  0  0  0  0  0  0  0  0  0  0  0
   16.8384   18.9416   22.7572 H   0  0  0  0  0  0  0  0  0  0  0  0
   16.5143   19.1852   21.0332 H   0  0  0  0  0  0  0  0  0  0  0  0
   17.5811   17.8679   21.5504 H   0  0  0  0  0  0  0  0  0  0  0  0
   19.1082   19.8157   20.2926 N   0  3  0  0  0  0  0  0  0  0  0  0
   19.8808   20.4824   20.2071 H   0  0  0  0  0  0  0  0  0  0  0  0
   18.4250   20.0437   19.5647 H   0  0  0  0  0  0  0  0  0  0  0  0
   19.4792   18.8853   20.0848 H   0  0  0  0  0  0  0  0  0  0  0  0
  1  2  1  0  0  0  0
  1  3  1  0  0  0  0
  1  4  1  0  0  0  0
  1  5  1  0  0  0  0
  5  6  1  0  0  0  0
  5  7  1  0  0  0  0
  5  8  1  0  0  0  0
  8  9  1  0  0  0  0
  8 10  1  0  0  0  0
  8 11  1  0  0  0  0
 11 12  1  0  0  0  0
 11 13  1  0  0  0  0
 11 14  1  0  0  0  0
 14 15  1  0  0  0  0
 14 16  1  0  0  0  0
 14 17  1  0  0  0  0
 17 18  1  0  0  0  0
 17 19  1  0  0  0  0
 17 20  1  0  0  0  0
 20 21  1  0  0  0  0
 20 22  1  0  0  0  0
 22 23  1  0  0  0  0
 22 24  1  0  0  0  0
 22 25  1  0  0  0  0
 20 26  1  0  0  0  0
 26 27  1  0  0  0  0
 26 28  1  0  0  0  0
 26 29  1  0  0  0  0
M  END
> <VConfSearch Rank>
578

> <Conf_Id>
163

> <Delta U+W>
3.309

> <U+W>
-24.517

> <U>
27.916

> <W>
-52.433

> <W(PB)>
-54.866

> <W(SA)>
2.433

> <Valence>
6.693

> <Coulomb>
20.015

> <VdW>
1.208

> <VdW6>
-10.294

> <VdW12>
11.503

> <Bond>
0.312

> <Angle>
1.939

> <Pdih>
4.441

> <Idih>
0.000

> <Tether>
0.000

$$$$
VeraChem MOL file


 29 28  0  0  0  0  0  0  0  0999 V2000     
   17.4146   21.1842   21.0607 C   0  0  0  0  0  0  0  0  0  0  0  0
   17.6208   22.2329   21.3112 H   0  0  0  0  0  0  0  0  0  0  0  0
   18.1916   20.8361   20.3692 H   0  0  0  0  0  0  0  0  0  0  0  0
   16.4574   21.1491   20.5247 H   0  0  0  0  0  0  0  0  0  0  0  0
   17.3530   20.3105   22.3342 C   0  0  0  0  0  0  0  0  0  0  0  0
   17.1812   19.2615   22.0555 H   0  0  0  0  0  0  0  0  0  0  0  0
   16.4816   20.6169   22.9296 H   0  0  0  0  0  0  0  0  0  0  0  0
   18.6188   20.4171   23.2186 C   0  0  0  0  0  0  0  0  0  0  0  0
   18.7842   21.4666   23.4980 H   0  0  0  0  0  0  0  0  0  0  0  0
   18.4251   19.8739   24.1525 H   0  0  0  0  0  0  0  0  0  0  0  0
   19.8924   19.8486   22.5431 C   0  0  0  0  0  0  0  0  0  0  0  0
   20.0833   20.3924   21.6090 H   0  0  0  0  0  0  0  0  0  0  0  0
   19.7223   18.8028   22.2554 H   0  0  0  0  0  0  0  0  0  0  0  0
   21.1632   19.9596   23.4253 C   0  0  0  0  0  0  0  0  0  0  0  0
   22.0247   19.5904   22.8528 H   0  0  0  0  0  0  0  0  0  0  0  0
   21.3712   21.0207   23.6201 H   0  0  0  0  0  0  0  0  0  0  0  0
   21.0896   19.2090   24.7820 C   0  0  0  0  0  0  0  0  0  0  0  0
   20.3610   19.7096   25.4324 H   0  0  0  0  0  0  0  0  0  0  0  0
   22.0576   19.3005   25.2922 H   0  0  0  0  0  0  0  0  0  0  0  0
   20.7171   17.7152   24.6576 C   0  0  2  0  0  0  0  0  0  0  0  0
   19.7501   17.6430   24.1509 H   0  0  0  0  0  0  0  0  0  0  0  0
   20.5778   17.0797   26.0498 C   0  0  0  0  0  0  0  0  0  0  0  0
   20.2767   16.0281   25.9681 H   0  0  0  0  0  0  0  0  0  0  0  0
   21.5248   17.1224   26.6024 H   0  0  0  0  0  0  0  0  0  0  0  0
   19.8135   17.5999   26.6406 H   0  0  0  0  0  0  0  0  0  0  0  0
   21.7041   16.9488   23.8207 N   0  3  0  0  0  0  0  0  0  0  0  0
   21.7813   17.3472   22.8810 H   0  0  0  0  0  0  0  0  0  0  0  0
   21.4281   15.9680   23.7190 H   0  0  0  0  0  0  0  0  0  0  0  0
   22.6378   16.9634   24.2397 H   0  0  0  0  0  0  0  0  0  0  0  0
  1  2  1  0  0  0  0
  1  3  1  0  0  0  0
  1  4  1  0  0  0  0
  1  5  1  0  0  0  0
  5  6  1  0  0  0  0
  5  7  1  0  0  0  0
  5  8  1  0  0  0  0
  8  9  1  0  0  0  0
  8 10  1  0  0  0  0
  8 11  1  0  0  0  0
 11 12  1  0  0  0  0
 11 13  1  0  0  0  0
 11 14  1  0  0  0  0
 14 15  1  0  0  0  0
 14 16  1  0  0  0  0
 14 17  1  0  0  0  0
 17 18  1  0  0  0  0
 17 19  1  0  0  0  0
 17 20  1  0  0  0  0
 20 21  1  0  0  0  0
 20 22  1  0  0  0  0
 22 23  1  0  0  0  0
 22 24  1  0  0  0  0
 22 25  1  0  0  0  0
 20 26  1  0  0  0  0
 26 27  1  0  0  0  0
 26 28  1  0  0  0  0
 26 29  1  0  0  0  0
M  END
> <VConfSearch Rank>
579

> <Conf_Id>
173

> <Delta U+W>
1.363

> <U+W>
-26.462

> <U>
25.816

> <W>
-52.279

> <W(PB)>
-54.727

> <W(SA)>
2.449

> <Valence>
4.504

> <Coulomb>
20.342

> <VdW>
0.971

> <VdW6>
-10.532

> <VdW12>
11.503

> <Bond>
0.307

> <Angle>
1.715

> <Pdih>
2.481

> <Idih>
0.000

> <Tether>
0.000

$$$$
VeraChem MOL file


 29 28  0  0  0  0  0  0  0  0999 V2000     
   17.7471   17.0077   26.0663 C   0  0  0  0  0  0  0  0  0  0  0  0
   18.4617   17.0189   26.8996 H   0  0  0  0  0  0  0  0  0  0  0  0
   16.7660   17.3129   26.4529 H   0  0  0  0  0  0  0  0  0  0  0  0
   17.6614   15.9732   25.7094 H   0  0  0  0  0  0  0  0  0  0  0  0
   18.2097   17.9405   24.9271 C   0  0  0  0  0  0  0  0  0  0  0  0
   17.4902   17.8880   24.0983 H   0  0  0  0  0  0  0  0  0  0  0  0
   19.1736   17.5798   24.5444 H   0  0  0  0  0  0  0  0  0  0  0  0
   18.3483   19.4028   25.4084 C   0  0  0  0  0  0  0  0  0  0  0  0
   17.4124   19.7080   25.8964 H   0  0  0  0  0  0  0  0  0  0  0  0
   19.1276   19.4596   26.1808 H   0  0  0  0  0  0  0  0  0  0  0  0
   18.6643   20.4214   24.2828 C   0  0  0  0  0  0  0  0  0  0  0  0
   18.6983   21.4196   24.7410 H   0  0  0  0  0  0  0  0  0  0  0  0
   17.8363   20.4559   23.5615 H   0  0  0  0  0  0  0  0  0  0  0  0
   20.0097   20.1795   23.5499 C   0  0  0  0  0  0  0  0  0  0  0  0
   20.4538   21.1570   23.3195 H   0  0  0  0  0  0  0  0  0  0  0  0
   20.7117   19.6780   24.2283 H   0  0  0  0  0  0  0  0  0  0  0  0
   19.8481   19.3846   22.2244 C   0  0  0  0  0  0  0  0  0  0  0  0
   19.1828   19.9439   21.5536 H   0  0  0  0  0  0  0  0  0  0  0  0
   19.3437   18.4302   22.4120 H   0  0  0  0  0  0  0  0  0  0  0  0
   21.1691   19.1003   21.4717 C   0  0  2  0  0  0  0  0  0  0  0  0
   20.9077   18.5965   20.5360 H   0  0  0  0  0  0  0  0  0  0  0  0
   22.0927   18.1580   22.2633 C   0  0  0  0  0  0  0  0  0  0  0  0
   21.5613   17.2426   22.5519 H   0  0  0  0  0  0  0  0  0  0  0  0
   22.9541   17.8631   21.6516 H   0  0  0  0  0  0  0  0  0  0  0  0
   22.4764   18.6341   23.1732 H   0  0  0  0  0  0  0  0  0  0  0  0
   21.8914   20.3596   21.0792 N   0  3  0  0  0  0  0  0  0  0  0  0
   21.2970   20.9723   20.5135 H   0  0  0  0  0  0  0  0  0  0  0  0
   22.7305   20.1538   20.5295 H   0  0  0  0  0  0  0  0  0  0  0  0
   22.1860   20.8900   21.9029 H   0  0  0  0  0  0  0  0  0  0  0  0
  1  2  1  0  0  0  0
  1  3  1  0  0  0  0
  1  4  1  0  0  0  0
  1  5  1  0  0  0  0
  5  6  1  0  0  0  0
  5  7  1  0  0  0  0
  5  8  1  0  0  0  0
  8  9  1  0  0  0  0
  8 10  1  0  0  0  0
  8 11  1  0  0  0  0
 11 12  1  0  0  0  0
 11 13  1  0  0  0  0
 11 14  1  0  0  0  0
 14 15  1  0  0  0  0
 14 16  1  0  0  0  0
 14 17  1  0  0  0  0
 17 18  1  0  0  0  0
 17 19  1  0  0  0  0
 17 20  1  0  0  0  0
 20 21  1  0  0  0  0
 20 22  1  0  0  0  0
 22 23  1  0  0  0  0
 22 24  1  0  0  0  0
 22 25  1  0  0  0  0
 20 26  1  0  0  0  0
 26 27  1  0  0  0  0
 26 28  1  0  0  0  0
 26 29  1  0  0  0  0
M  END
> <VConfSearch Rank>
580

> <Conf_Id>
117

> <Delta U+W>
3.377

> <U+W>
-24.449

> <U>
27.947

> <W>
-52.396

> <W(PB)>
-54.842

> <W(SA)>
2.447

> <Valence>
6.731

> <Coulomb>
20.067

> <VdW>
1.149

> <VdW6>
-10.427

> <VdW12>
11.575

> <Bond>
0.324

> <Angle>
1.943

> <Pdih>
4.465

> <Idih>
0.000

> <Tether>
0.000

$$$$
VeraChem MOL file


 29 28  0  0  0  0  0  0  0  0999 V2000     
   24.4985   18.4005   22.8212 C   0  0  0  0  0  0  0  0  0  0  0  0
   24.5251   17.5473   23.5116 H   0  0  0  0  0  0  0  0  0  0  0  0
   24.3893   18.0112   21.8005 H   0  0  0  0  0  0  0  0  0  0  0  0
   25.4660   18.9153   22.8840 H   0  0  0  0  0  0  0  0  0  0  0  0
   23.3450   19.3634   23.1738 C   0  0  0  0  0  0  0  0  0  0  0  0
   23.3648   20.2223   22.4884 H   0  0  0  0  0  0  0  0  0  0  0  0
   23.4995   19.7620   24.1863 H   0  0  0  0  0  0  0  0  0  0  0  0
   21.9706   18.6632   23.0930 C   0  0  0  0  0  0  0  0  0  0  0  0
   21.8218   18.2645   22.0800 H   0  0  0  0  0  0  0  0  0  0  0  0
   21.9566   17.8041   23.7780 H   0  0  0  0  0  0  0  0  0  0  0  0
   20.8130   19.6244   23.4454 C   0  0  0  0  0  0  0  0  0  0  0  0
   20.8291   20.4835   22.7605 H   0  0  0  0  0  0  0  0  0  0  0  0
   20.9625   20.0224   24.4587 H   0  0  0  0  0  0  0  0  0  0  0  0
   19.4381   18.9236   23.3637 C   0  0  0  0  0  0  0  0  0  0  0  0
   19.2879   18.5290   22.3492 H   0  0  0  0  0  0  0  0  0  0  0  0
   19.4322   18.0630   24.0457 H   0  0  0  0  0  0  0  0  0  0  0  0
   18.2805   19.8883   23.7184 C   0  0  0  0  0  0  0  0  0  0  0  0
   18.3370   20.7668   23.0618 H   0  0  0  0  0  0  0  0  0  0  0  0
   18.4049   20.2562   24.7456 H   0  0  0  0  0  0  0  0  0  0  0  0
   16.8875   19.2405   23.5638 C   0  0  2  0  0  0  0  0  0  0  0  0
   16.7972   18.8612   22.5412 H   0  0  0  0  0  0  0  0  0  0  0  0
   15.7839   20.2860   23.7900 C   0  0  0  0  0  0  0  0  0  0  0  0
   14.7917   19.8407   23.6457 H   0  0  0  0  0  0  0  0  0  0  0  0
   15.8294   20.6978   24.8060 H   0  0  0  0  0  0  0  0  0  0  0  0
   15.8821   21.1166   23.0799 H   0  0  0  0  0  0  0  0  0  0  0  0
   16.6948   18.0638   24.4809 N   0  3  0  0  0  0  0  0  0  0  0  0
   17.3970   17.3388   24.3111 H   0  0  0  0  0  0  0  0  0  0  0  0
   15.7739   17.6351   24.3509 H   0  0  0  0  0  0  0  0  0  0  0  0
   16.7682   18.3409   25.4634 H   0  0  0  0  0  0  0  0  0  0  0  0
  1  2  1  0  0  0  0
  1  3  1  0  0  0  0
  1  4  1  0  0  0  0
  1  5  1  0  0  0  0
  5  6  1  0  0  0  0
  5  7  1  0  0  0  0
  5  8  1  0  0  0  0
  8  9  1  0  0  0  0
  8 10  1  0  0  0  0
  8 11  1  0  0  0  0
 11 12  1  0  0  0  0
 11 13  1  0  0  0  0
 11 14  1  0  0  0  0
 14 15  1  0  0  0  0
 14 16  1  0  0  0  0
 14 17  1  0  0  0  0
 17 18  1  0  0  0  0
 17 19  1  0  0  0  0
 17 20  1  0  0  0  0
 20 21  1  0  0  0  0
 20 22  1  0  0  0  0
 22 23  1  0  0  0  0
 22 24  1  0  0  0  0
 22 25  1  0  0  0  0
 20 26  1  0  0  0  0
 26 27  1  0  0  0  0
 26 28  1  0  0  0  0
 26 29  1  0  0  0  0
M  END
> <VConfSearch Rank>
581

> <Conf_Id>
164

> <Delta U+W>
0.000

> <U+W>
-27.826

> <U>
23.963

> <W>
-51.789

> <W(PB)>
-54.342

> <W(SA)>
2.554

> <Valence>
3.166

> <Coulomb>
19.734

> <VdW>
1.062

> <VdW6>
-7.938

> <VdW12>
9.001

> <Bond>
0.188

> <Angle>
0.880

> <Pdih>
2.098

> <Idih>
0.000

> <Tether>
0.000

$$$$
VeraChem MOL file


 29 28  0  0  0  0  0  0  0  0999 V2000     
   21.5264   14.5719   23.7524 C   0  0  0  0  0  0  0  0  0  0  0  0
   21.3958   14.3633   22.6825 H   0  0  0  0  0  0  0  0  0  0  0  0
   22.5603   14.9049   23.9121 H   0  0  0  0  0  0  0  0  0  0  0  0
   21.3873   13.6301   24.2989 H   0  0  0  0  0  0  0  0  0  0  0  0
   20.5197   15.6368   24.2366 C   0  0  0  0  0  0  0  0  0  0  0  0
   20.6518   15.7994   25.3155 H   0  0  0  0  0  0  0  0  0  0  0  0
   19.4963   15.2619   24.0954 H   0  0  0  0  0  0  0  0  0  0  0  0
   20.6942   16.9735   23.4825 C   0  0  0  0  0  0  0  0  0  0  0  0
   21.7192   17.3429   23.6247 H   0  0  0  0  0  0  0  0  0  0  0  0
   20.5634   16.8055   22.4045 H   0  0  0  0  0  0  0  0  0  0  0  0
   19.6877   18.0424   23.9648 C   0  0  0  0  0  0  0  0  0  0  0  0
   19.8193   18.2101   25.0428 H   0  0  0  0  0  0  0  0  0  0  0  0
   18.6633   17.6709   23.8233 H   0  0  0  0  0  0  0  0  0  0  0  0
   19.8624   19.3795   23.2097 C   0  0  0  0  0  0  0  0  0  0  0  0
   20.8908   19.7372   23.3505 H   0  0  0  0  0  0  0  0  0  0  0  0
   19.7258   19.2125   22.1322 H   0  0  0  0  0  0  0  0  0  0  0  0
   18.8559   20.4502   23.6981 C   0  0  0  0  0  0  0  0  0  0  0  0
   19.0326   20.6676   24.7599 H   0  0  0  0  0  0  0  0  0  0  0  0
   17.8423   20.0334   23.6303 H   0  0  0  0  0  0  0  0  0  0  0  0
   18.8995   21.7635   22.8841 C   0  0  2  0  0  0  0  0  0  0  0  0
   18.7631   21.5167   21.8267 H   0  0  0  0  0  0  0  0  0  0  0  0
   20.2411   22.5012   23.0434 C   0  0  0  0  0  0  0  0  0  0  0  0
   20.4536   22.7149   24.0983 H   0  0  0  0  0  0  0  0  0  0  0  0
   21.0712   21.9116   22.6376 H   0  0  0  0  0  0  0  0  0  0  0  0
   20.2247   23.4540   22.5000 H   0  0  0  0  0  0  0  0  0  0  0  0
   17.7603   22.6706   23.2580 N   0  3  0  0  0  0  0  0  0  0  0  0
   17.7619   23.5251   22.6936 H   0  0  0  0  0  0  0  0  0  0  0  0
   17.8143   22.9534   24.2403 H   0  0  0  0  0  0  0  0  0  0  0  0
   16.8538   22.2150   23.1182 H   0  0  0  0  0  0  0  0  0  0  0  0
  1  2  1  0  0  0  0
  1  3  1  0  0  0  0
  1  4  1  0  0  0  0
  1  5  1  0  0  0  0
  5  6  1  0  0  0  0
  5  7  1  0  0  0  0
  5  8  1  0  0  0  0
  8  9  1  0  0  0  0
  8 10  1  0  0  0  0
  8 11  1  0  0  0  0
 11 12  1  0  0  0  0
 11 13  1  0  0  0  0
 11 14  1  0  0  0  0
 14 15  1  0  0  0  0
 14 16  1  0  0  0  0
 14 17  1  0  0  0  0
 17 18  1  0  0  0  0
 17 19  1  0  0  0  0
 17 20  1  0  0  0  0
 20 21  1  0  0  0  0
 20 22  1  0  0  0  0
 22 23  1  0  0  0  0
 22 24  1  0  0  0  0
 22 25  1  0  0  0  0
 20 26  1  0  0  0  0
 26 27  1  0  0  0  0
 26 28  1  0  0  0  0
 26 29  1  0  0  0  0
M  END
> <VConfSearch Rank>
582

> <Conf_Id>
58

> <Delta U+W>
0.412

> <U+W>
-27.414

> <U>
24.279

> <W>
-51.694

> <W(PB)>
-54.271

> <W(SA)>
2.577

> <Valence>
3.709

> <Coulomb>
19.380

> <VdW>
1.191

> <VdW6>
-8.093

> <VdW12>
9.284

> <Bond>
0.200

> <Angle>
1.161

> <Pdih>
2.348

> <Idih>
0.000

> <Tether>
0.000

$$$$
VeraChem MOL file


 29 28  0  0  0  0  0  0  0  0999 V2000     
   15.2834   18.5693   22.0679 C   0  0  0  0  0  0  0  0  0  0  0  0
   15.5890   18.1891   21.0844 H   0  0  0  0  0  0  0  0  0  0  0  0
   15.1257   17.7101   22.7328 H   0  0  0  0  0  0  0  0  0  0  0  0
   14.3208   19.0828   21.9465 H   0  0  0  0  0  0  0  0  0  0  0  0
   16.3444   19.5300   22.6452 C   0  0  0  0  0  0  0  0  0  0  0  0
   15.9959   19.9196   23.6120 H   0  0  0  0  0  0  0  0  0  0  0  0
   16.4556   20.3948   21.9762 H   0  0  0  0  0  0  0  0  0  0  0  0
   17.7101   18.8316   22.8262 C   0  0  0  0  0  0  0  0  0  0  0  0
   17.5935   17.9667   23.4939 H   0  0  0  0  0  0  0  0  0  0  0  0
   18.0531   18.4417   21.8578 H   0  0  0  0  0  0  0  0  0  0  0  0
   18.7753   19.7907   23.4039 C   0  0  0  0  0  0  0  0  0  0  0  0
   18.4308   20.1803   24.3719 H   0  0  0  0  0  0  0  0  0  0  0  0
   18.8908   20.6553   22.7358 H   0  0  0  0  0  0  0  0  0  0  0  0
   20.1417   19.0917   23.5847 C   0  0  0  0  0  0  0  0  0  0  0  0
   20.0190   18.2283   24.2518 H   0  0  0  0  0  0  0  0  0  0  0  0
   20.4747   18.7019   22.6139 H   0  0  0  0  0  0  0  0  0  0  0  0
   21.2070   20.0602   24.1615 C   0  0  0  0  0  0  0  0  0  0  0  0
   20.8386   20.4796   25.1069 H   0  0  0  0  0  0  0  0  0  0  0  0
   21.3291   20.9127   23.4802 H   0  0  0  0  0  0  0  0  0  0  0  0
   22.5945   19.4256   24.4167 C   0  0  2  0  0  0  0  0  0  0  0  0
   23.2332   20.2029   24.8476 H   0  0  0  0  0  0  0  0  0  0  0  0
   23.2600   18.9458   23.1151 C   0  0  0  0  0  0  0  0  0  0  0  0
   24.2921   18.6278   23.3069 H   0  0  0  0  0  0  0  0  0  0  0  0
   22.7246   18.0962   22.6748 H   0  0  0  0  0  0  0  0  0  0  0  0
   23.2933   19.7535   22.3734 H   0  0  0  0  0  0  0  0  0  0  0  0
   22.5412   18.3191   25.4338 N   0  3  0  0  0  0  0  0  0  0  0  0
   22.1401   18.6419   26.3190 H   0  0  0  0  0  0  0  0  0  0  0  0
   23.4755   17.9522   25.6368 H   0  0  0  0  0  0  0  0  0  0  0  0
   21.9697   17.5379   25.1027 H   0  0  0  0  0  0  0  0  0  0  0  0
  1  2  1  0  0  0  0
  1  3  1  0  0  0  0
  1  4  1  0  0  0  0
  1  5  1  0  0  0  0
  5  6  1  0  0  0  0
  5  7  1  0  0  0  0
  5  8  1  0  0  0  0
  8  9  1  0  0  0  0
  8 10  1  0  0  0  0
  8 11  1  0  0  0  0
 11 12  1  0  0  0  0
 11 13  1  0  0  0  0
 11 14  1  0  0  0  0
 14 15  1  0  0  0  0
 14 16  1  0  0  0  0
 14 17  1  0  0  0  0
 17 18  1  0  0  0  0
 17 19  1  0  0  0  0
 17 20  1  0  0  0  0
 20 21  1  0  0  0  0
 20 22  1  0  0  0  0
 22 23  1  0  0  0  0
 22 24  1  0  0  0  0
 22 25  1  0  0  0  0
 20 26  1  0  0  0  0
 26 27  1  0  0  0  0
 26 28  1  0  0  0  0
 26 29  1  0  0  0  0
M  END
> <VConfSearch Rank>
583

> <Conf_Id>
137

> <Delta U+W>
0.280

> <U+W>
-27.546

> <U>
24.513

> <W>
-52.059

> <W(PB)>
-54.556

> <W(SA)>
2.497

> <Valence>
3.677

> <Coulomb>
19.662

> <VdW>
1.174

> <VdW6>
-8.569

> <VdW12>
9.743

> <Bond>
0.224

> <Angle>
1.211

> <Pdih>
2.243

> <Idih>
0.000

> <Tether>
0.000

$$$$
VeraChem MOL file


 29 28  0  0  0  0  0  0  0  0999 V2000     
   22.1409   22.8885   23.0696 C   0  0  0  0  0  0  0  0  0  0  0  0
   21.3467   23.1312   22.3516 H   0  0  0  0  0  0  0  0  0  0  0  0
   21.8515   23.2915   24.0489 H   0  0  0  0  0  0  0  0  0  0  0  0
   23.0546   23.4056   22.7490 H   0  0  0  0  0  0  0  0  0  0  0  0
   22.3749   21.3648   23.1441 C   0  0  0  0  0  0  0  0  0  0  0  0
   23.1971   21.1564   23.8429 H   0  0  0  0  0  0  0  0  0  0  0  0
   22.6946   20.9963   22.1592 H   0  0  0  0  0  0  0  0  0  0  0  0
   21.1032   20.6122   23.5943 C   0  0  0  0  0  0  0  0  0  0  0  0
   20.7893   20.9823   24.5800 H   0  0  0  0  0  0  0  0  0  0  0  0
   20.2890   20.8377   22.8937 H   0  0  0  0  0  0  0  0  0  0  0  0
   21.3362   19.0836   23.6650 C   0  0  0  0  0  0  0  0  0  0  0  0
   22.2089   18.8867   24.3030 H   0  0  0  0  0  0  0  0  0  0  0  0
   21.5916   18.7002   22.6674 H   0  0  0  0  0  0  0  0  0  0  0  0
   20.1302   18.2942   24.2317 C   0  0  0  0  0  0  0  0  0  0  0  0
   20.4499   17.2549   24.3799 H   0  0  0  0  0  0  0  0  0  0  0  0
   19.8705   18.6834   25.2259 H   0  0  0  0  0  0  0  0  0  0  0  0
   18.8806   18.3276   23.3134 C   0  0  0  0  0  0  0  0  0  0  0  0
   19.1374   17.9288   22.3231 H   0  0  0  0  0  0  0  0  0  0  0  0
   18.5769   19.3701   23.1607 H   0  0  0  0  0  0  0  0  0  0  0  0
   17.6675   17.5579   23.8848 C   0  0  2  0  0  0  0  0  0  0  0  0
   17.4693   17.9302   24.8947 H   0  0  0  0  0  0  0  0  0  0  0  0
   17.9232   16.0420   23.9647 C   0  0  0  0  0  0  0  0  0  0  0  0
   18.1945   15.6330   22.9835 H   0  0  0  0  0  0  0  0  0  0  0  0
   18.7291   15.8086   24.6697 H   0  0  0  0  0  0  0  0  0  0  0  0
   17.0258   15.5172   24.3151 H   0  0  0  0  0  0  0  0  0  0  0  0
   16.4262   17.8312   23.0816 N   0  3  0  0  0  0  0  0  0  0  0  0
   16.2088   18.8316   23.0515 H   0  0  0  0  0  0  0  0  0  0  0  0
   15.6114   17.3546   23.4788 H   0  0  0  0  0  0  0  0  0  0  0  0
   16.5275   17.5088   22.1154 H   0  0  0  0  0  0  0  0  0  0  0  0
  1  2  1  0  0  0  0
  1  3  1  0  0  0  0
  1  4  1  0  0  0  0
  1  5  1  0  0  0  0
  5  6  1  0  0  0  0
  5  7  1  0  0  0  0
  5  8  1  0  0  0  0
  8  9  1  0  0  0  0
  8 10  1  0  0  0  0
  8 11  1  0  0  0  0
 11 12  1  0  0  0  0
 11 13  1  0  0  0  0
 11 14  1  0  0  0  0
 14 15  1  0  0  0  0
 14 16  1  0  0  0  0
 14 17  1  0  0  0  0
 17 18  1  0  0  0  0
 17 19  1  0  0  0  0
 17 20  1  0  0  0  0
 20 21  1  0  0  0  0
 20 22  1  0  0  0  0
 22 23  1  0  0  0  0
 22 24  1  0  0  0  0
 22 25  1  0  0  0  0
 20 26  1  0  0  0  0
 26 27  1  0  0  0  0
 26 28  1  0  0  0  0
 26 29  1  0  0  0  0
M  END
> <VConfSearch Rank>
584

> <Conf_Id>
40

> <Delta U+W>
1.128

> <U+W>
-26.698

> <U>
25.442

> <W>
-52.140

> <W(PB)>
-54.658

> <W(SA)>
2.519

> <Valence>
4.343

> <Coulomb>
19.740

> <VdW>
1.360

> <VdW6>
-8.739

> <VdW12>
10.099

> <Bond>
0.251

> <Angle>
1.483

> <Pdih>
2.608

> <Idih>
0.000

> <Tether>
0.000

$$$$
VeraChem MOL file


 29 28  0  0  0  0  0  0  0  0999 V2000     
   22.9136   20.4130   20.7889 C   0  0  0  0  0  0  0  0  0  0  0  0
   22.0207   20.8521   20.3274 H   0  0  0  0  0  0  0  0  0  0  0  0
   23.3251   21.1385   21.5026 H   0  0  0  0  0  0  0  0  0  0  0  0
   23.6563   20.2661   19.9941 H   0  0  0  0  0  0  0  0  0  0  0  0
   22.5935   19.0699   21.4838 C   0  0  0  0  0  0  0  0  0  0  0  0
   23.5360   18.6112   21.8141 H   0  0  0  0  0  0  0  0  0  0  0  0
   22.1508   18.3736   20.7580 H   0  0  0  0  0  0  0  0  0  0  0  0
   21.6580   19.2148   22.7086 C   0  0  0  0  0  0  0  0  0  0  0  0
   21.6053   18.2401   23.2097 H   0  0  0  0  0  0  0  0  0  0  0  0
   22.1052   19.9116   23.4307 H   0  0  0  0  0  0  0  0  0  0  0  0
   20.2288   19.6884   22.3400 C   0  0  0  0  0  0  0  0  0  0  0  0
   19.7790   18.9887   21.6223 H   0  0  0  0  0  0  0  0  0  0  0  0
   20.2880   20.6583   21.8297 H   0  0  0  0  0  0  0  0  0  0  0  0
   19.2927   19.8510   23.5632 C   0  0  0  0  0  0  0  0  0  0  0  0
   19.7525   20.5357   24.2893 H   0  0  0  0  0  0  0  0  0  0  0  0
   18.3708   20.3385   23.2201 H   0  0  0  0  0  0  0  0  0  0  0  0
   18.9393   18.5107   24.2584 C   0  0  0  0  0  0  0  0  0  0  0  0
   19.8582   18.0378   24.6257 H   0  0  0  0  0  0  0  0  0  0  0  0
   18.4987   17.8183   23.5288 H   0  0  0  0  0  0  0  0  0  0  0  0
   17.9757   18.6879   25.4522 C   0  0  2  0  0  0  0  0  0  0  0  0
   18.4185   19.4089   26.1463 H   0  0  0  0  0  0  0  0  0  0  0  0
   17.7927   17.3540   26.1937 C   0  0  0  0  0  0  0  0  0  0  0  0
   17.1367   17.4802   27.0638 H   0  0  0  0  0  0  0  0  0  0  0  0
   17.3496   16.5933   25.5387 H   0  0  0  0  0  0  0  0  0  0  0  0
   18.7560   16.9737   26.5560 H   0  0  0  0  0  0  0  0  0  0  0  0
   16.6412   19.2465   25.0396 N   0  3  0  0  0  0  0  0  0  0  0  0
   16.1638   18.6244   24.3819 H   0  0  0  0  0  0  0  0  0  0  0  0
   16.7414   20.1581   24.5852 H   0  0  0  0  0  0  0  0  0  0  0  0
   16.0231   19.3728   25.8463 H   0  0  0  0  0  0  0  0  0  0  0  0
  1  2  1  0  0  0  0
  1  3  1  0  0  0  0
  1  4  1  0  0  0  0
  1  5  1  0  0  0  0
  5  6  1  0  0  0  0
  5  7  1  0  0  0  0
  5  8  1  0  0  0  0
  8  9  1  0  0  0  0
  8 10  1  0  0  0  0
  8 11  1  0  0  0  0
 11 12  1  0  0  0  0
 11 13  1  0  0  0  0
 11 14  1  0  0  0  0
 14 15  1  0  0  0  0
 14 16  1  0  0  0  0
 14 17  1  0  0  0  0
 17 18  1  0  0  0  0
 17 19  1  0  0  0  0
 17 20  1  0  0  0  0
 20 21  1  0  0  0  0
 20 22  1  0  0  0  0
 22 23  1  0  0  0  0
 22 24  1  0  0  0  0
 22 25  1  0  0  0  0
 20 26  1  0  0  0  0
 26 27  1  0  0  0  0
 26 28  1  0  0  0  0
 26 29  1  0  0  0  0
M  END
> <VConfSearch Rank>
585

> <Conf_Id>
134

> <Delta U+W>
1.228

> <U+W>
-26.598

> <U>
25.451

> <W>
-52.048

> <W(PB)>
-54.539

> <W(SA)>
2.490

> <Valence>
4.319

> <Coulomb>
19.732

> <VdW>
1.400

> <VdW6>
-9.173

> <VdW12>
10.573

> <Bond>
0.281

> <Angle>
1.459

> <Pdih>
2.580

> <Idih>
0.000

> <Tether>
0.000

$$$$
VeraChem MOL file


 29 28  0  0  0  0  0  0  0  0999 V2000     
   15.6789   20.3423   23.0385 C   0  0  0  0  0  0  0  0  0  0  0  0
   15.5263   19.4991   23.7233 H   0  0  0  0  0  0  0  0  0  0  0  0
   15.8627   21.2438   23.6373 H   0  0  0  0  0  0  0  0  0  0  0  0
   14.7420   20.4915   22.4864 H   0  0  0  0  0  0  0  0  0  0  0  0
   16.8460   20.0773   22.0604 C   0  0  0  0  0  0  0  0  0  0  0  0
   16.8744   20.8874   21.3183 H   0  0  0  0  0  0  0  0  0  0  0  0
   16.6554   19.1524   21.4984 H   0  0  0  0  0  0  0  0  0  0  0  0
   18.2271   19.9933   22.7544 C   0  0  0  0  0  0  0  0  0  0  0  0
   18.9960   19.9416   21.9731 H   0  0  0  0  0  0  0  0  0  0  0  0
   18.4137   20.9208   23.3129 H   0  0  0  0  0  0  0  0  0  0  0  0
   18.3682   18.7746   23.7014 C   0  0  0  0  0  0  0  0  0  0  0  0
   18.1831   17.8471   23.1424 H   0  0  0  0  0  0  0  0  0  0  0  0
   17.5961   18.8253   24.4799 H   0  0  0  0  0  0  0  0  0  0  0  0
   19.7475   18.6932   24.4009 C   0  0  0  0  0  0  0  0  0  0  0  0
   19.9159   19.6176   24.9691 H   0  0  0  0  0  0  0  0  0  0  0  0
   19.7165   17.8773   25.1363 H   0  0  0  0  0  0  0  0  0  0  0  0
   20.9240   18.4436   23.4222 C   0  0  0  0  0  0  0  0  0  0  0  0
   21.0651   19.3153   22.7708 H   0  0  0  0  0  0  0  0  0  0  0  0
   20.6628   17.6015   22.7678 H   0  0  0  0  0  0  0  0  0  0  0  0
   22.2582   18.1177   24.1310 C   0  0  2  0  0  0  0  0  0  0  0  0
   22.0922   17.2691   24.8017 H   0  0  0  0  0  0  0  0  0  0  0  0
   22.7753   19.3038   24.9646 C   0  0  0  0  0  0  0  0  0  0  0  0
   22.9021   20.1996   24.3440 H   0  0  0  0  0  0  0  0  0  0  0  0
   22.0866   19.5465   25.7821 H   0  0  0  0  0  0  0  0  0  0  0  0
   23.7450   19.0638   25.4178 H   0  0  0  0  0  0  0  0  0  0  0  0
   23.3043   17.6797   23.1439 N   0  3  0  0  0  0  0  0  0  0  0  0
   22.9977   16.8632   22.6071 H   0  0  0  0  0  0  0  0  0  0  0  0
   24.1779   17.4247   23.6135 H   0  0  0  0  0  0  0  0  0  0  0  0
   23.5226   18.4234   22.4754 H   0  0  0  0  0  0  0  0  0  0  0  0
  1  2  1  0  0  0  0
  1  3  1  0  0  0  0
  1  4  1  0  0  0  0
  1  5  1  0  0  0  0
  5  6  1  0  0  0  0
  5  7  1  0  0  0  0
  5  8  1  0  0  0  0
  8  9  1  0  0  0  0
  8 10  1  0  0  0  0
  8 11  1  0  0  0  0
 11 12  1  0  0  0  0
 11 13  1  0  0  0  0
 11 14  1  0  0  0  0
 14 15  1  0  0  0  0
 14 16  1  0  0  0  0
 14 17  1  0  0  0  0
 17 18  1  0  0  0  0
 17 19  1  0  0  0  0
 17 20  1  0  0  0  0
 20 21  1  0  0  0  0
 20 22  1  0  0  0  0
 22 23  1  0  0  0  0
 22 24  1  0  0  0  0
 22 25  1  0  0  0  0
 20 26  1  0  0  0  0
 26 27  1  0  0  0  0
 26 28  1  0  0  0  0
 26 29  1  0  0  0  0
M  END
> <VConfSearch Rank>
586

> <Conf_Id>
73

> <Delta U+W>
1.580

> <U+W>
-26.246

> <U>
25.821

> <W>
-52.067

> <W(PB)>
-54.581

> <W(SA)>
2.514

> <Valence>
4.779

> <Coulomb>
19.614

> <VdW>
1.428

> <VdW6>
-9.390

> <VdW12>
10.818

> <Bond>
0.283

> <Angle>
1.640

> <Pdih>
2.856

> <Idih>
0.000

> <Tether>
0.000

$$$$
VeraChem MOL file


 29 28  0  0  0  0  0  0  0  0999 V2000     
   23.4288   20.4193   25.7871 C   0  0  0  0  0  0  0  0  0  0  0  0
   23.8520   20.5023   24.7775 H   0  0  0  0  0  0  0  0  0  0  0  0
   23.9339   21.1555   26.4258 H   0  0  0  0  0  0  0  0  0  0  0  0
   23.6630   19.4194   26.1750 H   0  0  0  0  0  0  0  0  0  0  0  0
   21.9053   20.6654   25.7719 C   0  0  0  0  0  0  0  0  0  0  0  0
   21.7038   21.6837   25.4108 H   0  0  0  0  0  0  0  0  0  0  0  0
   21.5174   20.6104   26.7987 H   0  0  0  0  0  0  0  0  0  0  0  0
   21.1693   19.6411   24.8800 C   0  0  0  0  0  0  0  0  0  0  0  0
   21.5736   19.7001   23.8612 H   0  0  0  0  0  0  0  0  0  0  0  0
   21.3716   18.6253   25.2466 H   0  0  0  0  0  0  0  0  0  0  0  0
   19.6419   19.8904   24.8606 C   0  0  0  0  0  0  0  0  0  0  0  0
   19.4332   20.8833   24.4389 H   0  0  0  0  0  0  0  0  0  0  0  0
   19.2716   19.9112   25.8949 H   0  0  0  0  0  0  0  0  0  0  0  0
   18.8458   18.8165   24.0786 C   0  0  0  0  0  0  0  0  0  0  0  0
   19.0529   17.8244   24.5031 H   0  0  0  0  0  0  0  0  0  0  0  0
   17.7761   19.0043   24.2393 H   0  0  0  0  0  0  0  0  0  0  0  0
   19.1474   18.8075   22.5578 C   0  0  0  0  0  0  0  0  0  0  0  0
   20.2118   18.5940   22.4002 H   0  0  0  0  0  0  0  0  0  0  0  0
   18.9600   19.8037   22.1356 H   0  0  0  0  0  0  0  0  0  0  0  0
   18.3223   17.7540   21.7870 C   0  0  2  0  0  0  0  0  0  0  0  0
   18.4969   16.7770   22.2481 H   0  0  0  0  0  0  0  0  0  0  0  0
   18.7804   17.6845   20.3213 C   0  0  0  0  0  0  0  0  0  0  0  0
   19.8460   17.4313   20.2572 H   0  0  0  0  0  0  0  0  0  0  0  0
   18.2221   16.9134   19.7762 H   0  0  0  0  0  0  0  0  0  0  0  0
   18.6257   18.6436   19.8113 H   0  0  0  0  0  0  0  0  0  0  0  0
   16.8420   18.0111   21.8628 N   0  3  0  0  0  0  0  0  0  0  0  0
   16.3116   17.2931   21.3609 H   0  0  0  0  0  0  0  0  0  0  0  0
   16.5991   18.9160   21.4508 H   0  0  0  0  0  0  0  0  0  0  0  0
   16.5120   18.0143   22.8316 H   0  0  0  0  0  0  0  0  0  0  0  0
  1  2  1  0  0  0  0
  1  3  1  0  0  0  0
  1  4  1  0  0  0  0
  1  5  1  0  0  0  0
  5  6  1  0  0  0  0
  5  7  1  0  0  0  0
  5  8  1  0  0  0  0
  8  9  1  0  0  0  0
  8 10  1  0  0  0  0
  8 11  1  0  0  0  0
 11 12  1  0  0  0  0
 11 13  1  0  0  0  0
 11 14  1  0  0  0  0
 14 15  1  0  0  0  0
 14 16  1  0  0  0  0
 14 17  1  0  0  0  0
 17 18  1  0  0  0  0
 17 19  1  0  0  0  0
 17 20  1  0  0  0  0
 20 21  1  0  0  0  0
 20 22  1  0  0  0  0
 22 23  1  0  0  0  0
 22 24  1  0  0  0  0
 22 25  1  0  0  0  0
 20 26  1  0  0  0  0
 26 27  1  0  0  0  0
 26 28  1  0  0  0  0
 26 29  1  0  0  0  0
M  END
> <VConfSearch Rank>
587

> <Conf_Id>
111

> <Delta U+W>
0.580

> <U+W>
-27.246

> <U>
24.710

> <W>
-51.957

> <W(PB)>
-54.511

> <W(SA)>
2.555

> <Valence>
3.735

> <Coulomb>
19.760

> <VdW>
1.216

> <VdW6>
-8.624

> <VdW12>
9.840

> <Bond>
0.236

> <Angle>
1.168

> <Pdih>
2.330

> <Idih>
0.000

> <Tether>
0.000

$$$$
VeraChem MOL file


 29 28  0  0  0  0  0  0  0  0999 V2000     
   23.9964   18.2814   23.2038 C   0  0  0  0  0  0  0  0  0  0  0  0
   24.0493   17.9280   24.2418 H   0  0  0  0  0  0  0  0  0  0  0  0
   23.6295   17.4560   22.5797 H   0  0  0  0  0  0  0  0  0  0  0  0
   25.0163   18.5230   22.8775 H   0  0  0  0  0  0  0  0  0  0  0  0
   23.0792   19.5170   23.0847 C   0  0  0  0  0  0  0  0  0  0  0  0
   23.0723   19.8670   22.0429 H   0  0  0  0  0  0  0  0  0  0  0  0
   23.4905   20.3356   23.6917 H   0  0  0  0  0  0  0  0  0  0  0  0
   21.6364   19.2040   23.5389 C   0  0  0  0  0  0  0  0  0  0  0  0
   21.2408   18.3796   22.9314 H   0  0  0  0  0  0  0  0  0  0  0  0
   21.6482   18.8564   24.5811 H   0  0  0  0  0  0  0  0  0  0  0  0
   20.7148   20.4411   23.4161 C   0  0  0  0  0  0  0  0  0  0  0  0
   20.6599   20.7597   22.3660 H   0  0  0  0  0  0  0  0  0  0  0  0
   21.1634   21.2781   23.9689 H   0  0  0  0  0  0  0  0  0  0  0  0
   19.2856   20.2027   23.9619 C   0  0  0  0  0  0  0  0  0  0  0  0
   19.3497   19.9159   25.0199 H   0  0  0  0  0  0  0  0  0  0  0  0
   18.7368   21.1541   23.9300 H   0  0  0  0  0  0  0  0  0  0  0  0
   18.4921   19.1353   23.1650 C   0  0  0  0  0  0  0  0  0  0  0  0
   18.9495   18.1469   23.2997 H   0  0  0  0  0  0  0  0  0  0  0  0
   18.5647   19.3714   22.0952 H   0  0  0  0  0  0  0  0  0  0  0  0
   16.9972   19.0613   23.5500 C   0  0  2  0  0  0  0  0  0  0  0  0
   16.5655   20.0613   23.4439 H   0  0  0  0  0  0  0  0  0  0  0  0
   16.7963   18.5955   25.0032 C   0  0  0  0  0  0  0  0  0  0  0  0
   17.2658   17.6190   25.1754 H   0  0  0  0  0  0  0  0  0  0  0  0
   17.2232   19.3124   25.7141 H   0  0  0  0  0  0  0  0  0  0  0  0
   15.7281   18.5051   25.2358 H   0  0  0  0  0  0  0  0  0  0  0  0
   16.2375   18.1694   22.6078 N   0  3  0  0  0  0  0  0  0  0  0  0
   16.3220   18.4866   21.6377 H   0  0  0  0  0  0  0  0  0  0  0  0
   15.2393   18.1489   22.8355 H   0  0  0  0  0  0  0  0  0  0  0  0
   16.5797   17.2055   22.6474 H   0  0  0  0  0  0  0  0  0  0  0  0
  1  2  1  0  0  0  0
  1  3  1  0  0  0  0
  1  4  1  0  0  0  0
  1  5  1  0  0  0  0
  5  6  1  0  0  0  0
  5  7  1  0  0  0  0
  5  8  1  0  0  0  0
  8  9  1  0  0  0  0
  8 10  1  0  0  0  0
  8 11  1  0  0  0  0
 11 12  1  0  0  0  0
 11 13  1  0  0  0  0
 11 14  1  0  0  0  0
 14 15  1  0  0  0  0
 14 16  1  0  0  0  0
 14 17  1  0  0  0  0
 17 18  1  0  0  0  0
 17 19  1  0  0  0  0
 17 20  1  0  0  0  0
 20 21  1  0  0  0  0
 20 22  1  0  0  0  0
 22 23  1  0  0  0  0
 22 24  1  0  0  0  0
 22 25  1  0  0  0  0
 20 26  1  0  0  0  0
 26 27  1  0  0  0  0
 26 28  1  0  0  0  0
 26 29  1  0  0  0  0
M  END
> <VConfSearch Rank>
588

> <Conf_Id>
39

> <Delta U+W>
0.965

> <U+W>
-26.861

> <U>
25.129

> <W>
-51.990

> <W(PB)>
-54.526

> <W(SA)>
2.536

> <Valence>
4.206

> <Coulomb>
19.678

> <VdW>
1.245

> <VdW6>
-8.834

> <VdW12>
10.079

> <Bond>
0.240

> <Angle>
1.353

> <Pdih>
2.613

> <Idih>
0.000

> <Tether>
0.000

$$$$
VeraChem MOL file


 29 28  0  0  0  0  0  0  0  0999 V2000     
   18.7380   21.3315   20.0376 C   0  0  0  0  0  0  0  0  0  0  0  0
   17.8104   21.6739   20.5144 H   0  0  0  0  0  0  0  0  0  0  0  0
   19.5732   21.9053   20.4574 H   0  0  0  0  0  0  0  0  0  0  0  0
   18.6757   21.5752   18.9691 H   0  0  0  0  0  0  0  0  0  0  0  0
   18.9357   19.8113   20.2343 C   0  0  0  0  0  0  0  0  0  0  0  0
   19.8864   19.4996   19.7796 H   0  0  0  0  0  0  0  0  0  0  0  0
   18.1446   19.2797   19.6871 H   0  0  0  0  0  0  0  0  0  0  0  0
   18.8945   19.3692   21.7172 C   0  0  0  0  0  0  0  0  0  0  0  0
   17.9421   19.6824   22.1666 H   0  0  0  0  0  0  0  0  0  0  0  0
   18.9040   18.2722   21.7432 H   0  0  0  0  0  0  0  0  0  0  0  0
   20.0756   19.9184   22.5573 C   0  0  0  0  0  0  0  0  0  0  0  0
   20.0683   21.0153   22.5227 H   0  0  0  0  0  0  0  0  0  0  0  0
   21.0279   19.6014   22.1104 H   0  0  0  0  0  0  0  0  0  0  0  0
   20.0307   19.4879   24.0443 C   0  0  0  0  0  0  0  0  0  0  0  0
   20.8185   20.0333   24.5800 H   0  0  0  0  0  0  0  0  0  0  0  0
   19.0770   19.8109   24.4823 H   0  0  0  0  0  0  0  0  0  0  0  0
   20.2255   17.9609   24.2522 C   0  0  0  0  0  0  0  0  0  0  0  0
   21.1236   17.6340   23.7120 H   0  0  0  0  0  0  0  0  0  0  0  0
   19.3858   17.4158   23.8039 H   0  0  0  0  0  0  0  0  0  0  0  0
   20.3543   17.5187   25.7290 C   0  0  2  0  0  0  0  0  0  0  0  0
   20.4938   16.4332   25.7323 H   0  0  0  0  0  0  0  0  0  0  0  0
   19.0819   17.8273   26.5371 C   0  0  0  0  0  0  0  0  0  0  0  0
   18.9285   18.9067   26.6546 H   0  0  0  0  0  0  0  0  0  0  0  0
   18.1963   17.4053   26.0460 H   0  0  0  0  0  0  0  0  0  0  0  0
   19.1479   17.3871   27.5396 H   0  0  0  0  0  0  0  0  0  0  0  0
   21.5710   18.0960   26.3985 N   0  3  0  0  0  0  0  0  0  0  0  0
   22.4275   17.8586   25.8898 H   0  0  0  0  0  0  0  0  0  0  0  0
   21.6748   17.7432   27.3542 H   0  0  0  0  0  0  0  0  0  0  0  0
   21.5167   19.1161   26.4521 H   0  0  0  0  0  0  0  0  0  0  0  0
  1  2  1  0  0  0  0
  1  3  1  0  0  0  0
  1  4  1  0  0  0  0
  1  5  1  0  0  0  0
  5  6  1  0  0  0  0
  5  7  1  0  0  0  0
  5  8  1  0  0  0  0
  8  9  1  0  0  0  0
  8 10  1  0  0  0  0
  8 11  1  0  0  0  0
 11 12  1  0  0  0  0
 11 13  1  0  0  0  0
 11 14  1  0  0  0  0
 14 15  1  0  0  0  0
 14 16  1  0  0  0  0
 14 17  1  0  0  0  0
 17 18  1  0  0  0  0
 17 19  1  0  0  0  0
 17 20  1  0  0  0  0
 20 21  1  0  0  0  0
 20 22  1  0  0  0  0
 22 23  1  0  0  0  0
 22 24  1  0  0  0  0
 22 25  1  0  0  0  0
 20 26  1  0  0  0  0
 26 27  1  0  0  0  0
 26 28  1  0  0  0  0
 26 29  1  0  0  0  0
M  END
> <VConfSearch Rank>
589

> <Conf_Id>
155

> <Delta U+W>
1.624

> <U+W>
-26.202

> <U>
25.894

> <W>
-52.096

> <W(PB)>
-54.602

> <W(SA)>
2.506

> <Valence>
4.779

> <Coulomb>
19.659

> <VdW>
1.456

> <VdW6>
-9.843

> <VdW12>
11.299

> <Bond>
0.315

> <Angle>
1.725

> <Pdih>
2.740

> <Idih>
0.000

> <Tether>
0.000

$$$$
VeraChem MOL file


 29 28  0  0  0  0  0  0  0  0999 V2000     
   19.4221   18.0416   27.4467 C   0  0  0  0  0  0  0  0  0  0  0  0
   18.4793   18.5615   27.2356 H   0  0  0  0  0  0  0  0  0  0  0  0
   19.3866   17.0555   26.9658 H   0  0  0  0  0  0  0  0  0  0  0  0
   19.4770   17.8846   28.5317 H   0  0  0  0  0  0  0  0  0  0  0  0
   20.6405   18.8557   26.9556 C   0  0  0  0  0  0  0  0  0  0  0  0
   21.5599   18.3551   27.2903 H   0  0  0  0  0  0  0  0  0  0  0  0
   20.6392   19.8463   27.4313 H   0  0  0  0  0  0  0  0  0  0  0  0
   20.6922   19.0136   25.4169 C   0  0  0  0  0  0  0  0  0  0  0  0
   21.6332   19.5131   25.1486 H   0  0  0  0  0  0  0  0  0  0  0  0
   20.7256   18.0175   24.9569 H   0  0  0  0  0  0  0  0  0  0  0  0
   19.5041   19.8277   24.8445 C   0  0  0  0  0  0  0  0  0  0  0  0
   19.4071   20.7630   25.4129 H   0  0  0  0  0  0  0  0  0  0  0  0
   18.5650   19.2778   24.9907 H   0  0  0  0  0  0  0  0  0  0  0  0
   19.6593   20.1809   23.3446 C   0  0  0  0  0  0  0  0  0  0  0  0
   18.8455   20.8662   23.0754 H   0  0  0  0  0  0  0  0  0  0  0  0
   20.5952   20.7360   23.1922 H   0  0  0  0  0  0  0  0  0  0  0  0
   19.6272   18.9424   22.4115 C   0  0  0  0  0  0  0  0  0  0  0  0
   18.6867   18.3942   22.5552 H   0  0  0  0  0  0  0  0  0  0  0  0
   20.4342   18.2578   22.6991 H   0  0  0  0  0  0  0  0  0  0  0  0
   19.8052   19.2859   20.9146 C   0  0  2  0  0  0  0  0  0  0  0  0
   20.7158   19.8829   20.8052 H   0  0  0  0  0  0  0  0  0  0  0  0
   18.6206   20.0956   20.3570 C   0  0  0  0  0  0  0  0  0  0  0  0
   17.6719   19.5651   20.5065 H   0  0  0  0  0  0  0  0  0  0  0  0
   18.5454   21.0775   20.8377 H   0  0  0  0  0  0  0  0  0  0  0  0
   18.7455   20.2714   19.2814 H   0  0  0  0  0  0  0  0  0  0  0  0
   20.0131   18.0425   20.0951 N   0  3  0  0  0  0  0  0  0  0  0  0
   20.8248   17.5086   20.4189 H   0  0  0  0  0  0  0  0  0  0  0  0
   20.1703   18.2670   19.1084 H   0  0  0  0  0  0  0  0  0  0  0  0
   19.1990   17.4237   20.1416 H   0  0  0  0  0  0  0  0  0  0  0  0
  1  2  1  0  0  0  0
  1  3  1  0  0  0  0
  1  4  1  0  0  0  0
  1  5  1  0  0  0  0
  5  6  1  0  0  0  0
  5  7  1  0  0  0  0
  5  8  1  0  0  0  0
  8  9  1  0  0  0  0
  8 10  1  0  0  0  0
  8 11  1  0  0  0  0
 11 12  1  0  0  0  0
 11 13  1  0  0  0  0
 11 14  1  0  0  0  0
 14 15  1  0  0  0  0
 14 16  1  0  0  0  0
 14 17  1  0  0  0  0
 17 18  1  0  0  0  0
 17 19  1  0  0  0  0
 17 20  1  0  0  0  0
 20 21  1  0  0  0  0
 20 22  1  0  0  0  0
 22 23  1  0  0  0  0
 22 24  1  0  0  0  0
 22 25  1  0  0  0  0
 20 26  1  0  0  0  0
 26 27  1  0  0  0  0
 26 28  1  0  0  0  0
 26 29  1  0  0  0  0
M  END
> <VConfSearch Rank>
590

> <Conf_Id>
135

> <Delta U+W>
1.581

> <U+W>
-26.245

> <U>
25.974

> <W>
-52.219

> <W(PB)>
-54.709

> <W(SA)>
2.490

> <Valence>
4.811

> <Coulomb>
19.700

> <VdW>
1.463

> <VdW6>
-9.391

> <VdW12>
10.854

> <Bond>
0.285

> <Angle>
1.671

> <Pdih>
2.855

> <Idih>
0.000

> <Tether>
0.000

$$$$
VeraChem MOL file


 29 28  0  0  0  0  0  0  0  0999 V2000     
   17.9410   19.2341   27.1698 C   0  0  0  0  0  0  0  0  0  0  0  0
   18.3078   18.1998   27.1471 H   0  0  0  0  0  0  0  0  0  0  0  0
   18.7972   19.8993   27.3373 H   0  0  0  0  0  0  0  0  0  0  0  0
   17.2711   19.3342   28.0336 H   0  0  0  0  0  0  0  0  0  0  0  0
   17.1953   19.5879   25.8631 C   0  0  0  0  0  0  0  0  0  0  0  0
   16.8618   20.6343   25.8997 H   0  0  0  0  0  0  0  0  0  0  0  0
   16.2842   18.9768   25.7982 H   0  0  0  0  0  0  0  0  0  0  0  0
   18.0436   19.3527   24.5903 C   0  0  0  0  0  0  0  0  0  0  0  0
   18.3455   18.2978   24.5503 H   0  0  0  0  0  0  0  0  0  0  0  0
   17.4095   19.5288   23.7105 H   0  0  0  0  0  0  0  0  0  0  0  0
   19.2915   20.2674   24.5070 C   0  0  0  0  0  0  0  0  0  0  0  0
   19.9935   20.0212   25.3146 H   0  0  0  0  0  0  0  0  0  0  0  0
   18.9839   21.3094   24.6705 H   0  0  0  0  0  0  0  0  0  0  0  0
   20.0275   20.1791   23.1477 C   0  0  0  0  0  0  0  0  0  0  0  0
   19.3343   20.4653   22.3458 H   0  0  0  0  0  0  0  0  0  0  0  0
   20.8367   20.9224   23.1399 H   0  0  0  0  0  0  0  0  0  0  0  0
   20.6258   18.7772   22.8638 C   0  0  0  0  0  0  0  0  0  0  0  0
   19.8205   18.0430   22.7344 H   0  0  0  0  0  0  0  0  0  0  0  0
   21.2025   18.4584   23.7420 H   0  0  0  0  0  0  0  0  0  0  0  0
   21.5536   18.7396   21.6283 C   0  0  2  0  0  0  0  0  0  0  0  0
   22.3285   19.5013   21.7576 H   0  0  0  0  0  0  0  0  0  0  0  0
   20.7922   19.0355   20.3237 C   0  0  0  0  0  0  0  0  0  0  0  0
   19.9637   18.3309   20.1792 H   0  0  0  0  0  0  0  0  0  0  0  0
   20.3829   20.0523   20.3230 H   0  0  0  0  0  0  0  0  0  0  0  0
   21.4621   18.9549   19.4587 H   0  0  0  0  0  0  0  0  0  0  0  0
   22.2682   17.4207   21.5262 N   0  3  0  0  0  0  0  0  0  0  0  0
   22.9138   17.4059   20.7314 H   0  0  0  0  0  0  0  0  0  0  0  0
   21.6098   16.6473   21.3993 H   0  0  0  0  0  0  0  0  0  0  0  0
   22.8171   17.2232   22.3679 H   0  0  0  0  0  0  0  0  0  0  0  0
  1  2  1  0  0  0  0
  1  3  1  0  0  0  0
  1  4  1  0  0  0  0
  1  5  1  0  0  0  0
  5  6  1  0  0  0  0
  5  7  1  0  0  0  0
  5  8  1  0  0  0  0
  8  9  1  0  0  0  0
  8 10  1  0  0  0  0
  8 11  1  0  0  0  0
 11 12  1  0  0  0  0
 11 13  1  0  0  0  0
 11 14  1  0  0  0  0
 14 15  1  0  0  0  0
 14 16  1  0  0  0  0
 14 17  1  0  0  0  0
 17 18  1  0  0  0  0
 17 19  1  0  0  0  0
 17 20  1  0  0  0  0
 20 21  1  0  0  0  0
 20 22  1  0  0  0  0
 22 23  1  0  0  0  0
 22 24  1  0  0  0  0
 22 25  1  0  0  0  0
 20 26  1  0  0  0  0
 26 27  1  0  0  0  0
 26 28  1  0  0  0  0
 26 29  1  0  0  0  0
M  END
> <VConfSearch Rank>
591

> <Conf_Id>
130

> <Delta U+W>
1.359

> <U+W>
-26.467

> <U>
25.687

> <W>
-52.154

> <W(PB)>
-54.643

> <W(SA)>
2.489

> <Valence>
4.682

> <Coulomb>
19.653

> <VdW>
1.352

> <VdW6>
-9.477

> <VdW12>
10.829

> <Bond>
0.274

> <Angle>
1.550

> <Pdih>
2.858

> <Idih>
0.000

> <Tether>
0.000

$$$$
VeraChem MOL file


 29 28  0  0  0  0  0  0  0  0999 V2000     
   20.6145   15.2979   22.1432 C   0  0  0  0  0  0  0  0  0  0  0  0
   20.8567   14.2695   22.4408 H   0  0  0  0  0  0  0  0  0  0  0  0
   20.1961   15.2642   21.1289 H   0  0  0  0  0  0  0  0  0  0  0  0
   21.5554   15.8610   22.1091 H   0  0  0  0  0  0  0  0  0  0  0  0
   19.6118   15.9264   23.1373 C   0  0  0  0  0  0  0  0  0  0  0  0
   20.0660   15.9794   24.1366 H   0  0  0  0  0  0  0  0  0  0  0  0
   18.7422   15.2609   23.2299 H   0  0  0  0  0  0  0  0  0  0  0  0
   19.1185   17.3304   22.7117 C   0  0  0  0  0  0  0  0  0  0  0  0
   18.6493   17.2676   21.7203 H   0  0  0  0  0  0  0  0  0  0  0  0
   18.3270   17.6392   23.4060 H   0  0  0  0  0  0  0  0  0  0  0  0
   20.2431   18.3972   22.6889 C   0  0  0  0  0  0  0  0  0  0  0  0
   20.9940   18.1097   21.9415 H   0  0  0  0  0  0  0  0  0  0  0  0
   20.7602   18.4088   23.6560 H   0  0  0  0  0  0  0  0  0  0  0  0
   19.7292   19.8159   22.3303 C   0  0  0  0  0  0  0  0  0  0  0  0
   20.5772   20.4514   22.0399 H   0  0  0  0  0  0  0  0  0  0  0  0
   19.1011   19.7392   21.4320 H   0  0  0  0  0  0  0  0  0  0  0  0
   18.9194   20.5188   23.4550 C   0  0  0  0  0  0  0  0  0  0  0  0
   18.4298   19.7835   24.1046 H   0  0  0  0  0  0  0  0  0  0  0  0
   18.1073   21.0835   22.9783 H   0  0  0  0  0  0  0  0  0  0  0  0
   19.7374   21.5133   24.3132 C   0  0  2  0  0  0  0  0  0  0  0  0
   20.1802   22.2571   23.6437 H   0  0  0  0  0  0  0  0  0  0  0  0
   20.8743   20.8305   25.0920 C   0  0  0  0  0  0  0  0  0  0  0  0
   21.6306   20.4255   24.4098 H   0  0  0  0  0  0  0  0  0  0  0  0
   21.3821   21.5500   25.7461 H   0  0  0  0  0  0  0  0  0  0  0  0
   20.4934   20.0124   25.7159 H   0  0  0  0  0  0  0  0  0  0  0  0
   18.8455   22.2724   25.2559 N   0  3  0  0  0  0  0  0  0  0  0  0
   18.1072   22.7748   24.7545 H   0  0  0  0  0  0  0  0  0  0  0  0
   19.3739   22.9652   25.7940 H   0  0  0  0  0  0  0  0  0  0  0  0
   18.3913   21.6464   25.9264 H   0  0  0  0  0  0  0  0  0  0  0  0
  1  2  1  0  0  0  0
  1  3  1  0  0  0  0
  1  4  1  0  0  0  0
  1  5  1  0  0  0  0
  5  6  1  0  0  0  0
  5  7  1  0  0  0  0
  5  8  1  0  0  0  0
  8  9  1  0  0  0  0
  8 10  1  0  0  0  0
  8 11  1  0  0  0  0
 11 12  1  0  0  0  0
 11 13  1  0  0  0  0
 11 14  1  0  0  0  0
 14 15  1  0  0  0  0
 14 16  1  0  0  0  0
 14 17  1  0  0  0  0
 17 18  1  0  0  0  0
 17 19  1  0  0  0  0
 17 20  1  0  0  0  0
 20 21  1  0  0  0  0
 20 22  1  0  0  0  0
 22 23  1  0  0  0  0
 22 24  1  0  0  0  0
 22 25  1  0  0  0  0
 20 26  1  0  0  0  0
 26 27  1  0  0  0  0
 26 28  1  0  0  0  0
 26 29  1  0  0  0  0
M  END
> <VConfSearch Rank>
592

> <Conf_Id>
157

> <Delta U+W>
4.354

> <U+W>
-23.472

> <U>
28.780

> <W>
-52.252

> <W(PB)>
-54.715

> <W(SA)>
2.462

> <Valence>
7.566

> <Coulomb>
19.822

> <VdW>
1.392

> <VdW6>
-10.248

> <VdW12>
11.641

> <Bond>
0.340

> <Angle>
2.096

> <Pdih>
5.129

> <Idih>
0.000

> <Tether>
0.000

$$$$
VeraChem MOL file


 29 28  0  0  0  0  0  0  0  0999 V2000     
   21.4912   19.0743   20.2740 C   0  0  0  0  0  0  0  0  0  0  0  0
   21.3444   18.8852   19.2027 H   0  0  0  0  0  0  0  0  0  0  0  0
   20.7311   19.7968   20.5911 H   0  0  0  0  0  0  0  0  0  0  0  0
   22.4755   19.5444   20.3971 H   0  0  0  0  0  0  0  0  0  0  0  0
   21.4078   17.7528   21.0729 C   0  0  0  0  0  0  0  0  0  0  0  0
   22.1839   17.0759   20.6891 H   0  0  0  0  0  0  0  0  0  0  0  0
   20.4488   17.2510   20.8830 H   0  0  0  0  0  0  0  0  0  0  0  0
   21.6258   17.9414   22.5962 C   0  0  0  0  0  0  0  0  0  0  0  0
   22.1848   17.0729   22.9711 H   0  0  0  0  0  0  0  0  0  0  0  0
   22.2712   18.8107   22.7830 H   0  0  0  0  0  0  0  0  0  0  0  0
   20.3250   18.0540   23.4326 C   0  0  0  0  0  0  0  0  0  0  0  0
   20.6117   18.1077   24.4907 H   0  0  0  0  0  0  0  0  0  0  0  0
   19.7396   17.1309   23.3208 H   0  0  0  0  0  0  0  0  0  0  0  0
   19.4384   19.2708   23.0702 C   0  0  0  0  0  0  0  0  0  0  0  0
   20.0370   20.1909   23.0964 H   0  0  0  0  0  0  0  0  0  0  0  0
   19.0834   19.1617   22.0375 H   0  0  0  0  0  0  0  0  0  0  0  0
   18.1948   19.4174   23.9846 C   0  0  0  0  0  0  0  0  0  0  0  0
   17.5705   18.5203   23.8784 H   0  0  0  0  0  0  0  0  0  0  0  0
   17.5862   20.2580   23.6255 H   0  0  0  0  0  0  0  0  0  0  0  0
   18.5218   19.6293   25.4801 C   0  0  2  0  0  0  0  0  0  0  0  0
   19.1004   18.7706   25.8327 H   0  0  0  0  0  0  0  0  0  0  0  0
   17.2272   19.7037   26.3049 C   0  0  0  0  0  0  0  0  0  0  0  0
   16.6083   20.5557   25.9967 H   0  0  0  0  0  0  0  0  0  0  0  0
   16.6344   18.7886   26.1826 H   0  0  0  0  0  0  0  0  0  0  0  0
   17.4531   19.8138   27.3727 H   0  0  0  0  0  0  0  0  0  0  0  0
   19.3703   20.8486   25.7146 N   0  3  0  0  0  0  0  0  0  0  0  0
   20.2529   20.7905   25.1992 H   0  0  0  0  0  0  0  0  0  0  0  0
   19.5992   20.9609   26.7064 H   0  0  0  0  0  0  0  0  0  0  0  0
   18.8905   21.7003   25.4114 H   0  0  0  0  0  0  0  0  0  0  0  0
  1  2  1  0  0  0  0
  1  3  1  0  0  0  0
  1  4  1  0  0  0  0
  1  5  1  0  0  0  0
  5  6  1  0  0  0  0
  5  7  1  0  0  0  0
  5  8  1  0  0  0  0
  8  9  1  0  0  0  0
  8 10  1  0  0  0  0
  8 11  1  0  0  0  0
 11 12  1  0  0  0  0
 11 13  1  0  0  0  0
 11 14  1  0  0  0  0
 14 15  1  0  0  0  0
 14 16  1  0  0  0  0
 14 17  1  0  0  0  0
 17 18  1  0  0  0  0
 17 19  1  0  0  0  0
 17 20  1  0  0  0  0
 20 21  1  0  0  0  0
 20 22  1  0  0  0  0
 22 23  1  0  0  0  0
 22 24  1  0  0  0  0
 22 25  1  0  0  0  0
 20 26  1  0  0  0  0
 26 27  1  0  0  0  0
 26 28  1  0  0  0  0
 26 29  1  0  0  0  0
M  END
> <VConfSearch Rank>
593

> <Conf_Id>
158

> <Delta U+W>
3.648

> <U+W>
-24.178

> <U>
28.057

> <W>
-52.235

> <W(PB)>
-54.696

> <W(SA)>
2.460

> <Valence>
6.543

> <Coulomb>
20.387

> <VdW>
1.127

> <VdW6>
-10.342

> <VdW12>
11.469

> <Bond>
0.308

> <Angle>
1.938

> <Pdih>
4.297

> <Idih>
0.000

> <Tether>
0.000

$$$$
VeraChem MOL file


 29 28  0  0  0  0  0  0  0  0999 V2000     
   21.3106   15.6334   23.5159 C   0  0  0  0  0  0  0  0  0  0  0  0
   21.7658   15.8697   22.5453 H   0  0  0  0  0  0  0  0  0  0  0  0
   21.6132   16.4044   24.2351 H   0  0  0  0  0  0  0  0  0  0  0  0
   21.7299   14.6790   23.8599 H   0  0  0  0  0  0  0  0  0  0  0  0
   19.7724   15.5371   23.3995 C   0  0  0  0  0  0  0  0  0  0  0  0
   19.3388   15.3324   24.3884 H   0  0  0  0  0  0  0  0  0  0  0  0
   19.5188   14.6743   22.7680 H   0  0  0  0  0  0  0  0  0  0  0  0
   19.1207   16.8036   22.7940 C   0  0  0  0  0  0  0  0  0  0  0  0
   19.5446   16.9934   21.7983 H   0  0  0  0  0  0  0  0  0  0  0  0
   18.0505   16.6066   22.6419 H   0  0  0  0  0  0  0  0  0  0  0  0
   19.2821   18.0630   23.6784 C   0  0  0  0  0  0  0  0  0  0  0  0
   20.3456   18.2999   23.7920 H   0  0  0  0  0  0  0  0  0  0  0  0
   18.8982   17.8519   24.6859 H   0  0  0  0  0  0  0  0  0  0  0  0
   18.5267   19.2781   23.0863 C   0  0  0  0  0  0  0  0  0  0  0  0
   18.8425   19.4593   22.0495 H   0  0  0  0  0  0  0  0  0  0  0  0
   17.4583   19.0258   23.0374 H   0  0  0  0  0  0  0  0  0  0  0  0
   18.6882   20.5729   23.9262 C   0  0  0  0  0  0  0  0  0  0  0  0
   18.8722   20.3234   24.9797 H   0  0  0  0  0  0  0  0  0  0  0  0
   17.7279   21.1050   23.9087 H   0  0  0  0  0  0  0  0  0  0  0  0
   19.7712   21.5515   23.4114 C   0  0  2  0  0  0  0  0  0  0  0  0
   19.5274   21.8153   22.3777 H   0  0  0  0  0  0  0  0  0  0  0  0
   21.1841   20.9444   23.4302 C   0  0  0  0  0  0  0  0  0  0  0  0
   21.4451   20.5747   24.4296 H   0  0  0  0  0  0  0  0  0  0  0  0
   21.2650   20.1147   22.7184 H   0  0  0  0  0  0  0  0  0  0  0  0
   21.9309   21.6929   23.1381 H   0  0  0  0  0  0  0  0  0  0  0  0
   19.7487   22.8371   24.1907 N   0  3  0  0  0  0  0  0  0  0  0  0
   18.8288   23.2856   24.1521 H   0  0  0  0  0  0  0  0  0  0  0  0
   20.4302   23.5081   23.8248 H   0  0  0  0  0  0  0  0  0  0  0  0
   19.9736   22.6803   25.1769 H   0  0  0  0  0  0  0  0  0  0  0  0
  1  2  1  0  0  0  0
  1  3  1  0  0  0  0
  1  4  1  0  0  0  0
  1  5  1  0  0  0  0
  5  6  1  0  0  0  0
  5  7  1  0  0  0  0
  5  8  1  0  0  0  0
  8  9  1  0  0  0  0
  8 10  1  0  0  0  0
  8 11  1  0  0  0  0
 11 12  1  0  0  0  0
 11 13  1  0  0  0  0
 11 14  1  0  0  0  0
 14 15  1  0  0  0  0
 14 16  1  0  0  0  0
 14 17  1  0  0  0  0
 17 18  1  0  0  0  0
 17 19  1  0  0  0  0
 17 20  1  0  0  0  0
 20 21  1  0  0  0  0
 20 22  1  0  0  0  0
 22 23  1  0  0  0  0
 22 24  1  0  0  0  0
 22 25  1  0  0  0  0
 20 26  1  0  0  0  0
 26 27  1  0  0  0  0
 26 28  1  0  0  0  0
 26 29  1  0  0  0  0
M  END
> <VConfSearch Rank>
594

> <Conf_Id>
156

> <Delta U+W>
3.393

> <U+W>
-24.433

> <U>
27.713

> <W>
-52.146

> <W(PB)>
-54.603

> <W(SA)>
2.458

> <Valence>
6.758

> <Coulomb>
19.720

> <VdW>
1.235

> <VdW6>
-9.782

> <VdW12>
11.017

> <Bond>
0.287

> <Angle>
1.880

> <Pdih>
4.591

> <Idih>
0.000

> <Tether>
0.000

$$$$
VeraChem MOL file


 29 28  0  0  0  0  0  0  0  0999 V2000     
   16.8869   17.0411   25.1067 C   0  0  0  0  0  0  0  0  0  0  0  0
   16.8219   17.8340   25.8632 H   0  0  0  0  0  0  0  0  0  0  0  0
   15.8864   16.8926   24.6800 H   0  0  0  0  0  0  0  0  0  0  0  0
   17.1773   16.1127   25.6154 H   0  0  0  0  0  0  0  0  0  0  0  0
   17.9100   17.4043   24.0099 C   0  0  0  0  0  0  0  0  0  0  0  0
   17.9751   16.5813   23.2846 H   0  0  0  0  0  0  0  0  0  0  0  0
   18.9025   17.5051   24.4685 H   0  0  0  0  0  0  0  0  0  0  0  0
   17.5241   18.7129   23.2812 C   0  0  0  0  0  0  0  0  0  0  0  0
   16.4991   18.6178   22.8971 H   0  0  0  0  0  0  0  0  0  0  0  0
   17.4991   19.5440   23.9981 H   0  0  0  0  0  0  0  0  0  0  0  0
   18.4578   19.0623   22.0933 C   0  0  0  0  0  0  0  0  0  0  0  0
   18.0977   19.9872   21.6223 H   0  0  0  0  0  0  0  0  0  0  0  0
   18.3640   18.2801   21.3274 H   0  0  0  0  0  0  0  0  0  0  0  0
   19.9578   19.2305   22.4493 C   0  0  0  0  0  0  0  0  0  0  0  0
   20.3608   18.2751   22.8079 H   0  0  0  0  0  0  0  0  0  0  0  0
   20.4976   19.4575   21.5211 H   0  0  0  0  0  0  0  0  0  0  0  0
   20.2225   20.3508   23.4920 C   0  0  0  0  0  0  0  0  0  0  0  0
   19.7065   20.1090   24.4292 H   0  0  0  0  0  0  0  0  0  0  0  0
   19.7808   21.2907   23.1356 H   0  0  0  0  0  0  0  0  0  0  0  0
   21.7143   20.5942   23.8213 C   0  0  2  0  0  0  0  0  0  0  0  0
   21.7532   21.3624   24.5998 H   0  0  0  0  0  0  0  0  0  0  0  0
   22.4987   21.1242   22.6083 C   0  0  0  0  0  0  0  0  0  0  0  0
   23.5112   21.4218   22.9076 H   0  0  0  0  0  0  0  0  0  0  0  0
   22.5924   20.3665   21.8216 H   0  0  0  0  0  0  0  0  0  0  0  0
   22.0061   22.0061   22.1803 H   0  0  0  0  0  0  0  0  0  0  0  0
   22.3793   19.3772   24.4032 N   0  3  0  0  0  0  0  0  0  0  0  0
   21.8903   19.0464   25.2398 H   0  0  0  0  0  0  0  0  0  0  0  0
   23.3479   19.5731   24.6716 H   0  0  0  0  0  0  0  0  0  0  0  0
   22.3968   18.6072   23.7300 H   0  0  0  0  0  0  0  0  0  0  0  0
  1  2  1  0  0  0  0
  1  3  1  0  0  0  0
  1  4  1  0  0  0  0
  1  5  1  0  0  0  0
  5  6  1  0  0  0  0
  5  7  1  0  0  0  0
  5  8  1  0  0  0  0
  8  9  1  0  0  0  0
  8 10  1  0  0  0  0
  8 11  1  0  0  0  0
 11 12  1  0  0  0  0
 11 13  1  0  0  0  0
 11 14  1  0  0  0  0
 14 15  1  0  0  0  0
 14 16  1  0  0  0  0
 14 17  1  0  0  0  0
 17 18  1  0  0  0  0
 17 19  1  0  0  0  0
 17 20  1  0  0  0  0
 20 21  1  0  0  0  0
 20 22  1  0  0  0  0
 22 23  1  0  0  0  0
 22 24  1  0  0  0  0
 22 25  1  0  0  0  0
 20 26  1  0  0  0  0
 26 27  1  0  0  0  0
 26 28  1  0  0  0  0
 26 29  1  0  0  0  0
M  END
> <VConfSearch Rank>
595

> <Conf_Id>
78

> <Delta U+W>
1.477

> <U+W>
-26.349

> <U>
26.385

> <W>
-52.734

> <W(PB)>
-55.179

> <W(SA)>
2.445

> <Valence>
4.726

> <Coulomb>
20.482

> <VdW>
1.177

> <VdW6>
-10.349

> <VdW12>
11.526

> <Bond>
0.319

> <Angle>
1.933

> <Pdih>
2.474

> <Idih>
0.000

> <Tether>
0.000

$$$$
VeraChem MOL file


 29 28  0  0  0  0  0  0  0  0999 V2000     
   20.4338   17.5851   20.1760 C   0  0  0  0  0  0  0  0  0  0  0  0
   20.6099   16.5074   20.2885 H   0  0  0  0  0  0  0  0  0  0  0  0
   19.4533   17.8128   20.6086 H   0  0  0  0  0  0  0  0  0  0  0  0
   20.3826   17.8035   19.1015 H   0  0  0  0  0  0  0  0  0  0  0  0
   21.5671   18.4009   20.8406 C   0  0  0  0  0  0  0  0  0  0  0  0
   21.4242   19.4747   20.6562 H   0  0  0  0  0  0  0  0  0  0  0  0
   22.5116   18.1328   20.3466 H   0  0  0  0  0  0  0  0  0  0  0  0
   21.7094   18.1286   22.3603 C   0  0  0  0  0  0  0  0  0  0  0  0
   21.3723   17.1102   22.5972 H   0  0  0  0  0  0  0  0  0  0  0  0
   22.7786   18.1518   22.6127 H   0  0  0  0  0  0  0  0  0  0  0  0
   20.9924   19.1534   23.2767 C   0  0  0  0  0  0  0  0  0  0  0  0
   21.4154   20.1529   23.1065 H   0  0  0  0  0  0  0  0  0  0  0  0
   21.2286   18.8936   24.3167 H   0  0  0  0  0  0  0  0  0  0  0  0
   19.4559   19.2071   23.0915 C   0  0  0  0  0  0  0  0  0  0  0  0
   19.2282   19.5480   22.0736 H   0  0  0  0  0  0  0  0  0  0  0  0
   19.0325   18.1981   23.1803 H   0  0  0  0  0  0  0  0  0  0  0  0
   18.7518   20.1718   24.0809 C   0  0  0  0  0  0  0  0  0  0  0  0
   17.6764   20.1844   23.8595 H   0  0  0  0  0  0  0  0  0  0  0  0
   19.1137   21.1904   23.8884 H   0  0  0  0  0  0  0  0  0  0  0  0
   18.9572   19.8480   25.5798 C   0  0  2  0  0  0  0  0  0  0  0  0
   20.0301   19.8568   25.7925 H   0  0  0  0  0  0  0  0  0  0  0  0
   18.3975   18.4646   25.9559 C   0  0  0  0  0  0  0  0  0  0  0  0
   18.5088   18.2819   27.0317 H   0  0  0  0  0  0  0  0  0  0  0  0
   17.3323   18.3860   25.7053 H   0  0  0  0  0  0  0  0  0  0  0  0
   18.9340   17.6637   25.4337 H   0  0  0  0  0  0  0  0  0  0  0  0
   18.3479   20.9110   26.4510 N   0  3  0  0  0  0  0  0  0  0  0  0
   17.3346   20.9680   26.3179 H   0  0  0  0  0  0  0  0  0  0  0  0
   18.7378   21.8356   26.2463 H   0  0  0  0  0  0  0  0  0  0  0  0
   18.5155   20.7227   27.4436 H   0  0  0  0  0  0  0  0  0  0  0  0
  1  2  1  0  0  0  0
  1  3  1  0  0  0  0
  1  4  1  0  0  0  0
  1  5  1  0  0  0  0
  5  6  1  0  0  0  0
  5  7  1  0  0  0  0
  5  8  1  0  0  0  0
  8  9  1  0  0  0  0
  8 10  1  0  0  0  0
  8 11  1  0  0  0  0
 11 12  1  0  0  0  0
 11 13  1  0  0  0  0
 11 14  1  0  0  0  0
 14 15  1  0  0  0  0
 14 16  1  0  0  0  0
 14 17  1  0  0  0  0
 17 18  1  0  0  0  0
 17 19  1  0  0  0  0
 17 20  1  0  0  0  0
 20 21  1  0  0  0  0
 20 22  1  0  0  0  0
 22 23  1  0  0  0  0
 22 24  1  0  0  0  0
 22 25  1  0  0  0  0
 20 26  1  0  0  0  0
 26 27  1  0  0  0  0
 26 28  1  0  0  0  0
 26 29  1  0  0  0  0
M  END
> <VConfSearch Rank>
596

> <Conf_Id>
145

> <Delta U+W>
3.784

> <U+W>
-24.042

> <U>
28.220

> <W>
-52.262

> <W(PB)>
-54.724

> <W(SA)>
2.462

> <Valence>
7.040

> <Coulomb>
19.984

> <VdW>
1.197

> <VdW6>
-10.566

> <VdW12>
11.763

> <Bond>
0.320

> <Angle>
2.280

> <Pdih>
4.439

> <Idih>
0.000

> <Tether>
0.000

$$$$
VeraChem MOL file


 29 28  0  0  0  0  0  0  0  0999 V2000     
   16.4595   21.2572   23.7675 C   0  0  0  0  0  0  0  0  0  0  0  0
   16.2902   22.2132   23.2549 H   0  0  0  0  0  0  0  0  0  0  0  0
   16.1196   20.4496   23.1061 H   0  0  0  0  0  0  0  0  0  0  0  0
   15.8321   21.2420   24.6681 H   0  0  0  0  0  0  0  0  0  0  0  0
   17.9475   21.0816   24.1368 C   0  0  0  0  0  0  0  0  0  0  0  0
   18.0733   20.1397   24.6842 H   0  0  0  0  0  0  0  0  0  0  0  0
   18.2466   21.8843   24.8253 H   0  0  0  0  0  0  0  0  0  0  0  0
   18.8536   21.1119   22.8824 C   0  0  0  0  0  0  0  0  0  0  0  0
   18.5244   20.3594   22.1527 H   0  0  0  0  0  0  0  0  0  0  0  0
   18.7236   22.0863   22.3914 H   0  0  0  0  0  0  0  0  0  0  0  0
   20.3588   20.9213   23.2045 C   0  0  0  0  0  0  0  0  0  0  0  0
   20.5809   21.2813   24.2185 H   0  0  0  0  0  0  0  0  0  0  0  0
   20.9370   21.5670   22.5291 H   0  0  0  0  0  0  0  0  0  0  0  0
   20.8830   19.4729   23.0263 C   0  0  0  0  0  0  0  0  0  0  0  0
   20.7504   19.1714   21.9788 H   0  0  0  0  0  0  0  0  0  0  0  0
   21.9651   19.4851   23.2084 H   0  0  0  0  0  0  0  0  0  0  0  0
   20.2079   18.4343   23.9614 C   0  0  0  0  0  0  0  0  0  0  0  0
   19.1422   18.3634   23.7121 H   0  0  0  0  0  0  0  0  0  0  0  0
   20.2601   18.7884   24.9994 H   0  0  0  0  0  0  0  0  0  0  0  0
   20.8041   17.0085   23.8899 C   0  0  2  0  0  0  0  0  0  0  0  0
   20.1926   16.3690   24.5341 H   0  0  0  0  0  0  0  0  0  0  0  0
   22.2472   16.9542   24.4213 C   0  0  0  0  0  0  0  0  0  0  0  0
   22.5897   15.9146   24.4927 H   0  0  0  0  0  0  0  0  0  0  0  0
   22.9434   17.4903   23.7658 H   0  0  0  0  0  0  0  0  0  0  0  0
   22.3105   17.3942   25.4243 H   0  0  0  0  0  0  0  0  0  0  0  0
   20.7149   16.4173   22.5100 N   0  3  0  0  0  0  0  0  0  0  0  0
   21.2729   16.9534   21.8408 H   0  0  0  0  0  0  0  0  0  0  0  0
   19.7496   16.4056   22.1684 H   0  0  0  0  0  0  0  0  0  0  0  0
   21.0578   15.4526   22.4935 H   0  0  0  0  0  0  0  0  0  0  0  0
  1  2  1  0  0  0  0
  1  3  1  0  0  0  0
  1  4  1  0  0  0  0
  1  5  1  0  0  0  0
  5  6  1  0  0  0  0
  5  7  1  0  0  0  0
  5  8  1  0  0  0  0
  8  9  1  0  0  0  0
  8 10  1  0  0  0  0
  8 11  1  0  0  0  0
 11 12  1  0  0  0  0
 11 13  1  0  0  0  0
 11 14  1  0  0  0  0
 14 15  1  0  0  0  0
 14 16  1  0  0  0  0
 14 17  1  0  0  0  0
 17 18  1  0  0  0  0
 17 19  1  0  0  0  0
 17 20  1  0  0  0  0
 20 21  1  0  0  0  0
 20 22  1  0  0  0  0
 22 23  1  0  0  0  0
 22 24  1  0  0  0  0
 22 25  1  0  0  0  0
 20 26  1  0  0  0  0
 26 27  1  0  0  0  0
 26 28  1  0  0  0  0
 26 29  1  0  0  0  0
M  END
> <VConfSearch Rank>
597

> <Conf_Id>
71

> <Delta U+W>
3.542

> <U+W>
-24.284

> <U>
28.217

> <W>
-52.501

> <W(PB)>
-54.947

> <W(SA)>
2.446

> <Valence>
6.821

> <Coulomb>
20.147

> <VdW>
1.249

> <VdW6>
-10.237

> <VdW12>
11.486

> <Bond>
0.317

> <Angle>
1.990

> <Pdih>
4.515

> <Idih>
0.000

> <Tether>
0.000

$$$$
VeraChem MOL file


 29 28  0  0  0  0  0  0  0  0999 V2000     
   19.3837   23.0158   23.0093 C   0  0  0  0  0  0  0  0  0  0  0  0
   19.4373   22.9946   24.1056 H   0  0  0  0  0  0  0  0  0  0  0  0
   20.1687   23.6896   22.6415 H   0  0  0  0  0  0  0  0  0  0  0  0
   18.4130   23.4438   22.7274 H   0  0  0  0  0  0  0  0  0  0  0  0
   19.5468   21.5993   22.4190 C   0  0  0  0  0  0  0  0  0  0  0  0
   19.4545   21.6503   21.3252 H   0  0  0  0  0  0  0  0  0  0  0  0
   18.7236   20.9667   22.7717 H   0  0  0  0  0  0  0  0  0  0  0  0
   20.9144   20.9796   22.7946 C   0  0  0  0  0  0  0  0  0  0  0  0
   21.7045   21.6297   22.3939 H   0  0  0  0  0  0  0  0  0  0  0  0
   21.0483   20.9778   23.8851 H   0  0  0  0  0  0  0  0  0  0  0  0
   21.1220   19.5503   22.2290 C   0  0  0  0  0  0  0  0  0  0  0  0
   22.1788   19.4452   21.9471 H   0  0  0  0  0  0  0  0  0  0  0  0
   20.5540   19.4219   21.2973 H   0  0  0  0  0  0  0  0  0  0  0  0
   20.7886   18.4055   23.2202 C   0  0  0  0  0  0  0  0  0  0  0  0
   21.0522   17.4546   22.7393 H   0  0  0  0  0  0  0  0  0  0  0  0
   21.4399   18.4963   24.0997 H   0  0  0  0  0  0  0  0  0  0  0  0
   19.3034   18.3662   23.6679 C   0  0  0  0  0  0  0  0  0  0  0  0
   18.6562   18.4153   22.7826 H   0  0  0  0  0  0  0  0  0  0  0  0
   19.0799   19.2589   24.2652 H   0  0  0  0  0  0  0  0  0  0  0  0
   18.9076   17.1216   24.4969 C   0  0  2  0  0  0  0  0  0  0  0  0
   17.8459   17.2197   24.7438 H   0  0  0  0  0  0  0  0  0  0  0  0
   19.6880   17.0373   25.8201 C   0  0  0  0  0  0  0  0  0  0  0  0
   19.5921   17.9702   26.3893 H   0  0  0  0  0  0  0  0  0  0  0  0
   19.2973   16.2247   26.4449 H   0  0  0  0  0  0  0  0  0  0  0  0
   20.7543   16.8462   25.6499 H   0  0  0  0  0  0  0  0  0  0  0  0
   19.0356   15.8442   23.7134 N   0  3  0  0  0  0  0  0  0  0  0  0
   18.4841   15.8759   22.8511 H   0  0  0  0  0  0  0  0  0  0  0  0
   18.7101   15.0388   24.2556 H   0  0  0  0  0  0  0  0  0  0  0  0
   20.0080   15.6651   23.4512 H   0  0  0  0  0  0  0  0  0  0  0  0
  1  2  1  0  0  0  0
  1  3  1  0  0  0  0
  1  4  1  0  0  0  0
  1  5  1  0  0  0  0
  5  6  1  0  0  0  0
  5  7  1  0  0  0  0
  5  8  1  0  0  0  0
  8  9  1  0  0  0  0
  8 10  1  0  0  0  0
  8 11  1  0  0  0  0
 11 12  1  0  0  0  0
 11 13  1  0  0  0  0
 11 14  1  0  0  0  0
 14 15  1  0  0  0  0
 14 16  1  0  0  0  0
 14 17  1  0  0  0  0
 17 18  1  0  0  0  0
 17 19  1  0  0  0  0
 17 20  1  0  0  0  0
 20 21  1  0  0  0  0
 20 22  1  0  0  0  0
 22 23  1  0  0  0  0
 22 24  1  0  0  0  0
 22 25  1  0  0  0  0
 20 26  1  0  0  0  0
 26 27  1  0  0  0  0
 26 28  1  0  0  0  0
 26 29  1  0  0  0  0
M  END
> <VConfSearch Rank>
598

> <Conf_Id>
163

> <Delta U+W>
3.309

> <U+W>
-24.517

> <U>
27.916

> <W>
-52.433

> <W(PB)>
-54.866

> <W(SA)>
2.433

> <Valence>
6.693

> <Coulomb>
20.015

> <VdW>
1.208

> <VdW6>
-10.294

> <VdW12>
11.503

> <Bond>
0.312

> <Angle>
1.939

> <Pdih>
4.441

> <Idih>
0.000

> <Tether>
0.000

$$$$
VeraChem MOL file


 29 28  0  0  0  0  0  0  0  0999 V2000     
   18.7024   21.2884   26.6972 C   0  0  0  0  0  0  0  0  0  0  0  0
   17.7428   20.8386   26.9834 H   0  0  0  0  0  0  0  0  0  0  0  0
   19.5092   20.6747   27.1164 H   0  0  0  0  0  0  0  0  0  0  0  0
   18.7630   22.2780   27.1684 H   0  0  0  0  0  0  0  0  0  0  0  0
   18.8215   21.4134   25.1613 C   0  0  0  0  0  0  0  0  0  0  0  0
   19.8029   21.8326   24.8989 H   0  0  0  0  0  0  0  0  0  0  0  0
   18.0738   22.1371   24.8078 H   0  0  0  0  0  0  0  0  0  0  0  0
   18.6068   20.0751   24.4139 C   0  0  0  0  0  0  0  0  0  0  0  0
   17.6232   19.6619   24.6760 H   0  0  0  0  0  0  0  0  0  0  0  0
   18.5767   20.2901   23.3380 H   0  0  0  0  0  0  0  0  0  0  0  0
   19.7091   19.0246   24.7017 C   0  0  0  0  0  0  0  0  0  0  0  0
   19.7381   18.8121   25.7782 H   0  0  0  0  0  0  0  0  0  0  0  0
   20.6924   19.4423   24.4488 H   0  0  0  0  0  0  0  0  0  0  0  0
   19.4928   17.6807   23.9584 C   0  0  0  0  0  0  0  0  0  0  0  0
   20.2805   16.9779   24.2614 H   0  0  0  0  0  0  0  0  0  0  0  0
   18.5497   17.2317   24.2991 H   0  0  0  0  0  0  0  0  0  0  0  0
   19.4651   17.7827   22.4097 C   0  0  0  0  0  0  0  0  0  0  0  0
   18.5602   18.3205   22.0996 H   0  0  0  0  0  0  0  0  0  0  0  0
   19.3716   16.7731   21.9882 H   0  0  0  0  0  0  0  0  0  0  0  0
   20.7028   18.4777   21.8006 C   0  0  2  0  0  0  0  0  0  0  0  0
   20.7786   19.4818   22.2285 H   0  0  0  0  0  0  0  0  0  0  0  0
   20.5452   18.6155   20.2783 C   0  0  0  0  0  0  0  0  0  0  0  0
   21.4047   19.1420   19.8452 H   0  0  0  0  0  0  0  0  0  0  0  0
   20.4680   17.6328   19.7965 H   0  0  0  0  0  0  0  0  0  0  0  0
   19.6437   19.1896   20.0304 H   0  0  0  0  0  0  0  0  0  0  0  0
   21.9824   17.7638   22.1393 N   0  3  0  0  0  0  0  0  0  0  0  0
   22.1107   17.6938   23.1525 H   0  0  0  0  0  0  0  0  0  0  0  0
   22.7972   18.2526   21.7576 H   0  0  0  0  0  0  0  0  0  0  0  0
   21.9895   16.8129   21.7609 H   0  0  0  0  0  0  0  0  0  0  0  0
  1  2  1  0  0  0  0
  1  3  1  0  0  0  0
  1  4  1  0  0  0  0
  1  5  1  0  0  0  0
  5  6  1  0  0  0  0
  5  7  1  0  0  0  0
  5  8  1  0  0  0  0
  8  9  1  0  0  0  0
  8 10  1  0  0  0  0
  8 11  1  0  0  0  0
 11 12  1  0  0  0  0
 11 13  1  0  0  0  0
 11 14  1  0  0  0  0
 14 15  1  0  0  0  0
 14 16  1  0  0  0  0
 14 17  1  0  0  0  0
 17 18  1  0  0  0  0
 17 19  1  0  0  0  0
 17 20  1  0  0  0  0
 20 21  1  0  0  0  0
 20 22  1  0  0  0  0
 22 23  1  0  0  0  0
 22 24  1  0  0  0  0
 22 25  1  0  0  0  0
 20 26  1  0  0  0  0
 26 27  1  0  0  0  0
 26 28  1  0  0  0  0
 26 29  1  0  0  0  0
M  END
> <VConfSearch Rank>
599

> <Conf_Id>
173

> <Delta U+W>
1.363

> <U+W>
-26.462

> <U>
25.816

> <W>
-52.279

> <W(PB)>
-54.727

> <W(SA)>
2.449

> <Valence>
4.504

> <Coulomb>
20.342

> <VdW>
0.971

> <VdW6>
-10.532

> <VdW12>
11.503

> <Bond>
0.307

> <Angle>
1.715

> <Pdih>
2.481

> <Idih>
0.000

> <Tether>
0.000

$$$$
VeraChem MOL file


 29 28  0  0  0  0  0  0  0  0999 V2000     
   19.0858   16.6979   20.5229 C   0  0  0  0  0  0  0  0  0  0  0  0
   19.6352   17.2454   19.7460 H   0  0  0  0  0  0  0  0  0  0  0  0
   19.3896   15.6439   20.4784 H   0  0  0  0  0  0  0  0  0  0  0  0
   18.0165   16.7506   20.2803 H   0  0  0  0  0  0  0  0  0  0  0  0
   19.3576   17.2957   21.9195 C   0  0  0  0  0  0  0  0  0  0  0  0
   18.7749   16.7454   22.6712 H   0  0  0  0  0  0  0  0  0  0  0  0
   19.0064   18.3359   21.9332 H   0  0  0  0  0  0  0  0  0  0  0  0
   20.8598   17.2426   22.2798 C   0  0  0  0  0  0  0  0  0  0  0  0
   21.2229   16.2143   22.1451 H   0  0  0  0  0  0  0  0  0  0  0  0
   21.4265   17.8616   21.5706 H   0  0  0  0  0  0  0  0  0  0  0  0
   21.1883   17.6882   23.7283 C   0  0  0  0  0  0  0  0  0  0  0  0
   22.2710   17.5688   23.8727 H   0  0  0  0  0  0  0  0  0  0  0  0
   20.7173   17.0058   24.4491 H   0  0  0  0  0  0  0  0  0  0  0  0
   20.8162   19.1584   24.0533 C   0  0  0  0  0  0  0  0  0  0  0  0
   21.5906   19.5687   24.7148 H   0  0  0  0  0  0  0  0  0  0  0  0
   20.8517   19.7573   23.1342 H   0  0  0  0  0  0  0  0  0  0  0  0
   19.4385   19.2974   24.7587 C   0  0  0  0  0  0  0  0  0  0  0  0
   19.4613   18.7292   25.6978 H   0  0  0  0  0  0  0  0  0  0  0  0
   18.6520   18.8343   24.1525 H   0  0  0  0  0  0  0  0  0  0  0  0
   19.0166   20.7504   25.0805 C   0  0  2  0  0  0  0  0  0  0  0  0
   18.0695   20.7001   25.6266 H   0  0  0  0  0  0  0  0  0  0  0  0
   18.7732   21.5762   23.8053 C   0  0  0  0  0  0  0  0  0  0  0  0
   18.0674   21.0654   23.1385 H   0  0  0  0  0  0  0  0  0  0  0  0
   18.3436   22.5533   24.0580 H   0  0  0  0  0  0  0  0  0  0  0  0
   19.7027   21.7531   23.2515 H   0  0  0  0  0  0  0  0  0  0  0  0
   19.9885   21.4435   25.9951 N   0  3  0  0  0  0  0  0  0  0  0  0
   20.1215   20.9220   26.8663 H   0  0  0  0  0  0  0  0  0  0  0  0
   19.6625   22.3813   26.2461 H   0  0  0  0  0  0  0  0  0  0  0  0
   20.9055   21.5451   25.5531 H   0  0  0  0  0  0  0  0  0  0  0  0
  1  2  1  0  0  0  0
  1  3  1  0  0  0  0
  1  4  1  0  0  0  0
  1  5  1  0  0  0  0
  5  6  1  0  0  0  0
  5  7  1  0  0  0  0
  5  8  1  0  0  0  0
  8  9  1  0  0  0  0
  8 10  1  0  0  0  0
  8 11  1  0  0  0  0
 11 12  1  0  0  0  0
 11 13  1  0  0  0  0
 11 14  1  0  0  0  0
 14 15  1  0  0  0  0
 14 16  1  0  0  0  0
 14 17  1  0  0  0  0
 17 18  1  0  0  0  0
 17 19  1  0  0  0  0
 17 20  1  0  0  0  0
 20 21  1  0  0  0  0
 20 22  1  0  0  0  0
 22 23  1  0  0  0  0
 22 24  1  0  0  0  0
 22 25  1  0  0  0  0
 20 26  1  0  0  0  0
 26 27  1  0  0  0  0
 26 28  1  0  0  0  0
 26 29  1  0  0  0  0
M  END
> <VConfSearch Rank>
600

> <Conf_Id>
117

> <Delta U+W>
3.377

> <U+W>
-24.449

> <U>
27.947

> <W>
-52.396

> <W(PB)>
-54.842

> <W(SA)>
2.447

> <Valence>
6.731

> <Coulomb>
20.067

> <VdW>
1.149

> <VdW6>
-10.427

> <VdW12>
11.575

> <Bond>
0.324

> <Angle>
1.943

> <Pdih>
4.465

> <Idih>
0.000

> <Tether>
0.000

$$$$
VeraChem MOL file


 29 28  0  0  0  0  0  0  0  0999 V2000     
   19.6047   23.5712   25.4355 C   0  0  0  0  0  0  0  0  0  0  0  0
   20.6904   23.6043   25.5947 H   0  0  0  0  0  0  0  0  0  0  0  0
   19.3822   24.0806   24.4888 H   0  0  0  0  0  0  0  0  0  0  0  0
   19.1279   24.1398   26.2444 H   0  0  0  0  0  0  0  0  0  0  0  0
   19.0911   22.1160   25.4162 C   0  0  0  0  0  0  0  0  0  0  0  0
   17.9994   22.1163   25.2895 H   0  0  0  0  0  0  0  0  0  0  0  0
   19.2976   21.6436   26.3869 H   0  0  0  0  0  0  0  0  0  0  0  0
   19.7471   21.2929   24.2857 C   0  0  0  0  0  0  0  0  0  0  0  0
   19.5399   21.7701   23.3178 H   0  0  0  0  0  0  0  0  0  0  0  0
   20.8382   21.2975   24.4153 H   0  0  0  0  0  0  0  0  0  0  0  0
   19.2351   19.8350   24.2632 C   0  0  0  0  0  0  0  0  0  0  0  0
   18.1438   19.8321   24.1349 H   0  0  0  0  0  0  0  0  0  0  0  0
   19.4429   19.3584   25.2313 H   0  0  0  0  0  0  0  0  0  0  0  0
   19.8911   19.0121   23.1315 C   0  0  0  0  0  0  0  0  0  0  0  0
   19.6798   19.4874   22.1635 H   0  0  0  0  0  0  0  0  0  0  0  0
   20.9812   19.0252   23.2630 H   0  0  0  0  0  0  0  0  0  0  0  0
   19.3775   17.5519   23.1121 C   0  0  0  0  0  0  0  0  0  0  0  0
   18.2820   17.5621   23.0349 H   0  0  0  0  0  0  0  0  0  0  0  0
   19.6202   17.0600   24.0635 H   0  0  0  0  0  0  0  0  0  0  0  0
   19.9510   16.7270   21.9397 C   0  0  2  0  0  0  0  0  0  0  0  0
   19.7176   17.2489   21.0065 H   0  0  0  0  0  0  0  0  0  0  0  0
   19.2955   15.3376   21.8928 C   0  0  0  0  0  0  0  0  0  0  0  0
   19.6719   14.7592   21.0400 H   0  0  0  0  0  0  0  0  0  0  0  0
   19.5020   14.7701   22.8088 H   0  0  0  0  0  0  0  0  0  0  0  0
   18.2073   15.4235   21.7820 H   0  0  0  0  0  0  0  0  0  0  0  0
   21.4487   16.6012   22.0027 N   0  3  0  0  0  0  0  0  0  0  0  0
   21.9017   17.5189   21.9898 H   0  0  0  0  0  0  0  0  0  0  0  0
   21.8131   16.0684   21.2077 H   0  0  0  0  0  0  0  0  0  0  0  0
   21.7471   16.1214   22.8561 H   0  0  0  0  0  0  0  0  0  0  0  0
  1  2  1  0  0  0  0
  1  3  1  0  0  0  0
  1  4  1  0  0  0  0
  1  5  1  0  0  0  0
  5  6  1  0  0  0  0
  5  7  1  0  0  0  0
  5  8  1  0  0  0  0
  8  9  1  0  0  0  0
  8 10  1  0  0  0  0
  8 11  1  0  0  0  0
 11 12  1  0  0  0  0
 11 13  1  0  0  0  0
 11 14  1  0  0  0  0
 14 15  1  0  0  0  0
 14 16  1  0  0  0  0
 14 17  1  0  0  0  0
 17 18  1  0  0  0  0
 17 19  1  0  0  0  0
 17 20  1  0  0  0  0
 20 21  1  0  0  0  0
 20 22  1  0  0  0  0
 22 23  1  0  0  0  0
 22 24  1  0  0  0  0
 22 25  1  0  0  0  0
 20 26  1  0  0  0  0
 26 27  1  0  0  0  0
 26 28  1  0  0  0  0
 26 29  1  0  0  0  0
M  END
> <VConfSearch Rank>
601

> <Conf_Id>
164

> <Delta U+W>
0.000

> <U+W>
-27.826

> <U>
23.963

> <W>
-51.789

> <W(PB)>
-54.342

> <W(SA)>
2.554

> <Valence>
3.166

> <Coulomb>
19.734

> <VdW>
1.062

> <VdW6>
-7.938

> <VdW12>
9.001

> <Bond>
0.188

> <Angle>
0.880

> <Pdih>
2.098

> <Idih>
0.000

> <Tether>
0.000

$$$$
VeraChem MOL file


 29 28  0  0  0  0  0  0  0  0999 V2000     
   24.3130   20.8207   22.9351 C   0  0  0  0  0  0  0  0  0  0  0  0
   24.5471   20.8333   24.0076 H   0  0  0  0  0  0  0  0  0  0  0  0
   24.6863   19.8778   22.5145 H   0  0  0  0  0  0  0  0  0  0  0  0
   24.8638   21.6430   22.4601 H   0  0  0  0  0  0  0  0  0  0  0  0
   22.7957   20.9719   22.6968 C   0  0  0  0  0  0  0  0  0  0  0  0
   22.5963   20.9898   21.6162 H   0  0  0  0  0  0  0  0  0  0  0  0
   22.4582   21.9380   23.0977 H   0  0  0  0  0  0  0  0  0  0  0  0
   21.9964   19.8260   23.3557 C   0  0  0  0  0  0  0  0  0  0  0  0
   22.3390   18.8625   22.9537 H   0  0  0  0  0  0  0  0  0  0  0  0
   22.2006   19.8107   24.4353 H   0  0  0  0  0  0  0  0  0  0  0  0
   20.4765   19.9740   23.1192 C   0  0  0  0  0  0  0  0  0  0  0  0
   20.2730   19.9889   22.0395 H   0  0  0  0  0  0  0  0  0  0  0  0
   20.1358   20.9385   23.5205 H   0  0  0  0  0  0  0  0  0  0  0  0
   19.6771   18.8276   23.7791 C   0  0  0  0  0  0  0  0  0  0  0  0
   20.0310   17.8689   23.3778 H   0  0  0  0  0  0  0  0  0  0  0  0
   19.8768   18.8161   24.8596 H   0  0  0  0  0  0  0  0  0  0  0  0
   18.1549   18.9757   23.5366 C   0  0  0  0  0  0  0  0  0  0  0  0
   17.9443   18.9219   22.4602 H   0  0  0  0  0  0  0  0  0  0  0  0
   17.8447   19.9766   23.8647 H   0  0  0  0  0  0  0  0  0  0  0  0
   17.2999   17.9289   24.2867 C   0  0  2  0  0  0  0  0  0  0  0  0
   17.5576   17.9730   25.3494 H   0  0  0  0  0  0  0  0  0  0  0  0
   17.5583   16.4981   23.7814 C   0  0  0  0  0  0  0  0  0  0  0  0
   17.3741   16.4190   22.7027 H   0  0  0  0  0  0  0  0  0  0  0  0
   18.5903   16.1857   23.9781 H   0  0  0  0  0  0  0  0  0  0  0  0
   16.9008   15.7837   24.2919 H   0  0  0  0  0  0  0  0  0  0  0  0
   15.8357   18.2570   24.1917 N   0  3  0  0  0  0  0  0  0  0  0  0
   15.2677   17.5886   24.7202 H   0  0  0  0  0  0  0  0  0  0  0  0
   15.5097   18.2350   23.2217 H   0  0  0  0  0  0  0  0  0  0  0  0
   15.6332   19.1895   24.5636 H   0  0  0  0  0  0  0  0  0  0  0  0
  1  2  1  0  0  0  0
  1  3  1  0  0  0  0
  1  4  1  0  0  0  0
  1  5  1  0  0  0  0
  5  6  1  0  0  0  0
  5  7  1  0  0  0  0
  5  8  1  0  0  0  0
  8  9  1  0  0  0  0
  8 10  1  0  0  0  0
  8 11  1  0  0  0  0
 11 12  1  0  0  0  0
 11 13  1  0  0  0  0
 11 14  1  0  0  0  0
 14 15  1  0  0  0  0
 14 16  1  0  0  0  0
 14 17  1  0  0  0  0
 17 18  1  0  0  0  0
 17 19  1  0  0  0  0
 17 20  1  0  0  0  0
 20 21  1  0  0  0  0
 20 22  1  0  0  0  0
 22 23  1  0  0  0  0
 22 24  1  0  0  0  0
 22 25  1  0  0  0  0
 20 26  1  0  0  0  0
 26 27  1  0  0  0  0
 26 28  1  0  0  0  0
 26 29  1  0  0  0  0
M  END
> <VConfSearch Rank>
602

> <Conf_Id>
58

> <Delta U+W>
0.412

> <U+W>
-27.414

> <U>
24.279

> <W>
-51.694

> <W(PB)>
-54.271

> <W(SA)>
2.577

> <Valence>
3.709

> <Coulomb>
19.380

> <VdW>
1.191

> <VdW6>
-8.093

> <VdW12>
9.284

> <Bond>
0.200

> <Angle>
1.161

> <Pdih>
2.348

> <Idih>
0.000

> <Tether>
0.000

$$$$
VeraChem MOL file


 29 28  0  0  0  0  0  0  0  0999 V2000     
   20.0848   21.8234   27.3079 C   0  0  0  0  0  0  0  0  0  0  0  0
   19.5129   21.1190   27.9259 H   0  0  0  0  0  0  0  0  0  0  0  0
   21.1520   21.5954   27.4281 H   0  0  0  0  0  0  0  0  0  0  0  0
   19.9099   22.8340   27.6992 H   0  0  0  0  0  0  0  0  0  0  0  0
   19.6616   21.7318   25.8266 C   0  0  0  0  0  0  0  0  0  0  0  0
   20.2256   22.4704   25.2399 H   0  0  0  0  0  0  0  0  0  0  0  0
   18.5992   21.9975   25.7339 H   0  0  0  0  0  0  0  0  0  0  0  0
   19.8977   20.3181   25.2508 C   0  0  0  0  0  0  0  0  0  0  0  0
   20.9604   20.0561   25.3476 H   0  0  0  0  0  0  0  0  0  0  0  0
   19.3339   19.5831   25.8419 H   0  0  0  0  0  0  0  0  0  0  0  0
   19.4747   20.2224   23.7675 C   0  0  0  0  0  0  0  0  0  0  0  0
   20.0386   20.9582   23.1776 H   0  0  0  0  0  0  0  0  0  0  0  0
   18.4120   20.4850   23.6719 H   0  0  0  0  0  0  0  0  0  0  0  0
   19.7108   18.8079   23.1917 C   0  0  0  0  0  0  0  0  0  0  0  0
   20.7737   18.5512   23.2917 H   0  0  0  0  0  0  0  0  0  0  0  0
   19.1476   18.0800   23.7903 H   0  0  0  0  0  0  0  0  0  0  0  0
   19.2812   18.7174   21.7042 C   0  0  0  0  0  0  0  0  0  0  0  0
   19.8157   19.4837   21.1275 H   0  0  0  0  0  0  0  0  0  0  0  0
   18.2147   18.9645   21.6189 H   0  0  0  0  0  0  0  0  0  0  0  0
   19.5278   17.3437   21.0370 C   0  0  2  0  0  0  0  0  0  0  0  0
   19.2117   17.4282   19.9926 H   0  0  0  0  0  0  0  0  0  0  0  0
   18.6929   16.2264   21.6865 C   0  0  0  0  0  0  0  0  0  0  0  0
   18.7823   15.2971   21.1107 H   0  0  0  0  0  0  0  0  0  0  0  0
   19.0217   16.0177   22.7115 H   0  0  0  0  0  0  0  0  0  0  0  0
   17.6307   16.4994   21.7145 H   0  0  0  0  0  0  0  0  0  0  0  0
   20.9856   16.9759   21.0025 N   0  3  0  0  0  0  0  0  0  0  0  0
   21.5431   17.6945   20.5318 H   0  0  0  0  0  0  0  0  0  0  0  0
   21.1374   16.0947   20.5034 H   0  0  0  0  0  0  0  0  0  0  0  0
   21.3622   16.8627   21.9470 H   0  0  0  0  0  0  0  0  0  0  0  0
  1  2  1  0  0  0  0
  1  3  1  0  0  0  0
  1  4  1  0  0  0  0
  1  5  1  0  0  0  0
  5  6  1  0  0  0  0
  5  7  1  0  0  0  0
  5  8  1  0  0  0  0
  8  9  1  0  0  0  0
  8 10  1  0  0  0  0
  8 11  1  0  0  0  0
 11 12  1  0  0  0  0
 11 13  1  0  0  0  0
 11 14  1  0  0  0  0
 14 15  1  0  0  0  0
 14 16  1  0  0  0  0
 14 17  1  0  0  0  0
 17 18  1  0  0  0  0
 17 19  1  0  0  0  0
 17 20  1  0  0  0  0
 20 21  1  0  0  0  0
 20 22  1  0  0  0  0
 22 23  1  0  0  0  0
 22 24  1  0  0  0  0
 22 25  1  0  0  0  0
 20 26  1  0  0  0  0
 26 27  1  0  0  0  0
 26 28  1  0  0  0  0
 26 29  1  0  0  0  0
M  END
> <VConfSearch Rank>
603

> <Conf_Id>
137

> <Delta U+W>
0.280

> <U+W>
-27.546

> <U>
24.513

> <W>
-52.059

> <W(PB)>
-54.556

> <W(SA)>
2.497

> <Valence>
3.677

> <Coulomb>
19.662

> <VdW>
1.174

> <VdW6>
-8.569

> <VdW12>
9.743

> <Bond>
0.224

> <Angle>
1.211

> <Pdih>
2.243

> <Idih>
0.000

> <Tether>
0.000

$$$$
VeraChem MOL file


 29 28  0  0  0  0  0  0  0  0999 V2000     
   15.5231   18.5555   24.8233 C   0  0  0  0  0  0  0  0  0  0  0  0
   15.5951   17.6882   24.1541 H   0  0  0  0  0  0  0  0  0  0  0  0
   15.7919   18.2291   25.8364 H   0  0  0  0  0  0  0  0  0  0  0  0
   14.4749   18.8813   24.8411 H   0  0  0  0  0  0  0  0  0  0  0  0
   16.4416   19.7010   24.3477 C   0  0  0  0  0  0  0  0  0  0  0  0
   16.3213   20.5653   25.0158 H   0  0  0  0  0  0  0  0  0  0  0  0
   16.1281   20.0281   23.3463 H   0  0  0  0  0  0  0  0  0  0  0  0
   17.9243   19.2689   24.3142 C   0  0  0  0  0  0  0  0  0  0  0  0
   18.2333   18.9453   25.3177 H   0  0  0  0  0  0  0  0  0  0  0  0
   18.0271   18.3997   23.6520 H   0  0  0  0  0  0  0  0  0  0  0  0
   18.8453   20.4161   23.8331 C   0  0  0  0  0  0  0  0  0  0  0  0
   18.6630   21.3027   24.4562 H   0  0  0  0  0  0  0  0  0  0  0  0
   18.5779   20.7015   22.8063 H   0  0  0  0  0  0  0  0  0  0  0  0
   20.3545   20.0747   23.9011 C   0  0  0  0  0  0  0  0  0  0  0  0
   20.9156   20.9932   23.6866 H   0  0  0  0  0  0  0  0  0  0  0  0
   20.6194   19.7820   24.9265 H   0  0  0  0  0  0  0  0  0  0  0  0
   20.7833   18.9605   22.9110 C   0  0  0  0  0  0  0  0  0  0  0  0
   20.5282   19.2577   21.8851 H   0  0  0  0  0  0  0  0  0  0  0  0
   20.2082   18.0516   23.1246 H   0  0  0  0  0  0  0  0  0  0  0  0
   22.2853   18.6021   22.9897 C   0  0  2  0  0  0  0  0  0  0  0  0
   22.5286   18.3692   24.0310 H   0  0  0  0  0  0  0  0  0  0  0  0
   23.1867   19.7602   22.5248 C   0  0  0  0  0  0  0  0  0  0  0  0
   22.9327   20.0762   21.5053 H   0  0  0  0  0  0  0  0  0  0  0  0
   23.0962   20.6286   23.1870 H   0  0  0  0  0  0  0  0  0  0  0  0
   24.2407   19.4562   22.5335 H   0  0  0  0  0  0  0  0  0  0  0  0
   22.5877   17.3611   22.1965 N   0  3  0  0  0  0  0  0  0  0  0  0
   22.0319   16.5631   22.5178 H   0  0  0  0  0  0  0  0  0  0  0  0
   23.5739   17.0971   22.2770 H   0  0  0  0  0  0  0  0  0  0  0  0
   22.3876   17.4952   21.2017 H   0  0  0  0  0  0  0  0  0  0  0  0
  1  2  1  0  0  0  0
  1  3  1  0  0  0  0
  1  4  1  0  0  0  0
  1  5  1  0  0  0  0
  5  6  1  0  0  0  0
  5  7  1  0  0  0  0
  5  8  1  0  0  0  0
  8  9  1  0  0  0  0
  8 10  1  0  0  0  0
  8 11  1  0  0  0  0
 11 12  1  0  0  0  0
 11 13  1  0  0  0  0
 11 14  1  0  0  0  0
 14 15  1  0  0  0  0
 14 16  1  0  0  0  0
 14 17  1  0  0  0  0
 17 18  1  0  0  0  0
 17 19  1  0  0  0  0
 17 20  1  0  0  0  0
 20 21  1  0  0  0  0
 20 22  1  0  0  0  0
 22 23  1  0  0  0  0
 22 24  1  0  0  0  0
 22 25  1  0  0  0  0
 20 26  1  0  0  0  0
 26 27  1  0  0  0  0
 26 28  1  0  0  0  0
 26 29  1  0  0  0  0
M  END
> <VConfSearch Rank>
604

> <Conf_Id>
40

> <Delta U+W>
1.128

> <U+W>
-26.698

> <U>
25.442

> <W>
-52.140

> <W(PB)>
-54.658

> <W(SA)>
2.519

> <Valence>
4.343

> <Coulomb>
19.740

> <VdW>
1.360

> <VdW6>
-8.739

> <VdW12>
10.099

> <Bond>
0.251

> <Angle>
1.483

> <Pdih>
2.608

> <Idih>
0.000

> <Tether>
0.000

$$$$
VeraChem MOL file


 29 28  0  0  0  0  0  0  0  0999 V2000     
   19.7591   22.5730   20.8690 C   0  0  0  0  0  0  0  0  0  0  0  0
   20.8303   22.4558   21.0742 H   0  0  0  0  0  0  0  0  0  0  0  0
   19.5101   21.9734   19.9839 H   0  0  0  0  0  0  0  0  0  0  0  0
   19.5856   23.6278   20.6193 H   0  0  0  0  0  0  0  0  0  0  0  0
   18.8977   22.1566   22.0829 C   0  0  0  0  0  0  0  0  0  0  0  0
   17.8495   22.4136   21.8753 H   0  0  0  0  0  0  0  0  0  0  0  0
   19.1897   22.7453   22.9637 H   0  0  0  0  0  0  0  0  0  0  0  0
   18.9809   20.6461   22.4113 C   0  0  0  0  0  0  0  0  0  0  0  0
   18.2367   20.4284   23.1876 H   0  0  0  0  0  0  0  0  0  0  0  0
   18.6881   20.0625   21.5277 H   0  0  0  0  0  0  0  0  0  0  0  0
   20.3836   20.1967   22.8944 C   0  0  0  0  0  0  0  0  0  0  0  0
   20.6744   20.7761   23.7814 H   0  0  0  0  0  0  0  0  0  0  0  0
   21.1255   20.4264   22.1189 H   0  0  0  0  0  0  0  0  0  0  0  0
   20.4775   18.6830   23.2090 C   0  0  0  0  0  0  0  0  0  0  0  0
   20.1677   18.1047   22.3275 H   0  0  0  0  0  0  0  0  0  0  0  0
   21.5339   18.4394   23.3824 H   0  0  0  0  0  0  0  0  0  0  0  0
   19.6398   18.2505   24.4401 C   0  0  0  0  0  0  0  0  0  0  0  0
   18.5810   18.4685   24.2547 H   0  0  0  0  0  0  0  0  0  0  0  0
   19.9344   18.8425   25.3168 H   0  0  0  0  0  0  0  0  0  0  0  0
   19.7750   16.7460   24.7613 C   0  0  2  0  0  0  0  0  0  0  0  0
   19.5124   16.1786   23.8632 H   0  0  0  0  0  0  0  0  0  0  0  0
   18.8026   16.3499   25.8839 C   0  0  0  0  0  0  0  0  0  0  0  0
   18.8685   15.2751   26.0934 H   0  0  0  0  0  0  0  0  0  0  0  0
   19.0242   16.8932   26.8111 H   0  0  0  0  0  0  0  0  0  0  0  0
   17.7664   16.5699   25.5982 H   0  0  0  0  0  0  0  0  0  0  0  0
   21.1822   16.3568   25.1242 N   0  3  0  0  0  0  0  0  0  0  0  0
   21.5028   16.8535   25.9597 H   0  0  0  0  0  0  0  0  0  0  0  0
   21.8367   16.5715   24.3672 H   0  0  0  0  0  0  0  0  0  0  0  0
   21.2549   15.3537   25.3167 H   0  0  0  0  0  0  0  0  0  0  0  0
  1  2  1  0  0  0  0
  1  3  1  0  0  0  0
  1  4  1  0  0  0  0
  1  5  1  0  0  0  0
  5  6  1  0  0  0  0
  5  7  1  0  0  0  0
  5  8  1  0  0  0  0
  8  9  1  0  0  0  0
  8 10  1  0  0  0  0
  8 11  1  0  0  0  0
 11 12  1  0  0  0  0
 11 13  1  0  0  0  0
 11 14  1  0  0  0  0
 14 15  1  0  0  0  0
 14 16  1  0  0  0  0
 14 17  1  0  0  0  0
 17 18  1  0  0  0  0
 17 19  1  0  0  0  0
 17 20  1  0  0  0  0
 20 21  1  0  0  0  0
 20 22  1  0  0  0  0
 22 23  1  0  0  0  0
 22 24  1  0  0  0  0
 22 25  1  0  0  0  0
 20 26  1  0  0  0  0
 26 27  1  0  0  0  0
 26 28  1  0  0  0  0
 26 29  1  0  0  0  0
M  END
> <VConfSearch Rank>
605

> <Conf_Id>
134

> <Delta U+W>
1.228

> <U+W>
-26.598

> <U>
25.451

> <W>
-52.048

> <W(PB)>
-54.539

> <W(SA)>
2.490

> <Valence>
4.319

> <Coulomb>
19.732

> <VdW>
1.400

> <VdW6>
-9.173

> <VdW12>
10.573

> <Bond>
0.281

> <Angle>
1.459

> <Pdih>
2.580

> <Idih>
0.000

> <Tether>
0.000

$$$$
VeraChem MOL file


 29 28  0  0  0  0  0  0  0  0999 V2000     
   18.8939   16.2412   20.3801 C   0  0  0  0  0  0  0  0  0  0  0  0
   19.9863   16.1443   20.3983 H   0  0  0  0  0  0  0  0  0  0  0  0
   18.4731   15.5367   21.1092 H   0  0  0  0  0  0  0  0  0  0  0  0
   18.5530   15.9353   19.3826 H   0  0  0  0  0  0  0  0  0  0  0  0
   18.4456   17.6890   20.6836 C   0  0  0  0  0  0  0  0  0  0  0  0
   17.3603   17.7617   20.5270 H   0  0  0  0  0  0  0  0  0  0  0  0
   18.9069   18.3783   19.9627 H   0  0  0  0  0  0  0  0  0  0  0  0
   18.7691   18.1464   22.1266 C   0  0  0  0  0  0  0  0  0  0  0  0
   18.2959   19.1237   22.2860 H   0  0  0  0  0  0  0  0  0  0  0  0
   18.3041   17.4555   22.8431 H   0  0  0  0  0  0  0  0  0  0  0  0
   20.2884   18.2538   22.4134 C   0  0  0  0  0  0  0  0  0  0  0  0
   20.7530   18.9459   21.6977 H   0  0  0  0  0  0  0  0  0  0  0  0
   20.7612   17.2769   22.2496 H   0  0  0  0  0  0  0  0  0  0  0  0
   20.6130   18.7055   23.8587 C   0  0  0  0  0  0  0  0  0  0  0  0
   20.1578   17.9991   24.5654 H   0  0  0  0  0  0  0  0  0  0  0  0
   21.6996   18.6381   24.0080 H   0  0  0  0  0  0  0  0  0  0  0  0
   20.1509   20.1517   24.1737 C   0  0  0  0  0  0  0  0  0  0  0  0
   19.0550   20.2069   24.1729 H   0  0  0  0  0  0  0  0  0  0  0  0
   20.4992   20.8137   23.3700 H   0  0  0  0  0  0  0  0  0  0  0  0
   20.6859   20.6916   25.5194 C   0  0  2  0  0  0  0  0  0  0  0  0
   21.7762   20.5978   25.5178 H   0  0  0  0  0  0  0  0  0  0  0  0
   20.1310   19.9045   26.7202 C   0  0  0  0  0  0  0  0  0  0  0  0
   19.0340   19.9200   26.7320 H   0  0  0  0  0  0  0  0  0  0  0  0
   20.4599   18.8591   26.6978 H   0  0  0  0  0  0  0  0  0  0  0  0
   20.4874   20.3366   27.6634 H   0  0  0  0  0  0  0  0  0  0  0  0
   20.3865   22.1568   25.6740 N   0  3  0  0  0  0  0  0  0  0  0  0
   20.7844   22.7059   24.9066 H   0  0  0  0  0  0  0  0  0  0  0  0
   20.7740   22.5275   26.5465 H   0  0  0  0  0  0  0  0  0  0  0  0
   19.3783   22.3331   25.6883 H   0  0  0  0  0  0  0  0  0  0  0  0
  1  2  1  0  0  0  0
  1  3  1  0  0  0  0
  1  4  1  0  0  0  0
  1  5  1  0  0  0  0
  5  6  1  0  0  0  0
  5  7  1  0  0  0  0
  5  8  1  0  0  0  0
  8  9  1  0  0  0  0
  8 10  1  0  0  0  0
  8 11  1  0  0  0  0
 11 12  1  0  0  0  0
 11 13  1  0  0  0  0
 11 14  1  0  0  0  0
 14 15  1  0  0  0  0
 14 16  1  0  0  0  0
 14 17  1  0  0  0  0
 17 18  1  0  0  0  0
 17 19  1  0  0  0  0
 17 20  1  0  0  0  0
 20 21  1  0  0  0  0
 20 22  1  0  0  0  0
 22 23  1  0  0  0  0
 22 24  1  0  0  0  0
 22 25  1  0  0  0  0
 20 26  1  0  0  0  0
 26 27  1  0  0  0  0
 26 28  1  0  0  0  0
 26 29  1  0  0  0  0
M  END
> <VConfSearch Rank>
606

> <Conf_Id>
73

> <Delta U+W>
1.580

> <U+W>
-26.246

> <U>
25.821

> <W>
-52.067

> <W(PB)>
-54.581

> <W(SA)>
2.514

> <Valence>
4.779

> <Coulomb>
19.614

> <VdW>
1.428

> <VdW6>
-9.390

> <VdW12>
10.818

> <Bond>
0.283

> <Angle>
1.640

> <Pdih>
2.856

> <Idih>
0.000

> <Tether>
0.000

$$$$
VeraChem MOL file


 29 28  0  0  0  0  0  0  0  0999 V2000     
   22.8888   22.0284   24.8817 C   0  0  0  0  0  0  0  0  0  0  0  0
   23.4468   21.6207   24.0286 H   0  0  0  0  0  0  0  0  0  0  0  0
   23.2127   23.0665   25.0312 H   0  0  0  0  0  0  0  0  0  0  0  0
   23.1665   21.4565   25.7767 H   0  0  0  0  0  0  0  0  0  0  0  0
   21.3672   21.9629   24.6317 C   0  0  0  0  0  0  0  0  0  0  0  0
   21.1159   22.5700   23.7508 H   0  0  0  0  0  0  0  0  0  0  0  0
   20.8384   22.4090   25.4857 H   0  0  0  0  0  0  0  0  0  0  0  0
   20.8845   20.5111   24.4190 C   0  0  0  0  0  0  0  0  0  0  0  0
   21.4277   20.0754   23.5704 H   0  0  0  0  0  0  0  0  0  0  0  0
   21.1356   19.9091   25.3031 H   0  0  0  0  0  0  0  0  0  0  0  0
   19.3594   20.4452   24.1635 C   0  0  0  0  0  0  0  0  0  0  0  0
   19.1126   20.9974   23.2461 H   0  0  0  0  0  0  0  0  0  0  0  0
   18.8388   20.9607   24.9824 H   0  0  0  0  0  0  0  0  0  0  0  0
   18.8063   19.0021   24.0653 C   0  0  0  0  0  0  0  0  0  0  0  0
   19.0510   18.4518   24.9844 H   0  0  0  0  0  0  0  0  0  0  0  0
   17.7109   19.0614   24.0230 H   0  0  0  0  0  0  0  0  0  0  0  0
   19.3307   18.2205   22.8331 C   0  0  0  0  0  0  0  0  0  0  0  0
   20.4231   18.1407   22.8920 H   0  0  0  0  0  0  0  0  0  0  0  0
   19.1046   18.7787   21.9149 H   0  0  0  0  0  0  0  0  0  0  0  0
   18.7453   16.7951   22.7309 C   0  0  2  0  0  0  0  0  0  0  0  0
   18.9510   16.2717   23.6697 H   0  0  0  0  0  0  0  0  0  0  0  0
   19.4216   16.0205   21.5884 C   0  0  0  0  0  0  0  0  0  0  0  0
   20.5055   15.9590   21.7468 H   0  0  0  0  0  0  0  0  0  0  0  0
   19.0352   14.9953   21.5323 H   0  0  0  0  0  0  0  0  0  0  0  0
   19.2447   16.5061   20.6205 H   0  0  0  0  0  0  0  0  0  0  0  0
   17.2515   16.7955   22.5528 N   0  3  0  0  0  0  0  0  0  0  0  0
   16.8804   15.8423   22.5046 H   0  0  0  0  0  0  0  0  0  0  0  0
   16.9789   17.2747   21.6905 H   0  0  0  0  0  0  0  0  0  0  0  0
   16.7821   17.2678   23.3301 H   0  0  0  0  0  0  0  0  0  0  0  0
  1  2  1  0  0  0  0
  1  3  1  0  0  0  0
  1  4  1  0  0  0  0
  1  5  1  0  0  0  0
  5  6  1  0  0  0  0
  5  7  1  0  0  0  0
  5  8  1  0  0  0  0
  8  9  1  0  0  0  0
  8 10  1  0  0  0  0
  8 11  1  0  0  0  0
 11 12  1  0  0  0  0
 11 13  1  0  0  0  0
 11 14  1  0  0  0  0
 14 15  1  0  0  0  0
 14 16  1  0  0  0  0
 14 17  1  0  0  0  0
 17 18  1  0  0  0  0
 17 19  1  0  0  0  0
 17 20  1  0  0  0  0
 20 21  1  0  0  0  0
 20 22  1  0  0  0  0
 22 23  1  0  0  0  0
 22 24  1  0  0  0  0
 22 25  1  0  0  0  0
 20 26  1  0  0  0  0
 26 27  1  0  0  0  0
 26 28  1  0  0  0  0
 26 29  1  0  0  0  0
M  END
> <VConfSearch Rank>
607

> <Conf_Id>
111

> <Delta U+W>
0.580

> <U+W>
-27.246

> <U>
24.710

> <W>
-51.957

> <W(PB)>
-54.511

> <W(SA)>
2.555

> <Valence>
3.735

> <Coulomb>
19.760

> <VdW>
1.216

> <VdW6>
-8.624

> <VdW12>
9.840

> <Bond>
0.236

> <Angle>
1.168

> <Pdih>
2.330

> <Idih>
0.000

> <Tether>
0.000

$$$$
VeraChem MOL file


 29 28  0  0  0  0  0  0  0  0999 V2000     
   20.8650   15.4247   25.5765 C   0  0  0  0  0  0  0  0  0  0  0  0
   21.8570   15.8225   25.8272 H   0  0  0  0  0  0  0  0  0  0  0  0
   20.1471   15.8056   26.3146 H   0  0  0  0  0  0  0  0  0  0  0  0
   20.9045   14.3323   25.6775 H   0  0  0  0  0  0  0  0  0  0  0  0
   20.4529   15.8248   24.1440 C   0  0  0  0  0  0  0  0  0  0  0  0
   19.4729   15.3857   23.9103 H   0  0  0  0  0  0  0  0  0  0  0  0
   21.1697   15.4007   23.4270 H   0  0  0  0  0  0  0  0  0  0  0  0
   20.3903   17.3589   23.9744 C   0  0  0  0  0  0  0  0  0  0  0  0
   19.6783   17.7706   24.7016 H   0  0  0  0  0  0  0  0  0  0  0  0
   21.3724   17.7931   24.2072 H   0  0  0  0  0  0  0  0  0  0  0  0
   19.9732   17.7613   22.5395 C   0  0  0  0  0  0  0  0  0  0  0  0
   18.9688   17.3721   22.3226 H   0  0  0  0  0  0  0  0  0  0  0  0
   20.6517   17.2806   21.8213 H   0  0  0  0  0  0  0  0  0  0  0  0
   20.0021   19.2899   22.2942 C   0  0  0  0  0  0  0  0  0  0  0  0
   21.0171   19.6636   22.4829 H   0  0  0  0  0  0  0  0  0  0  0  0
   19.7941   19.4764   21.2315 H   0  0  0  0  0  0  0  0  0  0  0  0
   18.9754   20.0711   23.1542 C   0  0  0  0  0  0  0  0  0  0  0  0
   19.2488   20.0109   24.2153 H   0  0  0  0  0  0  0  0  0  0  0  0
   17.9949   19.5869   23.0549 H   0  0  0  0  0  0  0  0  0  0  0  0
   18.8320   21.5556   22.7488 C   0  0  2  0  0  0  0  0  0  0  0  0
   18.5942   21.5985   21.6815 H   0  0  0  0  0  0  0  0  0  0  0  0
   20.1281   22.3495   22.9916 C   0  0  0  0  0  0  0  0  0  0  0  0
   20.4410   22.2869   24.0413 H   0  0  0  0  0  0  0  0  0  0  0  0
   20.9471   21.9765   22.3658 H   0  0  0  0  0  0  0  0  0  0  0  0
   19.9852   23.4081   22.7418 H   0  0  0  0  0  0  0  0  0  0  0  0
   17.6814   22.2054   23.4660 N   0  3  0  0  0  0  0  0  0  0  0  0
   16.7995   21.7178   23.2833 H   0  0  0  0  0  0  0  0  0  0  0  0
   17.5582   23.1782   23.1706 H   0  0  0  0  0  0  0  0  0  0  0  0
   17.8266   22.2099   24.4792 H   0  0  0  0  0  0  0  0  0  0  0  0
  1  2  1  0  0  0  0
  1  3  1  0  0  0  0
  1  4  1  0  0  0  0
  1  5  1  0  0  0  0
  5  6  1  0  0  0  0
  5  7  1  0  0  0  0
  5  8  1  0  0  0  0
  8  9  1  0  0  0  0
  8 10  1  0  0  0  0
  8 11  1  0  0  0  0
 11 12  1  0  0  0  0
 11 13  1  0  0  0  0
 11 14  1  0  0  0  0
 14 15  1  0  0  0  0
 14 16  1  0  0  0  0
 14 17  1  0  0  0  0
 17 18  1  0  0  0  0
 17 19  1  0  0  0  0
 17 20  1  0  0  0  0
 20 21  1  0  0  0  0
 20 22  1  0  0  0  0
 22 23  1  0  0  0  0
 22 24  1  0  0  0  0
 22 25  1  0  0  0  0
 20 26  1  0  0  0  0
 26 27  1  0  0  0  0
 26 28  1  0  0  0  0
 26 29  1  0  0  0  0
M  END
> <VConfSearch Rank>
608

> <Conf_Id>
39

> <Delta U+W>
0.965

> <U+W>
-26.861

> <U>
25.129

> <W>
-51.990

> <W(PB)>
-54.526

> <W(SA)>
2.536

> <Valence>
4.206

> <Coulomb>
19.678

> <VdW>
1.245

> <VdW6>
-8.834

> <VdW12>
10.079

> <Bond>
0.240

> <Angle>
1.353

> <Pdih>
2.613

> <Idih>
0.000

> <Tether>
0.000

$$$$
VeraChem MOL file


 29 28  0  0  0  0  0  0  0  0999 V2000     
   18.2712   15.9738   21.0163 C   0  0  0  0  0  0  0  0  0  0  0  0
   17.2410   16.3165   21.1784 H   0  0  0  0  0  0  0  0  0  0  0  0
   18.7494   16.6487   20.2958 H   0  0  0  0  0  0  0  0  0  0  0  0
   18.2252   14.9789   20.5547 H   0  0  0  0  0  0  0  0  0  0  0  0
   19.0536   15.9156   22.3480 C   0  0  0  0  0  0  0  0  0  0  0  0
   20.0899   15.6045   22.1555 H   0  0  0  0  0  0  0  0  0  0  0  0
   18.6113   15.1348   22.9824 H   0  0  0  0  0  0  0  0  0  0  0  0
   19.0444   17.2519   23.1293 C   0  0  0  0  0  0  0  0  0  0  0  0
   18.0066   17.5578   23.3199 H   0  0  0  0  0  0  0  0  0  0  0  0
   19.5003   17.0723   24.1112 H   0  0  0  0  0  0  0  0  0  0  0  0
   19.8027   18.3941   22.4063 C   0  0  0  0  0  0  0  0  0  0  0  0
   19.3498   18.5658   21.4214 H   0  0  0  0  0  0  0  0  0  0  0  0
   20.8418   18.0898   22.2197 H   0  0  0  0  0  0  0  0  0  0  0  0
   19.7850   19.7357   23.1797 C   0  0  0  0  0  0  0  0  0  0  0  0
   20.2199   20.5075   22.5314 H   0  0  0  0  0  0  0  0  0  0  0  0
   18.7431   20.0323   23.3591 H   0  0  0  0  0  0  0  0  0  0  0  0
   20.5664   19.6865   24.5212 C   0  0  0  0  0  0  0  0  0  0  0  0
   21.5701   19.2800   24.3406 H   0  0  0  0  0  0  0  0  0  0  0  0
   20.0753   18.9889   25.2107 H   0  0  0  0  0  0  0  0  0  0  0  0
   20.7120   21.0500   25.2374 C   0  0  2  0  0  0  0  0  0  0  0  0
   21.2833   20.8761   26.1545 H   0  0  0  0  0  0  0  0  0  0  0  0
   19.3490   21.6380   25.6419 C   0  0  0  0  0  0  0  0  0  0  0  0
   18.7551   21.9243   24.7657 H   0  0  0  0  0  0  0  0  0  0  0  0
   18.7703   20.9133   26.2280 H   0  0  0  0  0  0  0  0  0  0  0  0
   19.4858   22.5331   26.2611 H   0  0  0  0  0  0  0  0  0  0  0  0
   21.5086   22.0402   24.4331 N   0  3  0  0  0  0  0  0  0  0  0  0
   22.4346   21.6727   24.1960 H   0  0  0  0  0  0  0  0  0  0  0  0
   21.6487   22.9140   24.9483 H   0  0  0  0  0  0  0  0  0  0  0  0
   21.0354   22.2731   23.5566 H   0  0  0  0  0  0  0  0  0  0  0  0
  1  2  1  0  0  0  0
  1  3  1  0  0  0  0
  1  4  1  0  0  0  0
  1  5  1  0  0  0  0
  5  6  1  0  0  0  0
  5  7  1  0  0  0  0
  5  8  1  0  0  0  0
  8  9  1  0  0  0  0
  8 10  1  0  0  0  0
  8 11  1  0  0  0  0
 11 12  1  0  0  0  0
 11 13  1  0  0  0  0
 11 14  1  0  0  0  0
 14 15  1  0  0  0  0
 14 16  1  0  0  0  0
 14 17  1  0  0  0  0
 17 18  1  0  0  0  0
 17 19  1  0  0  0  0
 17 20  1  0  0  0  0
 20 21  1  0  0  0  0
 20 22  1  0  0  0  0
 22 23  1  0  0  0  0
 22 24  1  0  0  0  0
 22 25  1  0  0  0  0
 20 26  1  0  0  0  0
 26 27  1  0  0  0  0
 26 28  1  0  0  0  0
 26 29  1  0  0  0  0
M  END
> <VConfSearch Rank>
609

> <Conf_Id>
155

> <Delta U+W>
1.624

> <U+W>
-26.202

> <U>
25.894

> <W>
-52.096

> <W(PB)>
-54.602

> <W(SA)>
2.506

> <Valence>
4.779

> <Coulomb>
19.659

> <VdW>
1.456

> <VdW6>
-9.843

> <VdW12>
11.299

> <Bond>
0.315

> <Angle>
1.725

> <Pdih>
2.740

> <Idih>
0.000

> <Tether>
0.000

$$$$
VeraChem MOL file


 29 28  0  0  0  0  0  0  0  0999 V2000     
   19.3724   23.1102   24.0903 C   0  0  0  0  0  0  0  0  0  0  0  0
   19.2448   22.9803   23.0084 H   0  0  0  0  0  0  0  0  0  0  0  0
   18.4632   22.7512   24.5897 H   0  0  0  0  0  0  0  0  0  0  0  0
   19.4604   24.1867   24.2857 H   0  0  0  0  0  0  0  0  0  0  0  0
   20.6222   22.3626   24.6075 C   0  0  0  0  0  0  0  0  0  0  0  0
   20.7740   22.6152   25.6662 H   0  0  0  0  0  0  0  0  0  0  0  0
   21.5141   22.7213   24.0748 H   0  0  0  0  0  0  0  0  0  0  0  0
   20.5154   20.8245   24.4735 C   0  0  0  0  0  0  0  0  0  0  0  0
   21.3940   20.3705   24.9521 H   0  0  0  0  0  0  0  0  0  0  0  0
   19.6393   20.4772   25.0366 H   0  0  0  0  0  0  0  0  0  0  0  0
   20.4321   20.3419   23.0032 C   0  0  0  0  0  0  0  0  0  0  0  0
   21.2421   20.8115   22.4282 H   0  0  0  0  0  0  0  0  0  0  0  0
   19.4923   20.6811   22.5477 H   0  0  0  0  0  0  0  0  0  0  0  0
   20.5485   18.8055   22.8467 C   0  0  0  0  0  0  0  0  0  0  0  0
   20.6171   18.5817   21.7745 H   0  0  0  0  0  0  0  0  0  0  0  0
   21.4897   18.4601   23.2962 H   0  0  0  0  0  0  0  0  0  0  0  0
   19.3569   18.0292   23.4655 C   0  0  0  0  0  0  0  0  0  0  0  0
   18.4173   18.3659   23.0077 H   0  0  0  0  0  0  0  0  0  0  0  0
   19.2883   18.2720   24.5327 H   0  0  0  0  0  0  0  0  0  0  0  0
   19.4783   16.4936   23.3335 C   0  0  2  0  0  0  0  0  0  0  0  0
   20.4474   16.1895   23.7410 H   0  0  0  0  0  0  0  0  0  0  0  0
   19.3958   16.0256   21.8692 C   0  0  0  0  0  0  0  0  0  0  0  0
   18.4673   16.3673   21.3951 H   0  0  0  0  0  0  0  0  0  0  0  0
   20.2410   16.4007   21.2810 H   0  0  0  0  0  0  0  0  0  0  0  0
   19.4235   14.9305   21.8120 H   0  0  0  0  0  0  0  0  0  0  0  0
   18.4337   15.7952   24.1592 N   0  3  0  0  0  0  0  0  0  0  0  0
   18.4974   16.0562   25.1475 H   0  0  0  0  0  0  0  0  0  0  0  0
   18.5341   14.7775   24.1061 H   0  0  0  0  0  0  0  0  0  0  0  0
   17.4890   16.0260   23.8399 H   0  0  0  0  0  0  0  0  0  0  0  0
  1  2  1  0  0  0  0
  1  3  1  0  0  0  0
  1  4  1  0  0  0  0
  1  5  1  0  0  0  0
  5  6  1  0  0  0  0
  5  7  1  0  0  0  0
  5  8  1  0  0  0  0
  8  9  1  0  0  0  0
  8 10  1  0  0  0  0
  8 11  1  0  0  0  0
 11 12  1  0  0  0  0
 11 13  1  0  0  0  0
 11 14  1  0  0  0  0
 14 15  1  0  0  0  0
 14 16  1  0  0  0  0
 14 17  1  0  0  0  0
 17 18  1  0  0  0  0
 17 19  1  0  0  0  0
 17 20  1  0  0  0  0
 20 21  1  0  0  0  0
 20 22  1  0  0  0  0
 22 23  1  0  0  0  0
 22 24  1  0  0  0  0
 22 25  1  0  0  0  0
 20 26  1  0  0  0  0
 26 27  1  0  0  0  0
 26 28  1  0  0  0  0
 26 29  1  0  0  0  0
M  END
> <VConfSearch Rank>
610

> <Conf_Id>
135

> <Delta U+W>
1.581

> <U+W>
-26.245

> <U>
25.974

> <W>
-52.219

> <W(PB)>
-54.709

> <W(SA)>
2.490

> <Valence>
4.811

> <Coulomb>
19.700

> <VdW>
1.463

> <VdW6>
-9.391

> <VdW12>
10.854

> <Bond>
0.285

> <Angle>
1.671

> <Pdih>
2.855

> <Idih>
0.000

> <Tether>
0.000

$$$$
VeraChem MOL file


 29 28  0  0  0  0  0  0  0  0999 V2000     
   20.2982   15.5575   25.3900 C   0  0  0  0  0  0  0  0  0  0  0  0
   20.7088   15.3403   24.3953 H   0  0  0  0  0  0  0  0  0  0  0  0
   21.0147   16.1910   25.9273 H   0  0  0  0  0  0  0  0  0  0  0  0
   20.2218   14.6085   25.9364 H   0  0  0  0  0  0  0  0  0  0  0  0
   18.9124   16.2333   25.2834 C   0  0  0  0  0  0  0  0  0  0  0  0
   18.5354   16.4639   26.2896 H   0  0  0  0  0  0  0  0  0  0  0  0
   18.2020   15.5186   24.8451 H   0  0  0  0  0  0  0  0  0  0  0  0
   18.9216   17.5179   24.4204 C   0  0  0  0  0  0  0  0  0  0  0  0
   19.2718   17.2688   23.4101 H   0  0  0  0  0  0  0  0  0  0  0  0
   17.8878   17.8739   24.3129 H   0  0  0  0  0  0  0  0  0  0  0  0
   19.7889   18.6535   25.0199 C   0  0  0  0  0  0  0  0  0  0  0  0
   20.8462   18.3575   25.0244 H   0  0  0  0  0  0  0  0  0  0  0  0
   19.5049   18.8053   26.0703 H   0  0  0  0  0  0  0  0  0  0  0  0
   19.6402   20.0001   24.2703 C   0  0  0  0  0  0  0  0  0  0  0  0
   18.5885   20.3138   24.3027 H   0  0  0  0  0  0  0  0  0  0  0  0
   20.2106   20.7666   24.8130 H   0  0  0  0  0  0  0  0  0  0  0  0
   20.1376   19.9438   22.8029 C   0  0  0  0  0  0  0  0  0  0  0  0
   19.4923   19.2819   22.2115 H   0  0  0  0  0  0  0  0  0  0  0  0
   21.1406   19.4971   22.7902 H   0  0  0  0  0  0  0  0  0  0  0  0
   20.2094   21.3288   22.1208 C   0  0  2  0  0  0  0  0  0  0  0  0
   20.8266   21.9856   22.7417 H   0  0  0  0  0  0  0  0  0  0  0  0
   18.8189   21.9702   21.9656 C   0  0  0  0  0  0  0  0  0  0  0  0
   18.1426   21.3188   21.3981 H   0  0  0  0  0  0  0  0  0  0  0  0
   18.3624   22.1731   22.9413 H   0  0  0  0  0  0  0  0  0  0  0  0
   18.8923   22.9282   21.4363 H   0  0  0  0  0  0  0  0  0  0  0  0
   20.8942   21.2412   20.7853 N   0  3  0  0  0  0  0  0  0  0  0  0
   20.9793   22.1631   20.3476 H   0  0  0  0  0  0  0  0  0  0  0  0
   20.3754   20.6422   20.1374 H   0  0  0  0  0  0  0  0  0  0  0  0
   21.8395   20.8564   20.8708 H   0  0  0  0  0  0  0  0  0  0  0  0
  1  2  1  0  0  0  0
  1  3  1  0  0  0  0
  1  4  1  0  0  0  0
  1  5  1  0  0  0  0
  5  6  1  0  0  0  0
  5  7  1  0  0  0  0
  5  8  1  0  0  0  0
  8  9  1  0  0  0  0
  8 10  1  0  0  0  0
  8 11  1  0  0  0  0
 11 12  1  0  0  0  0
 11 13  1  0  0  0  0
 11 14  1  0  0  0  0
 14 15  1  0  0  0  0
 14 16  1  0  0  0  0
 14 17  1  0  0  0  0
 17 18  1  0  0  0  0
 17 19  1  0  0  0  0
 17 20  1  0  0  0  0
 20 21  1  0  0  0  0
 20 22  1  0  0  0  0
 22 23  1  0  0  0  0
 22 24  1  0  0  0  0
 22 25  1  0  0  0  0
 20 26  1  0  0  0  0
 26 27  1  0  0  0  0
 26 28  1  0  0  0  0
 26 29  1  0  0  0  0
M  END
> <VConfSearch Rank>
611

> <Conf_Id>
130

> <Delta U+W>
1.359

> <U+W>
-26.467

> <U>
25.687

> <W>
-52.154

> <W(PB)>
-54.643

> <W(SA)>
2.489

> <Valence>
4.682

> <Coulomb>
19.653

> <VdW>
1.352

> <VdW6>
-9.477

> <VdW12>
10.829

> <Bond>
0.274

> <Angle>
1.550

> <Pdih>
2.858

> <Idih>
0.000

> <Tether>
0.000

$$$$
VeraChem MOL file


 29 28  0  0  0  0  0  0  0  0999 V2000     
   23.6962   19.1061   22.3481 C   0  0  0  0  0  0  0  0  0  0  0  0
   24.7349   19.1486   22.7005 H   0  0  0  0  0  0  0  0  0  0  0  0
   23.7006   18.6656   21.3426 H   0  0  0  0  0  0  0  0  0  0  0  0
   23.3323   20.1380   22.2705 H   0  0  0  0  0  0  0  0  0  0  0  0
   22.8305   18.2696   23.3174 C   0  0  0  0  0  0  0  0  0  0  0  0
   22.8151   18.7486   24.3063 H   0  0  0  0  0  0  0  0  0  0  0  0
   23.3055   17.2887   23.4584 H   0  0  0  0  0  0  0  0  0  0  0  0
   21.3813   18.0516   22.8191 C   0  0  0  0  0  0  0  0  0  0  0  0
   21.4029   17.5562   21.8388 H   0  0  0  0  0  0  0  0  0  0  0  0
   20.8861   17.3525   23.5046 H   0  0  0  0  0  0  0  0  0  0  0  0
   20.5600   19.3628   22.7219 C   0  0  0  0  0  0  0  0  0  0  0  0
   21.0292   20.0250   21.9827 H   0  0  0  0  0  0  0  0  0  0  0  0
   20.5993   19.8945   23.6803 H   0  0  0  0  0  0  0  0  0  0  0  0
   19.0889   19.1290   22.2899 C   0  0  0  0  0  0  0  0  0  0  0  0
   18.6494   20.0782   21.9534 H   0  0  0  0  0  0  0  0  0  0  0  0
   19.0878   18.4772   21.4053 H   0  0  0  0  0  0  0  0  0  0  0  0
   18.1814   18.4993   23.3829 C   0  0  0  0  0  0  0  0  0  0  0  0
   18.7702   17.8903   24.0792 H   0  0  0  0  0  0  0  0  0  0  0  0
   17.4938   17.8029   22.8852 H   0  0  0  0  0  0  0  0  0  0  0  0
   17.3236   19.5164   24.1731 C   0  0  2  0  0  0  0  0  0  0  0  0
   16.7183   20.0807   23.4571 H   0  0  0  0  0  0  0  0  0  0  0  0
   18.1749   20.5151   24.9752 C   0  0  0  0  0  0  0  0  0  0  0  0
   18.7566   21.1611   24.3077 H   0  0  0  0  0  0  0  0  0  0  0  0
   17.5359   21.1692   25.5811 H   0  0  0  0  0  0  0  0  0  0  0  0
   18.8675   19.9957   25.6492 H   0  0  0  0  0  0  0  0  0  0  0  0
   16.3546   18.8130   25.0824 N   0  3  0  0  0  0  0  0  0  0  0  0
   15.7438   18.1761   24.5625 H   0  0  0  0  0  0  0  0  0  0  0  0
   15.7520   19.4794   25.5737 H   0  0  0  0  0  0  0  0  0  0  0  0
   16.8422   18.2606   25.7928 H   0  0  0  0  0  0  0  0  0  0  0  0
  1  2  1  0  0  0  0
  1  3  1  0  0  0  0
  1  4  1  0  0  0  0
  1  5  1  0  0  0  0
  5  6  1  0  0  0  0
  5  7  1  0  0  0  0
  5  8  1  0  0  0  0
  8  9  1  0  0  0  0
  8 10  1  0  0  0  0
  8 11  1  0  0  0  0
 11 12  1  0  0  0  0
 11 13  1  0  0  0  0
 11 14  1  0  0  0  0
 14 15  1  0  0  0  0
 14 16  1  0  0  0  0
 14 17  1  0  0  0  0
 17 18  1  0  0  0  0
 17 19  1  0  0  0  0
 17 20  1  0  0  0  0
 20 21  1  0  0  0  0
 20 22  1  0  0  0  0
 22 23  1  0  0  0  0
 22 24  1  0  0  0  0
 22 25  1  0  0  0  0
 20 26  1  0  0  0  0
 26 27  1  0  0  0  0
 26 28  1  0  0  0  0
 26 29  1  0  0  0  0
M  END
> <VConfSearch Rank>
612

> <Conf_Id>
157

> <Delta U+W>
4.354

> <U+W>
-23.472

> <U>
28.780

> <W>
-52.252

> <W(PB)>
-54.715

> <W(SA)>
2.462

> <Valence>
7.566

> <Coulomb>
19.822

> <VdW>
1.392

> <VdW6>
-10.248

> <VdW12>
11.641

> <Bond>
0.340

> <Angle>
2.096

> <Pdih>
5.129

> <Idih>
0.000

> <Tether>
0.000

$$$$
VeraChem MOL file


 29 28  0  0  0  0  0  0  0  0999 V2000     
   20.2132   19.7177   27.1660 C   0  0  0  0  0  0  0  0  0  0  0  0
   20.6520   19.2846   28.0741 H   0  0  0  0  0  0  0  0  0  0  0  0
   20.9929   19.7364   26.3965 H   0  0  0  0  0  0  0  0  0  0  0  0
   19.9375   20.7559   27.3920 H   0  0  0  0  0  0  0  0  0  0  0  0
   18.9759   18.9033   26.7217 C   0  0  0  0  0  0  0  0  0  0  0  0
   18.2494   18.9146   27.5463 H   0  0  0  0  0  0  0  0  0  0  0  0
   19.2459   17.8487   26.5717 H   0  0  0  0  0  0  0  0  0  0  0  0
   18.2909   19.4707   25.4518 C   0  0  0  0  0  0  0  0  0  0  0  0
   17.2056   19.3397   25.5620 H   0  0  0  0  0  0  0  0  0  0  0  0
   18.4520   20.5555   25.3857 H   0  0  0  0  0  0  0  0  0  0  0  0
   18.7097   18.7879   24.1241 C   0  0  0  0  0  0  0  0  0  0  0  0
   18.1050   19.2243   23.3187 H   0  0  0  0  0  0  0  0  0  0  0  0
   18.4437   17.7226   24.1632 H   0  0  0  0  0  0  0  0  0  0  0  0
   20.2134   18.9290   23.7822 C   0  0  0  0  0  0  0  0  0  0  0  0
   20.5090   19.9856   23.8240 H   0  0  0  0  0  0  0  0  0  0  0  0
   20.8058   18.4113   24.5473 H   0  0  0  0  0  0  0  0  0  0  0  0
   20.5884   18.3244   22.4045 C   0  0  0  0  0  0  0  0  0  0  0  0
   20.3595   17.2505   22.4160 H   0  0  0  0  0  0  0  0  0  0  0  0
   21.6747   18.4043   22.2647 H   0  0  0  0  0  0  0  0  0  0  0  0
   19.8718   18.9793   21.2021 C   0  0  2  0  0  0  0  0  0  0  0  0
   18.7926   18.8647   21.3383 H   0  0  0  0  0  0  0  0  0  0  0  0
   20.2659   18.2726   19.8956 C   0  0  0  0  0  0  0  0  0  0  0  0
   21.3426   18.3625   19.7044 H   0  0  0  0  0  0  0  0  0  0  0  0
   20.0144   17.2056   19.9388 H   0  0  0  0  0  0  0  0  0  0  0  0
   19.7298   18.7067   19.0426 H   0  0  0  0  0  0  0  0  0  0  0  0
   20.1418   20.4558   21.1081 N   0  3  0  0  0  0  0  0  0  0  0  0
   19.8466   20.9413   21.9597 H   0  0  0  0  0  0  0  0  0  0  0  0
   19.6403   20.8793   20.3221 H   0  0  0  0  0  0  0  0  0  0  0  0
   21.1387   20.6445   20.9743 H   0  0  0  0  0  0  0  0  0  0  0  0
  1  2  1  0  0  0  0
  1  3  1  0  0  0  0
  1  4  1  0  0  0  0
  1  5  1  0  0  0  0
  5  6  1  0  0  0  0
  5  7  1  0  0  0  0
  5  8  1  0  0  0  0
  8  9  1  0  0  0  0
  8 10  1  0  0  0  0
  8 11  1  0  0  0  0
 11 12  1  0  0  0  0
 11 13  1  0  0  0  0
 11 14  1  0  0  0  0
 14 15  1  0  0  0  0
 14 16  1  0  0  0  0
 14 17  1  0  0  0  0
 17 18  1  0  0  0  0
 17 19  1  0  0  0  0
 17 20  1  0  0  0  0
 20 21  1  0  0  0  0
 20 22  1  0  0  0  0
 22 23  1  0  0  0  0
 22 24  1  0  0  0  0
 22 25  1  0  0  0  0
 20 26  1  0  0  0  0
 26 27  1  0  0  0  0
 26 28  1  0  0  0  0
 26 29  1  0  0  0  0
M  END
> <VConfSearch Rank>
613

> <Conf_Id>
158

> <Delta U+W>
3.648

> <U+W>
-24.178

> <U>
28.057

> <W>
-52.235

> <W(PB)>
-54.696

> <W(SA)>
2.460

> <Valence>
6.543

> <Coulomb>
20.387

> <VdW>
1.127

> <VdW6>
-10.342

> <VdW12>
11.469

> <Bond>
0.308

> <Angle>
1.938

> <Pdih>
4.297

> <Idih>
0.000

> <Tether>
0.000

$$$$
VeraChem MOL file


 29 28  0  0  0  0  0  0  0  0999 V2000     
   20.5436   17.1619   20.3970 C   0  0  0  0  0  0  0  0  0  0  0  0
   21.1655   16.4774   20.9884 H   0  0  0  0  0  0  0  0  0  0  0  0
   19.5398   17.1842   20.8390 H   0  0  0  0  0  0  0  0  0  0  0  0
   20.4497   16.7424   19.3870 H   0  0  0  0  0  0  0  0  0  0  0  0
   21.1708   18.5734   20.3398 C   0  0  0  0  0  0  0  0  0  0  0  0
   20.5146   19.2468   19.7709 H   0  0  0  0  0  0  0  0  0  0  0  0
   22.1148   18.5185   19.7799 H   0  0  0  0  0  0  0  0  0  0  0  0
   21.4565   19.1769   21.7361 C   0  0  0  0  0  0  0  0  0  0  0  0
   22.1271   18.5086   22.2937 H   0  0  0  0  0  0  0  0  0  0  0  0
   22.0019   20.1214   21.6029 H   0  0  0  0  0  0  0  0  0  0  0  0
   20.1780   19.4439   22.5657 C   0  0  0  0  0  0  0  0  0  0  0  0
   19.6543   18.4996   22.7503 H   0  0  0  0  0  0  0  0  0  0  0  0
   19.4919   20.0749   21.9843 H   0  0  0  0  0  0  0  0  0  0  0  0
   20.5035   20.1429   23.9086 C   0  0  0  0  0  0  0  0  0  0  0  0
   21.2477   19.5641   24.4730 H   0  0  0  0  0  0  0  0  0  0  0  0
   20.9775   21.1088   23.6851 H   0  0  0  0  0  0  0  0  0  0  0  0
   19.2513   20.4015   24.7879 C   0  0  0  0  0  0  0  0  0  0  0  0
   18.3575   20.5028   24.1580 H   0  0  0  0  0  0  0  0  0  0  0  0
   19.3825   21.3749   25.2789 H   0  0  0  0  0  0  0  0  0  0  0  0
   19.0073   19.3504   25.8975 C   0  0  2  0  0  0  0  0  0  0  0  0
   19.8977   19.3135   26.5327 H   0  0  0  0  0  0  0  0  0  0  0  0
   18.7575   17.9389   25.3403 C   0  0  0  0  0  0  0  0  0  0  0  0
   17.9296   17.9360   24.6205 H   0  0  0  0  0  0  0  0  0  0  0  0
   19.6534   17.5478   24.8444 H   0  0  0  0  0  0  0  0  0  0  0  0
   18.5076   17.2420   26.1498 H   0  0  0  0  0  0  0  0  0  0  0  0
   17.8703   19.7645   26.7899 N   0  3  0  0  0  0  0  0  0  0  0  0
   18.0370   20.6827   27.2119 H   0  0  0  0  0  0  0  0  0  0  0  0
   17.7338   19.0979   27.5552 H   0  0  0  0  0  0  0  0  0  0  0  0
   16.9893   19.8193   26.2717 H   0  0  0  0  0  0  0  0  0  0  0  0
  1  2  1  0  0  0  0
  1  3  1  0  0  0  0
  1  4  1  0  0  0  0
  1  5  1  0  0  0  0
  5  6  1  0  0  0  0
  5  7  1  0  0  0  0
  5  8  1  0  0  0  0
  8  9  1  0  0  0  0
  8 10  1  0  0  0  0
  8 11  1  0  0  0  0
 11 12  1  0  0  0  0
 11 13  1  0  0  0  0
 11 14  1  0  0  0  0
 14 15  1  0  0  0  0
 14 16  1  0  0  0  0
 14 17  1  0  0  0  0
 17 18  1  0  0  0  0
 17 19  1  0  0  0  0
 17 20  1  0  0  0  0
 20 21  1  0  0  0  0
 20 22  1  0  0  0  0
 22 23  1  0  0  0  0
 22 24  1  0  0  0  0
 22 25  1  0  0  0  0
 20 26  1  0  0  0  0
 26 27  1  0  0  0  0
 26 28  1  0  0  0  0
 26 29  1  0  0  0  0
M  END
> <VConfSearch Rank>
614

> <Conf_Id>
156

> <Delta U+W>
3.393

> <U+W>
-24.433

> <U>
27.713

> <W>
-52.146

> <W(PB)>
-54.603

> <W(SA)>
2.458

> <Valence>
6.758

> <Coulomb>
19.720

> <VdW>
1.235

> <VdW6>
-9.782

> <VdW12>
11.017

> <Bond>
0.287

> <Angle>
1.880

> <Pdih>
4.591

> <Idih>
0.000

> <Tether>
0.000

$$$$
VeraChem MOL file


 29 28  0  0  0  0  0  0  0  0999 V2000     
   18.1593   21.8659   21.1988 C   0  0  0  0  0  0  0  0  0  0  0  0
   18.7950   21.4488   20.4069 H   0  0  0  0  0  0  0  0  0  0  0  0
   17.1226   21.8717   20.8378 H   0  0  0  0  0  0  0  0  0  0  0  0
   18.4647   22.9074   21.3629 H   0  0  0  0  0  0  0  0  0  0  0  0
   18.2890   21.0485   22.5014 C   0  0  0  0  0  0  0  0  0  0  0  0
   17.6659   21.5056   23.2827 H   0  0  0  0  0  0  0  0  0  0  0  0
   19.3285   21.0994   22.8514 H   0  0  0  0  0  0  0  0  0  0  0  0
   17.8680   19.5747   22.2939 C   0  0  0  0  0  0  0  0  0  0  0  0
   16.8542   19.5500   21.8712 H   0  0  0  0  0  0  0  0  0  0  0  0
   18.5169   19.1050   21.5431 H   0  0  0  0  0  0  0  0  0  0  0  0
   17.8710   18.7370   23.5990 C   0  0  0  0  0  0  0  0  0  0  0  0
   17.5383   17.7167   23.3636 H   0  0  0  0  0  0  0  0  0  0  0  0
   17.1168   19.1472   24.2846 H   0  0  0  0  0  0  0  0  0  0  0  0
   19.2298   18.6635   24.3430 C   0  0  0  0  0  0  0  0  0  0  0  0
   19.5139   19.6646   24.6909 H   0  0  0  0  0  0  0  0  0  0  0  0
   19.0829   18.0590   25.2471 H   0  0  0  0  0  0  0  0  0  0  0  0
   20.3698   18.0487   23.4860 C   0  0  0  0  0  0  0  0  0  0  0  0
   20.5361   18.6693   22.5970 H   0  0  0  0  0  0  0  0  0  0  0  0
   20.0552   17.0644   23.1149 H   0  0  0  0  0  0  0  0  0  0  0  0
   21.7243   17.8961   24.2176 C   0  0  2  0  0  0  0  0  0  0  0  0
   22.4433   17.5061   23.4906 H   0  0  0  0  0  0  0  0  0  0  0  0
   21.6479   16.8894   25.3788 C   0  0  0  0  0  0  0  0  0  0  0  0
   22.6487   16.6954   25.7836 H   0  0  0  0  0  0  0  0  0  0  0  0
   21.0224   17.2610   26.1990 H   0  0  0  0  0  0  0  0  0  0  0  0
   21.2359   15.9315   25.0381 H   0  0  0  0  0  0  0  0  0  0  0  0
   22.2765   19.2152   24.6833 N   0  3  0  0  0  0  0  0  0  0  0  0
   22.3756   19.8756   23.9071 H   0  0  0  0  0  0  0  0  0  0  0  0
   23.2004   19.1035   25.1107 H   0  0  0  0  0  0  0  0  0  0  0  0
   21.6654   19.6469   25.3810 H   0  0  0  0  0  0  0  0  0  0  0  0
  1  2  1  0  0  0  0
  1  3  1  0  0  0  0
  1  4  1  0  0  0  0
  1  5  1  0  0  0  0
  5  6  1  0  0  0  0
  5  7  1  0  0  0  0
  5  8  1  0  0  0  0
  8  9  1  0  0  0  0
  8 10  1  0  0  0  0
  8 11  1  0  0  0  0
 11 12  1  0  0  0  0
 11 13  1  0  0  0  0
 11 14  1  0  0  0  0
 14 15  1  0  0  0  0
 14 16  1  0  0  0  0
 14 17  1  0  0  0  0
 17 18  1  0  0  0  0
 17 19  1  0  0  0  0
 17 20  1  0  0  0  0
 20 21  1  0  0  0  0
 20 22  1  0  0  0  0
 22 23  1  0  0  0  0
 22 24  1  0  0  0  0
 22 25  1  0  0  0  0
 20 26  1  0  0  0  0
 26 27  1  0  0  0  0
 26 28  1  0  0  0  0
 26 29  1  0  0  0  0
M  END
> <VConfSearch Rank>
615

> <Conf_Id>
78

> <Delta U+W>
1.477

> <U+W>
-26.349

> <U>
26.385

> <W>
-52.734

> <W(PB)>
-55.179

> <W(SA)>
2.445

> <Valence>
4.726

> <Coulomb>
20.482

> <VdW>
1.177

> <VdW6>
-10.349

> <VdW12>
11.526

> <Bond>
0.319

> <Angle>
1.933

> <Pdih>
2.474

> <Idih>
0.000

> <Tether>
0.000

$$$$
VeraChem MOL file


 29 28  0  0  0  0  0  0  0  0999 V2000     
   20.8716   15.5037   23.7375 C   0  0  0  0  0  0  0  0  0  0  0  0
   21.5169   15.2761   22.8791 H   0  0  0  0  0  0  0  0  0  0  0  0
   21.3164   16.3459   24.2789 H   0  0  0  0  0  0  0  0  0  0  0  0
   20.8869   14.6329   24.4055 H   0  0  0  0  0  0  0  0  0  0  0  0
   19.4269   15.8060   23.2758 C   0  0  0  0  0  0  0  0  0  0  0  0
   18.7711   15.9557   24.1448 H   0  0  0  0  0  0  0  0  0  0  0  0
   19.0437   14.9154   22.7583 H   0  0  0  0  0  0  0  0  0  0  0  0
   19.3312   17.0171   22.3126 C   0  0  0  0  0  0  0  0  0  0  0  0
   20.2659   17.1268   21.7457 H   0  0  0  0  0  0  0  0  0  0  0  0
   18.5564   16.7982   21.5648 H   0  0  0  0  0  0  0  0  0  0  0  0
   18.9584   18.3613   22.9894 C   0  0  0  0  0  0  0  0  0  0  0  0
   17.9705   18.2700   23.4614 H   0  0  0  0  0  0  0  0  0  0  0  0
   18.8518   19.1150   22.1985 H   0  0  0  0  0  0  0  0  0  0  0  0
   19.9860   18.8521   24.0388 C   0  0  0  0  0  0  0  0  0  0  0  0
   20.0253   18.1333   24.8671 H   0  0  0  0  0  0  0  0  0  0  0  0
   20.9915   18.8699   23.5985 H   0  0  0  0  0  0  0  0  0  0  0  0
   19.6384   20.2409   24.6352 C   0  0  0  0  0  0  0  0  0  0  0  0
   20.3875   20.4981   25.3957 H   0  0  0  0  0  0  0  0  0  0  0  0
   18.6811   20.1600   25.1668 H   0  0  0  0  0  0  0  0  0  0  0  0
   19.5398   21.3954   23.6099 C   0  0  2  0  0  0  0  0  0  0  0  0
   18.7781   21.1367   22.8688 H   0  0  0  0  0  0  0  0  0  0  0  0
   20.8715   21.6343   22.8764 C   0  0  0  0  0  0  0  0  0  0  0  0
   20.7893   22.4897   22.1946 H   0  0  0  0  0  0  0  0  0  0  0  0
   21.6834   21.8402   23.5850 H   0  0  0  0  0  0  0  0  0  0  0  0
   21.1540   20.7642   22.2724 H   0  0  0  0  0  0  0  0  0  0  0  0
   19.0721   22.6640   24.2673 N   0  3  0  0  0  0  0  0  0  0  0  0
   19.7356   22.9831   24.9784 H   0  0  0  0  0  0  0  0  0  0  0  0
   18.1653   22.5385   24.7266 H   0  0  0  0  0  0  0  0  0  0  0  0
   18.9666   23.4214   23.5862 H   0  0  0  0  0  0  0  0  0  0  0  0
  1  2  1  0  0  0  0
  1  3  1  0  0  0  0
  1  4  1  0  0  0  0
  1  5  1  0  0  0  0
  5  6  1  0  0  0  0
  5  7  1  0  0  0  0
  5  8  1  0  0  0  0
  8  9  1  0  0  0  0
  8 10  1  0  0  0  0
  8 11  1  0  0  0  0
 11 12  1  0  0  0  0
 11 13  1  0  0  0  0
 11 14  1  0  0  0  0
 14 15  1  0  0  0  0
 14 16  1  0  0  0  0
 14 17  1  0  0  0  0
 17 18  1  0  0  0  0
 17 19  1  0  0  0  0
 17 20  1  0  0  0  0
 20 21  1  0  0  0  0
 20 22  1  0  0  0  0
 22 23  1  0  0  0  0
 22 24  1  0  0  0  0
 22 25  1  0  0  0  0
 20 26  1  0  0  0  0
 26 27  1  0  0  0  0
 26 28  1  0  0  0  0
 26 29  1  0  0  0  0
M  END
> <VConfSearch Rank>
616

> <Conf_Id>
145

> <Delta U+W>
3.784

> <U+W>
-24.042

> <U>
28.220

> <W>
-52.262

> <W(PB)>
-54.724

> <W(SA)>
2.462

> <Valence>
7.040

> <Coulomb>
19.984

> <VdW>
1.197

> <VdW6>
-10.566

> <VdW12>
11.763

> <Bond>
0.320

> <Angle>
2.280

> <Pdih>
4.439

> <Idih>
0.000

> <Tether>
0.000

$$$$
VeraChem MOL file


 29 28  0  0  0  0  0  0  0  0999 V2000     
   20.0435   22.3040   21.1522 C   0  0  0  0  0  0  0  0  0  0  0  0
   19.5215   23.2541   21.3256 H   0  0  0  0  0  0  0  0  0  0  0  0
   21.0279   22.3615   21.6346 H   0  0  0  0  0  0  0  0  0  0  0  0
   20.2034   22.1997   20.0712 H   0  0  0  0  0  0  0  0  0  0  0  0
   19.2269   21.1144   21.6995 C   0  0  0  0  0  0  0  0  0  0  0  0
   19.7548   20.1807   21.4714 H   0  0  0  0  0  0  0  0  0  0  0  0
   18.2635   21.0642   21.1731 H   0  0  0  0  0  0  0  0  0  0  0  0
   18.9784   21.2458   23.2215 C   0  0  0  0  0  0  0  0  0  0  0  0
   19.9301   21.3662   23.7570 H   0  0  0  0  0  0  0  0  0  0  0  0
   18.4141   22.1724   23.3959 H   0  0  0  0  0  0  0  0  0  0  0  0
   18.1749   20.0615   23.8194 C   0  0  0  0  0  0  0  0  0  0  0  0
   17.5222   19.6182   23.0548 H   0  0  0  0  0  0  0  0  0  0  0  0
   17.4990   20.4610   24.5883 H   0  0  0  0  0  0  0  0  0  0  0  0
   19.0396   18.9604   24.4858 C   0  0  0  0  0  0  0  0  0  0  0  0
   19.6028   19.4033   25.3179 H   0  0  0  0  0  0  0  0  0  0  0  0
   18.3577   18.2256   24.9323 H   0  0  0  0  0  0  0  0  0  0  0  0
   20.0148   18.2444   23.5136 C   0  0  0  0  0  0  0  0  0  0  0  0
   20.7489   18.9688   23.1406 H   0  0  0  0  0  0  0  0  0  0  0  0
   19.4597   17.8866   22.6366 H   0  0  0  0  0  0  0  0  0  0  0  0
   20.7945   17.0583   24.1289 C   0  0  2  0  0  0  0  0  0  0  0  0
   21.4922   16.6988   23.3662 H   0  0  0  0  0  0  0  0  0  0  0  0
   19.8707   15.8847   24.4995 C   0  0  0  0  0  0  0  0  0  0  0  0
   20.4631   15.0105   24.7961 H   0  0  0  0  0  0  0  0  0  0  0  0
   19.2068   16.1366   25.3347 H   0  0  0  0  0  0  0  0  0  0  0  0
   19.2508   15.5907   23.6434 H   0  0  0  0  0  0  0  0  0  0  0  0
   21.6376   17.4726   25.3032 N   0  3  0  0  0  0  0  0  0  0  0  0
   21.0573   17.8143   26.0734 H   0  0  0  0  0  0  0  0  0  0  0  0
   22.2895   18.2212   25.0518 H   0  0  0  0  0  0  0  0  0  0  0  0
   22.1926   16.6896   25.6601 H   0  0  0  0  0  0  0  0  0  0  0  0
  1  2  1  0  0  0  0
  1  3  1  0  0  0  0
  1  4  1  0  0  0  0
  1  5  1  0  0  0  0
  5  6  1  0  0  0  0
  5  7  1  0  0  0  0
  5  8  1  0  0  0  0
  8  9  1  0  0  0  0
  8 10  1  0  0  0  0
  8 11  1  0  0  0  0
 11 12  1  0  0  0  0
 11 13  1  0  0  0  0
 11 14  1  0  0  0  0
 14 15  1  0  0  0  0
 14 16  1  0  0  0  0
 14 17  1  0  0  0  0
 17 18  1  0  0  0  0
 17 19  1  0  0  0  0
 17 20  1  0  0  0  0
 20 21  1  0  0  0  0
 20 22  1  0  0  0  0
 22 23  1  0  0  0  0
 22 24  1  0  0  0  0
 22 25  1  0  0  0  0
 20 26  1  0  0  0  0
 26 27  1  0  0  0  0
 26 28  1  0  0  0  0
 26 29  1  0  0  0  0
M  END
> <VConfSearch Rank>
617

> <Conf_Id>
71

> <Delta U+W>
3.542

> <U+W>
-24.284

> <U>
28.217

> <W>
-52.501

> <W(PB)>
-54.947

> <W(SA)>
2.446

> <Valence>
6.821

> <Coulomb>
20.147

> <VdW>
1.249

> <VdW6>
-10.237

> <VdW12>
11.486

> <Bond>
0.317

> <Angle>
1.990

> <Pdih>
4.515

> <Idih>
0.000

> <Tether>
0.000

$$$$
VeraChem MOL file


 29 28  0  0  0  0  0  0  0  0999 V2000     
   20.3397   22.8749   24.6596 C   0  0  0  0  0  0  0  0  0  0  0  0
   19.8863   23.0554   23.6762 H   0  0  0  0  0  0  0  0  0  0  0  0
   19.7271   23.3815   25.4168 H   0  0  0  0  0  0  0  0  0  0  0  0
   21.3336   23.3409   24.6633 H   0  0  0  0  0  0  0  0  0  0  0  0
   20.4454   21.3633   24.9518 C   0  0  0  0  0  0  0  0  0  0  0  0
   20.9331   21.2163   25.9256 H   0  0  0  0  0  0  0  0  0  0  0  0
   21.0979   20.8979   24.2035 H   0  0  0  0  0  0  0  0  0  0  0  0
   19.0536   20.6864   24.9627 C   0  0  0  0  0  0  0  0  0  0  0  0
   18.4491   21.1632   25.7467 H   0  0  0  0  0  0  0  0  0  0  0  0
   18.5272   20.8765   24.0173 H   0  0  0  0  0  0  0  0  0  0  0  0
   19.1092   19.1623   25.2455 C   0  0  0  0  0  0  0  0  0  0  0  0
   18.2342   18.8963   25.8546 H   0  0  0  0  0  0  0  0  0  0  0  0
   19.9841   18.9204   25.8646 H   0  0  0  0  0  0  0  0  0  0  0  0
   19.0855   18.2663   23.9804 C   0  0  0  0  0  0  0  0  0  0  0  0
   19.0446   17.2195   24.3083 H   0  0  0  0  0  0  0  0  0  0  0  0
   18.1536   18.4530   23.4304 H   0  0  0  0  0  0  0  0  0  0  0  0
   20.3015   18.4673   23.0376 C   0  0  0  0  0  0  0  0  0  0  0  0
   21.2279   18.4156   23.6242 H   0  0  0  0  0  0  0  0  0  0  0  0
   20.2640   19.4750   22.6055 H   0  0  0  0  0  0  0  0  0  0  0  0
   20.3984   17.4497   21.8766 C   0  0  2  0  0  0  0  0  0  0  0  0
   21.2910   17.7028   21.2961 H   0  0  0  0  0  0  0  0  0  0  0  0
   19.1878   17.5356   20.9310 C   0  0  0  0  0  0  0  0  0  0  0  0
   19.0409   18.5641   20.5783 H   0  0  0  0  0  0  0  0  0  0  0  0
   19.3431   16.9008   20.0500 H   0  0  0  0  0  0  0  0  0  0  0  0
   18.2652   17.2058   21.4233 H   0  0  0  0  0  0  0  0  0  0  0  0
   20.6041   16.0412   22.3620 N   0  3  0  0  0  0  0  0  0  0  0  0
   21.4335   15.9669   22.9580 H   0  0  0  0  0  0  0  0  0  0  0  0
   20.7291   15.3909   21.5808 H   0  0  0  0  0  0  0  0  0  0  0  0
   19.8023   15.7153   22.9073 H   0  0  0  0  0  0  0  0  0  0  0  0
  1  2  1  0  0  0  0
  1  3  1  0  0  0  0
  1  4  1  0  0  0  0
  1  5  1  0  0  0  0
  5  6  1  0  0  0  0
  5  7  1  0  0  0  0
  5  8  1  0  0  0  0
  8  9  1  0  0  0  0
  8 10  1  0  0  0  0
  8 11  1  0  0  0  0
 11 12  1  0  0  0  0
 11 13  1  0  0  0  0
 11 14  1  0  0  0  0
 14 15  1  0  0  0  0
 14 16  1  0  0  0  0
 14 17  1  0  0  0  0
 17 18  1  0  0  0  0
 17 19  1  0  0  0  0
 17 20  1  0  0  0  0
 20 21  1  0  0  0  0
 20 22  1  0  0  0  0
 22 23  1  0  0  0  0
 22 24  1  0  0  0  0
 22 25  1  0  0  0  0
 20 26  1  0  0  0  0
 26 27  1  0  0  0  0
 26 28  1  0  0  0  0
 26 29  1  0  0  0  0
M  END
> <VConfSearch Rank>
618

> <Conf_Id>
163

> <Delta U+W>
3.309

> <U+W>
-24.517

> <U>
27.916

> <W>
-52.433

> <W(PB)>
-54.866

> <W(SA)>
2.433

> <Valence>
6.693

> <Coulomb>
20.015

> <VdW>
1.208

> <VdW6>
-10.294

> <VdW12>
11.503

> <Bond>
0.312

> <Angle>
1.939

> <Pdih>
4.441

> <Idih>
0.000

> <Tether>
0.000

$$$$
VeraChem MOL file


 29 28  0  0  0  0  0  0  0  0999 V2000     
   19.1678   15.2313   23.7184 C   0  0  0  0  0  0  0  0  0  0  0  0
   19.7980   14.9126   24.5588 H   0  0  0  0  0  0  0  0  0  0  0  0
   18.2281   15.6268   24.1231 H   0  0  0  0  0  0  0  0  0  0  0  0
   18.9219   14.3400   23.1267 H   0  0  0  0  0  0  0  0  0  0  0  0
   19.8955   16.2768   22.8432 C   0  0  0  0  0  0  0  0  0  0  0  0
   19.2324   16.6057   22.0309 H   0  0  0  0  0  0  0  0  0  0  0  0
   20.7566   15.7940   22.3604 H   0  0  0  0  0  0  0  0  0  0  0  0
   20.3990   17.5056   23.6384 C   0  0  0  0  0  0  0  0  0  0  0  0
   21.0645   17.1724   24.4465 H   0  0  0  0  0  0  0  0  0  0  0  0
   21.0118   18.1168   22.9635 H   0  0  0  0  0  0  0  0  0  0  0  0
   19.2551   18.3706   24.2258 C   0  0  0  0  0  0  0  0  0  0  0  0
   18.6431   17.7570   24.8993 H   0  0  0  0  0  0  0  0  0  0  0  0
   18.5852   18.6945   23.4185 H   0  0  0  0  0  0  0  0  0  0  0  0
   19.7574   19.5993   25.0280 C   0  0  0  0  0  0  0  0  0  0  0  0
   18.8907   20.1210   25.4556 H   0  0  0  0  0  0  0  0  0  0  0  0
   20.3446   19.2487   25.8879 H   0  0  0  0  0  0  0  0  0  0  0  0
   20.6143   20.6083   24.2175 C   0  0  0  0  0  0  0  0  0  0  0  0
   21.5741   20.1422   23.9608 H   0  0  0  0  0  0  0  0  0  0  0  0
   20.8603   21.4635   24.8608 H   0  0  0  0  0  0  0  0  0  0  0  0
   19.9364   21.1186   22.9269 C   0  0  2  0  0  0  0  0  0  0  0  0
   19.7016   20.2551   22.2973 H   0  0  0  0  0  0  0  0  0  0  0  0
   20.8908   22.0359   22.1466 C   0  0  0  0  0  0  0  0  0  0  0  0
   20.4280   22.3713   21.2103 H   0  0  0  0  0  0  0  0  0  0  0  0
   21.1569   22.9238   22.7338 H   0  0  0  0  0  0  0  0  0  0  0  0
   21.8166   21.5063   21.8893 H   0  0  0  0  0  0  0  0  0  0  0  0
   18.6352   21.8198   23.2048 N   0  3  0  0  0  0  0  0  0  0  0  0
   17.9815   21.2058   23.6983 H   0  0  0  0  0  0  0  0  0  0  0  0
   18.1804   22.1237   22.3392 H   0  0  0  0  0  0  0  0  0  0  0  0
   18.7767   22.6505   23.7856 H   0  0  0  0  0  0  0  0  0  0  0  0
  1  2  1  0  0  0  0
  1  3  1  0  0  0  0
  1  4  1  0  0  0  0
  1  5  1  0  0  0  0
  5  6  1  0  0  0  0
  5  7  1  0  0  0  0
  5  8  1  0  0  0  0
  8  9  1  0  0  0  0
  8 10  1  0  0  0  0
  8 11  1  0  0  0  0
 11 12  1  0  0  0  0
 11 13  1  0  0  0  0
 11 14  1  0  0  0  0
 14 15  1  0  0  0  0
 14 16  1  0  0  0  0
 14 17  1  0  0  0  0
 17 18  1  0  0  0  0
 17 19  1  0  0  0  0
 17 20  1  0  0  0  0
 20 21  1  0  0  0  0
 20 22  1  0  0  0  0
 22 23  1  0  0  0  0
 22 24  1  0  0  0  0
 22 25  1  0  0  0  0
 20 26  1  0  0  0  0
 26 27  1  0  0  0  0
 26 28  1  0  0  0  0
 26 29  1  0  0  0  0
M  END
> <VConfSearch Rank>
619

> <Conf_Id>
173

> <Delta U+W>
1.363

> <U+W>
-26.462

> <U>
25.816

> <W>
-52.279

> <W(PB)>
-54.727

> <W(SA)>
2.449

> <Valence>
4.504

> <Coulomb>
20.342

> <VdW>
0.971

> <VdW6>
-10.532

> <VdW12>
11.503

> <Bond>
0.307

> <Angle>
1.715

> <Pdih>
2.481

> <Idih>
0.000

> <Tether>
0.000

$$$$
VeraChem MOL file


 29 28  0  0  0  0  0  0  0  0999 V2000     
   19.8106   22.7724   24.5363 C   0  0  0  0  0  0  0  0  0  0  0  0
   20.3901   22.6866   25.4648 H   0  0  0  0  0  0  0  0  0  0  0  0
   20.2476   23.5792   23.9337 H   0  0  0  0  0  0  0  0  0  0  0  0
   18.7876   23.0678   24.8033 H   0  0  0  0  0  0  0  0  0  0  0  0
   19.8074   21.4386   23.7599 C   0  0  0  0  0  0  0  0  0  0  0  0
   19.1992   21.5474   22.8512 H   0  0  0  0  0  0  0  0  0  0  0  0
   19.3299   20.6693   24.3809 H   0  0  0  0  0  0  0  0  0  0  0  0
   21.2392   20.9958   23.3816 C   0  0  0  0  0  0  0  0  0  0  0  0
   21.7438   21.8236   22.8644 H   0  0  0  0  0  0  0  0  0  0  0  0
   21.8171   20.8108   24.2976 H   0  0  0  0  0  0  0  0  0  0  0  0
   21.3035   19.7424   22.4708 C   0  0  0  0  0  0  0  0  0  0  0  0
   22.3617   19.5544   22.2425 H   0  0  0  0  0  0  0  0  0  0  0  0
   20.8259   19.9533   21.5041 H   0  0  0  0  0  0  0  0  0  0  0  0
   20.7079   18.4551   23.0983 C   0  0  0  0  0  0  0  0  0  0  0  0
   21.3246   17.6037   22.7815 H   0  0  0  0  0  0  0  0  0  0  0  0
   20.7959   18.5054   24.1912 H   0  0  0  0  0  0  0  0  0  0  0  0
   19.2387   18.1895   22.6671 C   0  0  0  0  0  0  0  0  0  0  0  0
   19.2013   18.0925   21.5742 H   0  0  0  0  0  0  0  0  0  0  0  0
   18.6091   19.0531   22.9085 H   0  0  0  0  0  0  0  0  0  0  0  0
   18.5969   16.9269   23.2888 C   0  0  2  0  0  0  0  0  0  0  0  0
   17.5966   16.8248   22.8565 H   0  0  0  0  0  0  0  0  0  0  0  0
   18.4322   17.0546   24.8133 C   0  0  0  0  0  0  0  0  0  0  0  0
   17.8964   17.9763   25.0720 H   0  0  0  0  0  0  0  0  0  0  0  0
   17.8522   16.2113   25.2078 H   0  0  0  0  0  0  0  0  0  0  0  0
   19.4003   17.0639   25.3277 H   0  0  0  0  0  0  0  0  0  0  0  0
   19.3366   15.6679   22.9294 N   0  3  0  0  0  0  0  0  0  0  0  0
   19.4110   15.5529   21.9146 H   0  0  0  0  0  0  0  0  0  0  0  0
   18.8635   14.8378   23.2980 H   0  0  0  0  0  0  0  0  0  0  0  0
   20.2863   15.6746   23.3098 H   0  0  0  0  0  0  0  0  0  0  0  0
  1  2  1  0  0  0  0
  1  3  1  0  0  0  0
  1  4  1  0  0  0  0
  1  5  1  0  0  0  0
  5  6  1  0  0  0  0
  5  7  1  0  0  0  0
  5  8  1  0  0  0  0
  8  9  1  0  0  0  0
  8 10  1  0  0  0  0
  8 11  1  0  0  0  0
 11 12  1  0  0  0  0
 11 13  1  0  0  0  0
 11 14  1  0  0  0  0
 14 15  1  0  0  0  0
 14 16  1  0  0  0  0
 14 17  1  0  0  0  0
 17 18  1  0  0  0  0
 17 19  1  0  0  0  0
 17 20  1  0  0  0  0
 20 21  1  0  0  0  0
 20 22  1  0  0  0  0
 22 23  1  0  0  0  0
 22 24  1  0  0  0  0
 22 25  1  0  0  0  0
 20 26  1  0  0  0  0
 26 27  1  0  0  0  0
 26 28  1  0  0  0  0
 26 29  1  0  0  0  0
M  END
> <VConfSearch Rank>
620

> <Conf_Id>
117

> <Delta U+W>
3.377

> <U+W>
-24.449

> <U>
27.947

> <W>
-52.396

> <W(PB)>
-54.842

> <W(SA)>
2.447

> <Valence>
6.731

> <Coulomb>
20.067

> <VdW>
1.149

> <VdW6>
-10.427

> <VdW12>
11.575

> <Bond>
0.324

> <Angle>
1.943

> <Pdih>
4.465

> <Idih>
0.000

> <Tether>
0.000

$$$$
VeraChem MOL file


 29 28  0  0  0  0  0  0  0  0999 V2000     
   16.4122   22.6198   23.3858 C   0  0  0  0  0  0  0  0  0  0  0  0
   15.6019   21.9290   23.6531 H   0  0  0  0  0  0  0  0  0  0  0  0
   16.7539   23.1174   24.3028 H   0  0  0  0  0  0  0  0  0  0  0  0
   15.9951   23.3875   22.7211 H   0  0  0  0  0  0  0  0  0  0  0  0
   17.5725   21.8728   22.6947 C   0  0  0  0  0  0  0  0  0  0  0  0
   18.3515   22.5937   22.4093 H   0  0  0  0  0  0  0  0  0  0  0  0
   17.2084   21.4145   21.7646 H   0  0  0  0  0  0  0  0  0  0  0  0
   18.1781   20.7856   23.6097 C   0  0  0  0  0  0  0  0  0  0  0  0
   18.5385   21.2481   24.5390 H   0  0  0  0  0  0  0  0  0  0  0  0
   17.3952   20.0689   23.8942 H   0  0  0  0  0  0  0  0  0  0  0  0
   19.3404   20.0354   22.9211 C   0  0  0  0  0  0  0  0  0  0  0  0
   20.1218   20.7535   22.6360 H   0  0  0  0  0  0  0  0  0  0  0  0
   18.9791   19.5729   21.9921 H   0  0  0  0  0  0  0  0  0  0  0  0
   19.9465   18.9483   23.8371 C   0  0  0  0  0  0  0  0  0  0  0  0
   20.3108   19.4121   24.7643 H   0  0  0  0  0  0  0  0  0  0  0  0
   19.1586   18.2387   24.1226 H   0  0  0  0  0  0  0  0  0  0  0  0
   21.1097   18.1976   23.1444 C   0  0  0  0  0  0  0  0  0  0  0  0
   21.8604   18.9299   22.8185 H   0  0  0  0  0  0  0  0  0  0  0  0
   20.7426   17.6999   22.2369 H   0  0  0  0  0  0  0  0  0  0  0  0
   21.7915   17.1623   24.0649 C   0  0  2  0  0  0  0  0  0  0  0  0
   22.1266   17.6768   24.9708 H   0  0  0  0  0  0  0  0  0  0  0  0
   23.0220   16.5578   23.3700 C   0  0  0  0  0  0  0  0  0  0  0  0
   23.5325   15.8480   24.0326 H   0  0  0  0  0  0  0  0  0  0  0  0
   22.7389   16.0265   22.4527 H   0  0  0  0  0  0  0  0  0  0  0  0
   23.7427   17.3407   23.1028 H   0  0  0  0  0  0  0  0  0  0  0  0
   20.8494   16.0761   24.5069 N   0  3  0  0  0  0  0  0  0  0  0  0
   20.0458   16.4607   25.0109 H   0  0  0  0  0  0  0  0  0  0  0  0
   21.3129   15.4103   25.1318 H   0  0  0  0  0  0  0  0  0  0  0  0
   20.4888   15.5474   23.7082 H   0  0  0  0  0  0  0  0  0  0  0  0
  1  2  1  0  0  0  0
  1  3  1  0  0  0  0
  1  4  1  0  0  0  0
  1  5  1  0  0  0  0
  5  6  1  0  0  0  0
  5  7  1  0  0  0  0
  5  8  1  0  0  0  0
  8  9  1  0  0  0  0
  8 10  1  0  0  0  0
  8 11  1  0  0  0  0
 11 12  1  0  0  0  0
 11 13  1  0  0  0  0
 11 14  1  0  0  0  0
 14 15  1  0  0  0  0
 14 16  1  0  0  0  0
 14 17  1  0  0  0  0
 17 18  1  0  0  0  0
 17 19  1  0  0  0  0
 17 20  1  0  0  0  0
 20 21  1  0  0  0  0
 20 22  1  0  0  0  0
 22 23  1  0  0  0  0
 22 24  1  0  0  0  0
 22 25  1  0  0  0  0
 20 26  1  0  0  0  0
 26 27  1  0  0  0  0
 26 28  1  0  0  0  0
 26 29  1  0  0  0  0
M  END
> <VConfSearch Rank>
621

> <Conf_Id>
164

> <Delta U+W>
0.000

> <U+W>
-27.826

> <U>
23.963

> <W>
-51.789

> <W(PB)>
-54.342

> <W(SA)>
2.554

> <Valence>
3.166

> <Coulomb>
19.734

> <VdW>
1.062

> <VdW6>
-7.938

> <VdW12>
9.001

> <Bond>
0.188

> <Angle>
0.880

> <Pdih>
2.098

> <Idih>
0.000

> <Tether>
0.000

$$$$
VeraChem MOL file


 29 28  0  0  0  0  0  0  0  0999 V2000     
   15.5310   18.7667   21.2732 C   0  0  0  0  0  0  0  0  0  0  0  0
   15.7320   19.5772   20.5606 H   0  0  0  0  0  0  0  0  0  0  0  0
   15.7877   17.8149   20.7900 H   0  0  0  0  0  0  0  0  0  0  0  0
   14.4530   18.7595   21.4804 H   0  0  0  0  0  0  0  0  0  0  0  0
   16.3350   18.9618   22.5761 C   0  0  0  0  0  0  0  0  0  0  0  0
   16.0879   18.1556   23.2811 H   0  0  0  0  0  0  0  0  0  0  0  0
   16.0325   19.9044   23.0535 H   0  0  0  0  0  0  0  0  0  0  0  0
   17.8569   18.9756   22.3123 C   0  0  0  0  0  0  0  0  0  0  0  0
   18.1539   18.0326   21.8329 H   0  0  0  0  0  0  0  0  0  0  0  0
   18.0987   19.7815   21.6055 H   0  0  0  0  0  0  0  0  0  0  0  0
   18.6654   19.1707   23.6147 C   0  0  0  0  0  0  0  0  0  0  0  0
   18.4233   18.3644   24.3209 H   0  0  0  0  0  0  0  0  0  0  0  0
   18.3662   20.1134   24.0935 H   0  0  0  0  0  0  0  0  0  0  0  0
   20.1880   19.1851   23.3502 C   0  0  0  0  0  0  0  0  0  0  0  0
   20.4746   18.2432   22.8644 H   0  0  0  0  0  0  0  0  0  0  0  0
   20.4305   19.9947   22.6479 H   0  0  0  0  0  0  0  0  0  0  0  0
   20.9958   19.3760   24.6574 C   0  0  0  0  0  0  0  0  0  0  0  0
   20.8063   18.5339   25.3363 H   0  0  0  0  0  0  0  0  0  0  0  0
   20.6274   20.2759   25.1675 H   0  0  0  0  0  0  0  0  0  0  0  0
   22.5174   19.5304   24.4326 C   0  0  2  0  0  0  0  0  0  0  0  0
   22.6782   20.3467   23.7217 H   0  0  0  0  0  0  0  0  0  0  0  0
   23.1522   18.2513   23.8578 C   0  0  0  0  0  0  0  0  0  0  0  0
   22.9620   17.3876   24.5070 H   0  0  0  0  0  0  0  0  0  0  0  0
   22.7596   18.0247   22.8598 H   0  0  0  0  0  0  0  0  0  0  0  0
   24.2383   18.3699   23.7592 H   0  0  0  0  0  0  0  0  0  0  0  0
   23.2148   19.9308   25.7028 N   0  3  0  0  0  0  0  0  0  0  0  0
   24.2174   20.0729   25.5502 H   0  0  0  0  0  0  0  0  0  0  0  0
   23.1146   19.2139   26.4265 H   0  0  0  0  0  0  0  0  0  0  0  0
   22.8375   20.8047   26.0809 H   0  0  0  0  0  0  0  0  0  0  0  0
  1  2  1  0  0  0  0
  1  3  1  0  0  0  0
  1  4  1  0  0  0  0
  1  5  1  0  0  0  0
  5  6  1  0  0  0  0
  5  7  1  0  0  0  0
  5  8  1  0  0  0  0
  8  9  1  0  0  0  0
  8 10  1  0  0  0  0
  8 11  1  0  0  0  0
 11 12  1  0  0  0  0
 11 13  1  0  0  0  0
 11 14  1  0  0  0  0
 14 15  1  0  0  0  0
 14 16  1  0  0  0  0
 14 17  1  0  0  0  0
 17 18  1  0  0  0  0
 17 19  1  0  0  0  0
 17 20  1  0  0  0  0
 20 21  1  0  0  0  0
 20 22  1  0  0  0  0
 22 23  1  0  0  0  0
 22 24  1  0  0  0  0
 22 25  1  0  0  0  0
 20 26  1  0  0  0  0
 26 27  1  0  0  0  0
 26 28  1  0  0  0  0
 26 29  1  0  0  0  0
M  END
> <VConfSearch Rank>
622

> <Conf_Id>
58

> <Delta U+W>
0.412

> <U+W>
-27.414

> <U>
24.279

> <W>
-51.694

> <W(PB)>
-54.271

> <W(SA)>
2.577

> <Valence>
3.709

> <Coulomb>
19.380

> <VdW>
1.191

> <VdW6>
-8.093

> <VdW12>
9.284

> <Bond>
0.200

> <Angle>
1.161

> <Pdih>
2.348

> <Idih>
0.000

> <Tether>
0.000

$$$$
VeraChem MOL file


 29 28  0  0  0  0  0  0  0  0999 V2000     
   21.7064   18.2780   19.3111 C   0  0  0  0  0  0  0  0  0  0  0  0
   22.6895   18.0793   19.7576 H   0  0  0  0  0  0  0  0  0  0  0  0
   21.1812   17.3204   19.2003 H   0  0  0  0  0  0  0  0  0  0  0  0
   21.8694   18.6912   18.3072 H   0  0  0  0  0  0  0  0  0  0  0  0
   20.8915   19.2603   20.1788 C   0  0  0  0  0  0  0  0  0  0  0  0
   19.9286   19.4658   19.6905 H   0  0  0  0  0  0  0  0  0  0  0  0
   21.4253   20.2188   20.2435 H   0  0  0  0  0  0  0  0  0  0  0  0
   20.6477   18.7024   21.5984 C   0  0  0  0  0  0  0  0  0  0  0  0
   20.1159   17.7434   21.5286 H   0  0  0  0  0  0  0  0  0  0  0  0
   21.6129   18.4963   22.0815 H   0  0  0  0  0  0  0  0  0  0  0  0
   19.8322   19.6836   22.4705 C   0  0  0  0  0  0  0  0  0  0  0  0
   18.8677   19.8894   21.9860 H   0  0  0  0  0  0  0  0  0  0  0  0
   20.3647   20.6423   22.5392 H   0  0  0  0  0  0  0  0  0  0  0  0
   19.5886   19.1253   23.8908 C   0  0  0  0  0  0  0  0  0  0  0  0
   19.0578   18.1671   23.8149 H   0  0  0  0  0  0  0  0  0  0  0  0
   20.5573   18.9184   24.3643 H   0  0  0  0  0  0  0  0  0  0  0  0
   18.7728   20.1157   24.7619 C   0  0  0  0  0  0  0  0  0  0  0  0
   17.8293   20.3514   24.2522 H   0  0  0  0  0  0  0  0  0  0  0  0
   19.3190   21.0651   24.8399 H   0  0  0  0  0  0  0  0  0  0  0  0
   18.4450   19.6125   26.1875 C   0  0  2  0  0  0  0  0  0  0  0  0
   17.8466   20.3876   26.6763 H   0  0  0  0  0  0  0  0  0  0  0  0
   19.7132   19.4021   27.0330 C   0  0  0  0  0  0  0  0  0  0  0  0
   19.4475   19.1790   28.0736 H   0  0  0  0  0  0  0  0  0  0  0  0
   20.3185   18.5690   26.6563 H   0  0  0  0  0  0  0  0  0  0  0  0
   20.3349   20.3060   27.0351 H   0  0  0  0  0  0  0  0  0  0  0  0
   17.5932   18.3732   26.1770 N   0  3  0  0  0  0  0  0  0  0  0  0
   16.7253   18.5187   25.6532 H   0  0  0  0  0  0  0  0  0  0  0  0
   17.3341   18.0893   27.1261 H   0  0  0  0  0  0  0  0  0  0  0  0
   18.0863   17.5877   25.7452 H   0  0  0  0  0  0  0  0  0  0  0  0
  1  2  1  0  0  0  0
  1  3  1  0  0  0  0
  1  4  1  0  0  0  0
  1  5  1  0  0  0  0
  5  6  1  0  0  0  0
  5  7  1  0  0  0  0
  5  8  1  0  0  0  0
  8  9  1  0  0  0  0
  8 10  1  0  0  0  0
  8 11  1  0  0  0  0
 11 12  1  0  0  0  0
 11 13  1  0  0  0  0
 11 14  1  0  0  0  0
 14 15  1  0  0  0  0
 14 16  1  0  0  0  0
 14 17  1  0  0  0  0
 17 18  1  0  0  0  0
 17 19  1  0  0  0  0
 17 20  1  0  0  0  0
 20 21  1  0  0  0  0
 20 22  1  0  0  0  0
 22 23  1  0  0  0  0
 22 24  1  0  0  0  0
 22 25  1  0  0  0  0
 20 26  1  0  0  0  0
 26 27  1  0  0  0  0
 26 28  1  0  0  0  0
 26 29  1  0  0  0  0
M  END
> <VConfSearch Rank>
623

> <Conf_Id>
137

> <Delta U+W>
0.280

> <U+W>
-27.546

> <U>
24.513

> <W>
-52.059

> <W(PB)>
-54.556

> <W(SA)>
2.497

> <Valence>
3.677

> <Coulomb>
19.662

> <VdW>
1.174

> <VdW6>
-8.569

> <VdW12>
9.743

> <Bond>
0.224

> <Angle>
1.211

> <Pdih>
2.243

> <Idih>
0.000

> <Tether>
0.000

$$$$
VeraChem MOL file


 29 28  0  0  0  0  0  0  0  0999 V2000     
   20.7430   23.3955   22.5853 C   0  0  0  0  0  0  0  0  0  0  0  0
   20.9565   22.9713   21.5955 H   0  0  0  0  0  0  0  0  0  0  0  0
   19.6972   23.7295   22.5960 H   0  0  0  0  0  0  0  0  0  0  0  0
   21.3805   24.2792   22.7180 H   0  0  0  0  0  0  0  0  0  0  0  0
   21.0061   22.3615   23.7005 C   0  0  0  0  0  0  0  0  0  0  0  0
   20.8176   22.8253   24.6789 H   0  0  0  0  0  0  0  0  0  0  0  0
   22.0660   22.0712   23.6861 H   0  0  0  0  0  0  0  0  0  0  0  0
   20.1199   21.1067   23.5379 C   0  0  0  0  0  0  0  0  0  0  0  0
   19.0618   21.4019   23.5555 H   0  0  0  0  0  0  0  0  0  0  0  0
   20.3113   20.6606   22.5535 H   0  0  0  0  0  0  0  0  0  0  0  0
   20.3866   20.0677   24.6537 C   0  0  0  0  0  0  0  0  0  0  0  0
   20.2733   20.5584   25.6302 H   0  0  0  0  0  0  0  0  0  0  0  0
   21.4293   19.7250   24.6008 H   0  0  0  0  0  0  0  0  0  0  0  0
   19.4355   18.8461   24.6089 C   0  0  0  0  0  0  0  0  0  0  0  0
   19.6062   18.2552   25.5178 H   0  0  0  0  0  0  0  0  0  0  0  0
   18.3930   19.1900   24.6540 H   0  0  0  0  0  0  0  0  0  0  0  0
   19.6374   17.9486   23.3601 C   0  0  0  0  0  0  0  0  0  0  0  0
   20.6766   17.5962   23.3208 H   0  0  0  0  0  0  0  0  0  0  0  0
   19.4778   18.5505   22.4576 H   0  0  0  0  0  0  0  0  0  0  0  0
   18.6761   16.7391   23.3009 C   0  0  2  0  0  0  0  0  0  0  0  0
   17.6514   17.1095   23.4032 H   0  0  0  0  0  0  0  0  0  0  0  0
   18.9437   15.7252   24.4279 C   0  0  0  0  0  0  0  0  0  0  0  0
   19.9834   15.3753   24.4083 H   0  0  0  0  0  0  0  0  0  0  0  0
   18.7457   16.1610   25.4138 H   0  0  0  0  0  0  0  0  0  0  0  0
   18.2891   14.8510   24.3241 H   0  0  0  0  0  0  0  0  0  0  0  0
   18.7477   16.0560   21.9633 N   0  3  0  0  0  0  0  0  0  0  0  0
   18.5285   16.7006   21.1982 H   0  0  0  0  0  0  0  0  0  0  0  0
   18.0846   15.2778   21.9050 H   0  0  0  0  0  0  0  0  0  0  0  0
   19.6815   15.6754   21.7873 H   0  0  0  0  0  0  0  0  0  0  0  0
  1  2  1  0  0  0  0
  1  3  1  0  0  0  0
  1  4  1  0  0  0  0
  1  5  1  0  0  0  0
  5  6  1  0  0  0  0
  5  7  1  0  0  0  0
  5  8  1  0  0  0  0
  8  9  1  0  0  0  0
  8 10  1  0  0  0  0
  8 11  1  0  0  0  0
 11 12  1  0  0  0  0
 11 13  1  0  0  0  0
 11 14  1  0  0  0  0
 14 15  1  0  0  0  0
 14 16  1  0  0  0  0
 14 17  1  0  0  0  0
 17 18  1  0  0  0  0
 17 19  1  0  0  0  0
 17 20  1  0  0  0  0
 20 21  1  0  0  0  0
 20 22  1  0  0  0  0
 22 23  1  0  0  0  0
 22 24  1  0  0  0  0
 22 25  1  0  0  0  0
 20 26  1  0  0  0  0
 26 27  1  0  0  0  0
 26 28  1  0  0  0  0
 26 29  1  0  0  0  0
M  END
> <VConfSearch Rank>
624

> <Conf_Id>
40

> <Delta U+W>
1.128

> <U+W>
-26.698

> <U>
25.442

> <W>
-52.140

> <W(PB)>
-54.658

> <W(SA)>
2.519

> <Valence>
4.343

> <Coulomb>
19.740

> <VdW>
1.360

> <VdW6>
-8.739

> <VdW12>
10.099

> <Bond>
0.251

> <Angle>
1.483

> <Pdih>
2.608

> <Idih>
0.000

> <Tether>
0.000

$$$$
VeraChem MOL file


 29 28  0  0  0  0  0  0  0  0999 V2000     
   24.0791   18.4541   23.7010 C   0  0  0  0  0  0  0  0  0  0  0  0
   24.0273   19.5399   23.5542 H   0  0  0  0  0  0  0  0  0  0  0  0
   24.0676   18.2511   24.7797 H   0  0  0  0  0  0  0  0  0  0  0  0
   25.0453   18.1145   23.3059 H   0  0  0  0  0  0  0  0  0  0  0  0
   22.9177   17.7267   22.9861 C   0  0  0  0  0  0  0  0  0  0  0  0
   23.0867   16.6429   23.0533 H   0  0  0  0  0  0  0  0  0  0  0  0
   22.9293   17.9735   21.9153 H   0  0  0  0  0  0  0  0  0  0  0  0
   21.5259   18.0483   23.5828 C   0  0  0  0  0  0  0  0  0  0  0  0
   20.7933   17.3850   23.1061 H   0  0  0  0  0  0  0  0  0  0  0  0
   21.5199   17.7997   24.6529 H   0  0  0  0  0  0  0  0  0  0  0  0
   21.0969   19.5247   23.3856 C   0  0  0  0  0  0  0  0  0  0  0  0
   21.0972   19.7721   22.3152 H   0  0  0  0  0  0  0  0  0  0  0  0
   21.8383   20.1840   23.8549 H   0  0  0  0  0  0  0  0  0  0  0  0
   19.7121   19.8566   23.9950 C   0  0  0  0  0  0  0  0  0  0  0  0
   19.7066   19.5906   25.0611 H   0  0  0  0  0  0  0  0  0  0  0  0
   19.5747   20.9448   23.9476 H   0  0  0  0  0  0  0  0  0  0  0  0
   18.5314   19.1559   23.2743 C   0  0  0  0  0  0  0  0  0  0  0  0
   18.6548   18.0685   23.3463 H   0  0  0  0  0  0  0  0  0  0  0  0
   18.5484   19.4046   22.2049 H   0  0  0  0  0  0  0  0  0  0  0  0
   17.1564   19.5276   23.8711 C   0  0  2  0  0  0  0  0  0  0  0  0
   17.1763   19.3057   24.9426 H   0  0  0  0  0  0  0  0  0  0  0  0
   16.0472   18.6830   23.2240 C   0  0  0  0  0  0  0  0  0  0  0  0
   15.0717   18.9171   23.6680 H   0  0  0  0  0  0  0  0  0  0  0  0
   15.9851   18.8693   22.1445 H   0  0  0  0  0  0  0  0  0  0  0  0
   16.2331   17.6124   23.3758 H   0  0  0  0  0  0  0  0  0  0  0  0
   16.8456   20.9934   23.7374 N   0  3  0  0  0  0  0  0  0  0  0  0
   16.8134   21.2797   22.7553 H   0  0  0  0  0  0  0  0  0  0  0  0
   17.5512   21.5696   24.2041 H   0  0  0  0  0  0  0  0  0  0  0  0
   15.9387   21.2229   24.1539 H   0  0  0  0  0  0  0  0  0  0  0  0
  1  2  1  0  0  0  0
  1  3  1  0  0  0  0
  1  4  1  0  0  0  0
  1  5  1  0  0  0  0
  5  6  1  0  0  0  0
  5  7  1  0  0  0  0
  5  8  1  0  0  0  0
  8  9  1  0  0  0  0
  8 10  1  0  0  0  0
  8 11  1  0  0  0  0
 11 12  1  0  0  0  0
 11 13  1  0  0  0  0
 11 14  1  0  0  0  0
 14 15  1  0  0  0  0
 14 16  1  0  0  0  0
 14 17  1  0  0  0  0
 17 18  1  0  0  0  0
 17 19  1  0  0  0  0
 17 20  1  0  0  0  0
 20 21  1  0  0  0  0
 20 22  1  0  0  0  0
 22 23  1  0  0  0  0
 22 24  1  0  0  0  0
 22 25  1  0  0  0  0
 20 26  1  0  0  0  0
 26 27  1  0  0  0  0
 26 28  1  0  0  0  0
 26 29  1  0  0  0  0
M  END
> <VConfSearch Rank>
625

> <Conf_Id>
134

> <Delta U+W>
1.228

> <U+W>
-26.598

> <U>
25.451

> <W>
-52.048

> <W(PB)>
-54.539

> <W(SA)>
2.490

> <Valence>
4.319

> <Coulomb>
19.732

> <VdW>
1.400

> <VdW6>
-9.173

> <VdW12>
10.573

> <Bond>
0.281

> <Angle>
1.459

> <Pdih>
2.580

> <Idih>
0.000

> <Tether>
0.000

$$$$
VeraChem MOL file


 29 28  0  0  0  0  0  0  0  0999 V2000     
   16.7474   16.0303   23.1616 C   0  0  0  0  0  0  0  0  0  0  0  0
   16.1032   16.8995   23.3424 H   0  0  0  0  0  0  0  0  0  0  0  0
   16.9221   15.9496   22.0808 H   0  0  0  0  0  0  0  0  0  0  0  0
   16.1928   15.1380   23.4794 H   0  0  0  0  0  0  0  0  0  0  0  0
   18.0819   16.1404   23.9335 C   0  0  0  0  0  0  0  0  0  0  0  0
   18.6313   15.1950   23.8236 H   0  0  0  0  0  0  0  0  0  0  0  0
   17.8800   16.2552   25.0077 H   0  0  0  0  0  0  0  0  0  0  0  0
   18.9856   17.2978   23.4438 C   0  0  0  0  0  0  0  0  0  0  0  0
   19.9542   17.2094   23.9523 H   0  0  0  0  0  0  0  0  0  0  0  0
   19.1861   17.1772   22.3704 H   0  0  0  0  0  0  0  0  0  0  0  0
   18.3871   18.7024   23.7101 C   0  0  0  0  0  0  0  0  0  0  0  0
   18.1880   18.8233   24.7838 H   0  0  0  0  0  0  0  0  0  0  0  0
   17.4166   18.7880   23.2046 H   0  0  0  0  0  0  0  0  0  0  0  0
   19.2877   19.8608   23.2149 C   0  0  0  0  0  0  0  0  0  0  0  0
   19.4677   19.7395   22.1386 H   0  0  0  0  0  0  0  0  0  0  0  0
   18.7371   20.8042   23.3338 H   0  0  0  0  0  0  0  0  0  0  0  0
   20.6351   19.9657   23.9753 C   0  0  0  0  0  0  0  0  0  0  0  0
   21.2639   19.0947   23.7518 H   0  0  0  0  0  0  0  0  0  0  0  0
   20.4318   19.9379   25.0539 H   0  0  0  0  0  0  0  0  0  0  0  0
   21.4238   21.2565   23.6586 C   0  0  2  0  0  0  0  0  0  0  0  0
   20.7720   22.1137   23.8537 H   0  0  0  0  0  0  0  0  0  0  0  0
   21.8755   21.3126   22.1883 C   0  0  0  0  0  0  0  0  0  0  0  0
   22.4864   20.4394   21.9273 H   0  0  0  0  0  0  0  0  0  0  0  0
   21.0162   21.3466   21.5085 H   0  0  0  0  0  0  0  0  0  0  0  0
   22.4727   22.2136   22.0017 H   0  0  0  0  0  0  0  0  0  0  0  0
   22.6076   21.4073   24.5731 N   0  3  0  0  0  0  0  0  0  0  0  0
   22.3251   21.4160   25.5574 H   0  0  0  0  0  0  0  0  0  0  0  0
   23.1102   22.2812   24.3930 H   0  0  0  0  0  0  0  0  0  0  0  0
   23.2747   20.6406   24.4510 H   0  0  0  0  0  0  0  0  0  0  0  0
  1  2  1  0  0  0  0
  1  3  1  0  0  0  0
  1  4  1  0  0  0  0
  1  5  1  0  0  0  0
  5  6  1  0  0  0  0
  5  7  1  0  0  0  0
  5  8  1  0  0  0  0
  8  9  1  0  0  0  0
  8 10  1  0  0  0  0
  8 11  1  0  0  0  0
 11 12  1  0  0  0  0
 11 13  1  0  0  0  0
 11 14  1  0  0  0  0
 14 15  1  0  0  0  0
 14 16  1  0  0  0  0
 14 17  1  0  0  0  0
 17 18  1  0  0  0  0
 17 19  1  0  0  0  0
 17 20  1  0  0  0  0
 20 21  1  0  0  0  0
 20 22  1  0  0  0  0
 22 23  1  0  0  0  0
 22 24  1  0  0  0  0
 22 25  1  0  0  0  0
 20 26  1  0  0  0  0
 26 27  1  0  0  0  0
 26 28  1  0  0  0  0
 26 29  1  0  0  0  0
M  END
> <VConfSearch Rank>
626

> <Conf_Id>
73

> <Delta U+W>
1.580

> <U+W>
-26.246

> <U>
25.821

> <W>
-52.067

> <W(PB)>
-54.581

> <W(SA)>
2.514

> <Valence>
4.779

> <Coulomb>
19.614

> <VdW>
1.428

> <VdW6>
-9.390

> <VdW12>
10.818

> <Bond>
0.283

> <Angle>
1.640

> <Pdih>
2.856

> <Idih>
0.000

> <Tether>
0.000

$$$$
VeraChem MOL file


 29 28  0  0  0  0  0  0  0  0999 V2000     
   20.3582   17.1756   27.5147 C   0  0  0  0  0  0  0  0  0  0  0  0
   21.4207   17.2813   27.2596 H   0  0  0  0  0  0  0  0  0  0  0  0
   20.2687   17.2133   28.6082 H   0  0  0  0  0  0  0  0  0  0  0  0
   20.0238   16.1839   27.1832 H   0  0  0  0  0  0  0  0  0  0  0  0
   19.5169   18.2919   26.8605 C   0  0  0  0  0  0  0  0  0  0  0  0
   19.8522   19.2689   27.2358 H   0  0  0  0  0  0  0  0  0  0  0  0
   18.4659   18.1799   27.1620 H   0  0  0  0  0  0  0  0  0  0  0  0
   19.6244   18.2607   25.3198 C   0  0  0  0  0  0  0  0  0  0  0  0
   20.6792   18.3632   25.0339 H   0  0  0  0  0  0  0  0  0  0  0  0
   19.2857   17.2833   24.9494 H   0  0  0  0  0  0  0  0  0  0  0  0
   18.7847   19.3830   24.6633 C   0  0  0  0  0  0  0  0  0  0  0  0
   19.1597   20.3641   24.9859 H   0  0  0  0  0  0  0  0  0  0  0  0
   17.7506   19.3135   25.0282 H   0  0  0  0  0  0  0  0  0  0  0  0
   18.7617   19.3192   23.1161 C   0  0  0  0  0  0  0  0  0  0  0  0
   18.3837   18.3388   22.7946 H   0  0  0  0  0  0  0  0  0  0  0  0
   18.0376   20.0624   22.7574 H   0  0  0  0  0  0  0  0  0  0  0  0
   20.1433   19.5857   22.4648 C   0  0  0  0  0  0  0  0  0  0  0  0
   20.8576   18.8261   22.8053 H   0  0  0  0  0  0  0  0  0  0  0  0
   20.5317   20.5564   22.8006 H   0  0  0  0  0  0  0  0  0  0  0  0
   20.0977   19.5512   20.9216 C   0  0  2  0  0  0  0  0  0  0  0  0
   19.6741   18.5907   20.6123 H   0  0  0  0  0  0  0  0  0  0  0  0
   21.5173   19.6612   20.3426 C   0  0  0  0  0  0  0  0  0  0  0  0
   22.1517   18.8436   20.7070 H   0  0  0  0  0  0  0  0  0  0  0  0
   21.4957   19.6023   19.2474 H   0  0  0  0  0  0  0  0  0  0  0  0
   21.9885   20.6112   20.6247 H   0  0  0  0  0  0  0  0  0  0  0  0
   19.2114   20.6218   20.3457 N   0  3  0  0  0  0  0  0  0  0  0  0
   19.1804   20.5717   19.3234 H   0  0  0  0  0  0  0  0  0  0  0  0
   19.5442   21.5564   20.5971 H   0  0  0  0  0  0  0  0  0  0  0  0
   18.2500   20.5344   20.6857 H   0  0  0  0  0  0  0  0  0  0  0  0
  1  2  1  0  0  0  0
  1  3  1  0  0  0  0
  1  4  1  0  0  0  0
  1  5  1  0  0  0  0
  5  6  1  0  0  0  0
  5  7  1  0  0  0  0
  5  8  1  0  0  0  0
  8  9  1  0  0  0  0
  8 10  1  0  0  0  0
  8 11  1  0  0  0  0
 11 12  1  0  0  0  0
 11 13  1  0  0  0  0
 11 14  1  0  0  0  0
 14 15  1  0  0  0  0
 14 16  1  0  0  0  0
 14 17  1  0  0  0  0
 17 18  1  0  0  0  0
 17 19  1  0  0  0  0
 17 20  1  0  0  0  0
 20 21  1  0  0  0  0
 20 22  1  0  0  0  0
 22 23  1  0  0  0  0
 22 24  1  0  0  0  0
 22 25  1  0  0  0  0
 20 26  1  0  0  0  0
 26 27  1  0  0  0  0
 26 28  1  0  0  0  0
 26 29  1  0  0  0  0
M  END
> <VConfSearch Rank>
627

> <Conf_Id>
111

> <Delta U+W>
0.580

> <U+W>
-27.246

> <U>
24.710

> <W>
-51.957

> <W(PB)>
-54.511

> <W(SA)>
2.555

> <Valence>
3.735

> <Coulomb>
19.760

> <VdW>
1.216

> <VdW6>
-8.624

> <VdW12>
9.840

> <Bond>
0.236

> <Angle>
1.168

> <Pdih>
2.330

> <Idih>
0.000

> <Tether>
0.000

$$$$
VeraChem MOL file


 29 28  0  0  0  0  0  0  0  0999 V2000     
   23.6734   20.8263   22.8414 C   0  0  0  0  0  0  0  0  0  0  0  0
   23.3660   21.2743   21.8874 H   0  0  0  0  0  0  0  0  0  0  0  0
   23.3444   21.4892   23.6523 H   0  0  0  0  0  0  0  0  0  0  0  0
   24.7704   20.7908   22.8592 H   0  0  0  0  0  0  0  0  0  0  0  0
   23.0798   19.4112   23.0062 C   0  0  0  0  0  0  0  0  0  0  0  0
   23.4308   18.9764   23.9526 H   0  0  0  0  0  0  0  0  0  0  0  0
   23.4540   18.7633   22.2013 H   0  0  0  0  0  0  0  0  0  0  0  0
   21.5354   19.4328   22.9838 C   0  0  0  0  0  0  0  0  0  0  0  0
   21.1749   20.0898   23.7861 H   0  0  0  0  0  0  0  0  0  0  0  0
   21.1893   19.8664   22.0355 H   0  0  0  0  0  0  0  0  0  0  0  0
   20.9389   18.0149   23.1531 C   0  0  0  0  0  0  0  0  0  0  0  0
   21.2411   17.5992   24.1243 H   0  0  0  0  0  0  0  0  0  0  0  0
   21.3670   17.3526   22.3879 H   0  0  0  0  0  0  0  0  0  0  0  0
   19.3961   17.9754   23.0287 C   0  0  0  0  0  0  0  0  0  0  0  0
   19.1064   18.3631   22.0430 H   0  0  0  0  0  0  0  0  0  0  0  0
   19.0706   16.9264   23.0586 H   0  0  0  0  0  0  0  0  0  0  0  0
   18.6676   18.7622   24.1487 C   0  0  0  0  0  0  0  0  0  0  0  0
   18.8714   19.8359   24.0491 H   0  0  0  0  0  0  0  0  0  0  0  0
   19.0795   18.4532   25.1184 H   0  0  0  0  0  0  0  0  0  0  0  0
   17.1392   18.5340   24.1704 C   0  0  2  0  0  0  0  0  0  0  0  0
   16.9538   17.4573   24.2344 H   0  0  0  0  0  0  0  0  0  0  0  0
   16.4557   19.0715   22.9004 C   0  0  0  0  0  0  0  0  0  0  0  0
   16.6627   20.1398   22.7602 H   0  0  0  0  0  0  0  0  0  0  0  0
   16.7962   18.5351   22.0072 H   0  0  0  0  0  0  0  0  0  0  0  0
   15.3682   18.9410   22.9622 H   0  0  0  0  0  0  0  0  0  0  0  0
   16.5166   19.1449   25.3949 N   0  3  0  0  0  0  0  0  0  0  0  0
   16.9274   18.7689   26.2544 H   0  0  0  0  0  0  0  0  0  0  0  0
   15.5097   18.9618   25.4334 H   0  0  0  0  0  0  0  0  0  0  0  0
   16.6432   20.1605   25.4119 H   0  0  0  0  0  0  0  0  0  0  0  0
  1  2  1  0  0  0  0
  1  3  1  0  0  0  0
  1  4  1  0  0  0  0
  1  5  1  0  0  0  0
  5  6  1  0  0  0  0
  5  7  1  0  0  0  0
  5  8  1  0  0  0  0
  8  9  1  0  0  0  0
  8 10  1  0  0  0  0
  8 11  1  0  0  0  0
 11 12  1  0  0  0  0
 11 13  1  0  0  0  0
 11 14  1  0  0  0  0
 14 15  1  0  0  0  0
 14 16  1  0  0  0  0
 14 17  1  0  0  0  0
 17 18  1  0  0  0  0
 17 19  1  0  0  0  0
 17 20  1  0  0  0  0
 20 21  1  0  0  0  0
 20 22  1  0  0  0  0
 22 23  1  0  0  0  0
 22 24  1  0  0  0  0
 22 25  1  0  0  0  0
 20 26  1  0  0  0  0
 26 27  1  0  0  0  0
 26 28  1  0  0  0  0
 26 29  1  0  0  0  0
M  END
> <VConfSearch Rank>
628

> <Conf_Id>
39

> <Delta U+W>
0.965

> <U+W>
-26.861

> <U>
25.129

> <W>
-51.990

> <W(PB)>
-54.526

> <W(SA)>
2.536

> <Valence>
4.206

> <Coulomb>
19.678

> <VdW>
1.245

> <VdW6>
-8.834

> <VdW12>
10.079

> <Bond>
0.240

> <Angle>
1.353

> <Pdih>
2.613

> <Idih>
0.000

> <Tether>
0.000

$$$$
VeraChem MOL file


 29 28  0  0  0  0  0  0  0  0999 V2000     
   21.6979   22.8302   22.9646 C   0  0  0  0  0  0  0  0  0  0  0  0
   21.9777   22.5499   21.9408 H   0  0  0  0  0  0  0  0  0  0  0  0
   20.6377   23.1116   22.9671 H   0  0  0  0  0  0  0  0  0  0  0  0
   22.2758   23.7226   23.2379 H   0  0  0  0  0  0  0  0  0  0  0  0
   21.9836   21.6778   23.9542 C   0  0  0  0  0  0  0  0  0  0  0  0
   21.6630   21.9689   24.9642 H   0  0  0  0  0  0  0  0  0  0  0  0
   23.0701   21.5224   24.0095 H   0  0  0  0  0  0  0  0  0  0  0  0
   21.3122   20.3408   23.5566 C   0  0  0  0  0  0  0  0  0  0  0  0
   21.6365   20.0540   22.5469 H   0  0  0  0  0  0  0  0  0  0  0  0
   21.6830   19.5618   24.2347 H   0  0  0  0  0  0  0  0  0  0  0  0
   19.7641   20.3866   23.6162 C   0  0  0  0  0  0  0  0  0  0  0  0
   19.3966   21.1721   22.9434 H   0  0  0  0  0  0  0  0  0  0  0  0
   19.4397   20.6691   24.6271 H   0  0  0  0  0  0  0  0  0  0  0  0
   19.0889   19.0542   23.2072 C   0  0  0  0  0  0  0  0  0  0  0  0
   18.0065   19.2263   23.1461 H   0  0  0  0  0  0  0  0  0  0  0  0
   19.4173   18.7817   22.1954 H   0  0  0  0  0  0  0  0  0  0  0  0
   19.3726   17.8888   24.1942 C   0  0  0  0  0  0  0  0  0  0  0  0
   19.1456   18.2174   25.2168 H   0  0  0  0  0  0  0  0  0  0  0  0
   20.4422   17.6460   24.1832 H   0  0  0  0  0  0  0  0  0  0  0  0
   18.5805   16.5908   23.9099 C   0  0  2  0  0  0  0  0  0  0  0  0
   18.8651   15.8620   24.6751 H   0  0  0  0  0  0  0  0  0  0  0  0
   18.9326   15.9882   22.5387 C   0  0  0  0  0  0  0  0  0  0  0  0
   18.5903   16.6267   21.7156 H   0  0  0  0  0  0  0  0  0  0  0  0
   20.0166   15.8511   22.4400 H   0  0  0  0  0  0  0  0  0  0  0  0
   18.4607   15.0053   22.4190 H   0  0  0  0  0  0  0  0  0  0  0  0
   17.0951   16.7809   24.0494 N   0  3  0  0  0  0  0  0  0  0  0  0
   16.8482   17.1417   24.9754 H   0  0  0  0  0  0  0  0  0  0  0  0
   16.5913   15.8988   23.9201 H   0  0  0  0  0  0  0  0  0  0  0  0
   16.7385   17.4426   23.3554 H   0  0  0  0  0  0  0  0  0  0  0  0
  1  2  1  0  0  0  0
  1  3  1  0  0  0  0
  1  4  1  0  0  0  0
  1  5  1  0  0  0  0
  5  6  1  0  0  0  0
  5  7  1  0  0  0  0
  5  8  1  0  0  0  0
  8  9  1  0  0  0  0
  8 10  1  0  0  0  0
  8 11  1  0  0  0  0
 11 12  1  0  0  0  0
 11 13  1  0  0  0  0
 11 14  1  0  0  0  0
 14 15  1  0  0  0  0
 14 16  1  0  0  0  0
 14 17  1  0  0  0  0
 17 18  1  0  0  0  0
 17 19  1  0  0  0  0
 17 20  1  0  0  0  0
 20 21  1  0  0  0  0
 20 22  1  0  0  0  0
 22 23  1  0  0  0  0
 22 24  1  0  0  0  0
 22 25  1  0  0  0  0
 20 26  1  0  0  0  0
 26 27  1  0  0  0  0
 26 28  1  0  0  0  0
 26 29  1  0  0  0  0
M  END
> <VConfSearch Rank>
629

> <Conf_Id>
155

> <Delta U+W>
1.624

> <U+W>
-26.202

> <U>
25.894

> <W>
-52.096

> <W(PB)>
-54.602

> <W(SA)>
2.506

> <Valence>
4.779

> <Coulomb>
19.659

> <VdW>
1.456

> <VdW6>
-9.843

> <VdW12>
11.299

> <Bond>
0.315

> <Angle>
1.725

> <Pdih>
2.740

> <Idih>
0.000

> <Tether>
0.000

$$$$
VeraChem MOL file


 29 28  0  0  0  0  0  0  0  0999 V2000     
   19.9594   22.8237   21.9142 C   0  0  0  0  0  0  0  0  0  0  0  0
   18.9680   22.7969   22.3832 H   0  0  0  0  0  0  0  0  0  0  0  0
   20.7138   22.8992   22.7081 H   0  0  0  0  0  0  0  0  0  0  0  0
   20.0146   23.7387   21.3103 H   0  0  0  0  0  0  0  0  0  0  0  0
   20.2034   21.5781   21.0326 C   0  0  0  0  0  0  0  0  0  0  0  0
   21.1538   21.7043   20.4954 H   0  0  0  0  0  0  0  0  0  0  0  0
   19.4217   21.5113   20.2630 H   0  0  0  0  0  0  0  0  0  0  0  0
   20.2591   20.2582   21.8387 C   0  0  0  0  0  0  0  0  0  0  0  0
   20.5336   19.4430   21.1552 H   0  0  0  0  0  0  0  0  0  0  0  0
   21.0646   20.3272   22.5812 H   0  0  0  0  0  0  0  0  0  0  0  0
   18.9190   19.9080   22.5339 C   0  0  0  0  0  0  0  0  0  0  0  0
   18.1070   19.9783   21.7971 H   0  0  0  0  0  0  0  0  0  0  0  0
   18.6943   20.6477   23.3137 H   0  0  0  0  0  0  0  0  0  0  0  0
   18.8942   18.4895   23.1551 C   0  0  0  0  0  0  0  0  0  0  0  0
   17.8701   18.2901   23.4954 H   0  0  0  0  0  0  0  0  0  0  0  0
   19.1135   17.7439   22.3785 H   0  0  0  0  0  0  0  0  0  0  0  0
   19.8797   18.3166   24.3402 C   0  0  0  0  0  0  0  0  0  0  0  0
   19.6529   19.0540   25.1216 H   0  0  0  0  0  0  0  0  0  0  0  0
   20.8971   18.5330   23.9930 H   0  0  0  0  0  0  0  0  0  0  0  0
   19.8770   16.8958   24.9499 C   0  0  2  0  0  0  0  0  0  0  0  0
   20.0445   16.1756   24.1432 H   0  0  0  0  0  0  0  0  0  0  0  0
   18.5411   16.5581   25.6364 C   0  0  0  0  0  0  0  0  0  0  0  0
   18.2953   17.2955   26.4107 H   0  0  0  0  0  0  0  0  0  0  0  0
   17.7166   16.5286   24.9150 H   0  0  0  0  0  0  0  0  0  0  0  0
   18.5900   15.5704   26.1112 H   0  0  0  0  0  0  0  0  0  0  0  0
   21.0145   16.7200   25.9174 N   0  3  0  0  0  0  0  0  0  0  0  0
   21.9196   16.8954   25.4714 H   0  0  0  0  0  0  0  0  0  0  0  0
   21.0404   15.7684   26.2948 H   0  0  0  0  0  0  0  0  0  0  0  0
   20.9328   17.3612   26.7110 H   0  0  0  0  0  0  0  0  0  0  0  0
  1  2  1  0  0  0  0
  1  3  1  0  0  0  0
  1  4  1  0  0  0  0
  1  5  1  0  0  0  0
  5  6  1  0  0  0  0
  5  7  1  0  0  0  0
  5  8  1  0  0  0  0
  8  9  1  0  0  0  0
  8 10  1  0  0  0  0
  8 11  1  0  0  0  0
 11 12  1  0  0  0  0
 11 13  1  0  0  0  0
 11 14  1  0  0  0  0
 14 15  1  0  0  0  0
 14 16  1  0  0  0  0
 14 17  1  0  0  0  0
 17 18  1  0  0  0  0
 17 19  1  0  0  0  0
 17 20  1  0  0  0  0
 20 21  1  0  0  0  0
 20 22  1  0  0  0  0
 22 23  1  0  0  0  0
 22 24  1  0  0  0  0
 22 25  1  0  0  0  0
 20 26  1  0  0  0  0
 26 27  1  0  0  0  0
 26 28  1  0  0  0  0
 26 29  1  0  0  0  0
M  END
> <VConfSearch Rank>
630

> <Conf_Id>
135

> <Delta U+W>
1.581

> <U+W>
-26.245

> <U>
25.974

> <W>
-52.219

> <W(PB)>
-54.709

> <W(SA)>
2.490

> <Valence>
4.811

> <Coulomb>
19.700

> <VdW>
1.463

> <VdW6>
-9.391

> <VdW12>
10.854

> <Bond>
0.285

> <Angle>
1.671

> <Pdih>
2.855

> <Idih>
0.000

> <Tether>
0.000

$$$$
VeraChem MOL file


 29 28  0  0  0  0  0  0  0  0999 V2000     
   15.9878   20.4870   22.7663 C   0  0  0  0  0  0  0  0  0  0  0  0
   15.9317   19.4716   22.3527 H   0  0  0  0  0  0  0  0  0  0  0  0
   15.9711   20.4142   23.8608 H   0  0  0  0  0  0  0  0  0  0  0  0
   15.0829   21.0260   22.4573 H   0  0  0  0  0  0  0  0  0  0  0  0
   17.2523   21.2214   22.2661 C   0  0  0  0  0  0  0  0  0  0  0  0
   17.2989   22.2238   22.7141 H   0  0  0  0  0  0  0  0  0  0  0  0
   17.1684   21.3731   21.1809 H   0  0  0  0  0  0  0  0  0  0  0  0
   18.5637   20.4544   22.5610 C   0  0  0  0  0  0  0  0  0  0  0  0
   18.5167   19.4668   22.0837 H   0  0  0  0  0  0  0  0  0  0  0  0
   19.3965   20.9908   22.0858 H   0  0  0  0  0  0  0  0  0  0  0  0
   18.8575   20.3010   24.0747 C   0  0  0  0  0  0  0  0  0  0  0  0
   18.0948   19.6656   24.5438 H   0  0  0  0  0  0  0  0  0  0  0  0
   18.7803   21.2854   24.5566 H   0  0  0  0  0  0  0  0  0  0  0  0
   20.2602   19.7165   24.3714 C   0  0  0  0  0  0  0  0  0  0  0  0
   21.0225   20.3758   23.9358 H   0  0  0  0  0  0  0  0  0  0  0  0
   20.4213   19.7297   25.4582 H   0  0  0  0  0  0  0  0  0  0  0  0
   20.4441   18.2678   23.8505 C   0  0  0  0  0  0  0  0  0  0  0  0
   20.4203   18.2560   22.7534 H   0  0  0  0  0  0  0  0  0  0  0  0
   19.5922   17.6634   24.1891 H   0  0  0  0  0  0  0  0  0  0  0  0
   21.7470   17.5956   24.3395 C   0  0  2  0  0  0  0  0  0  0  0  0
   21.7712   17.6482   25.4323 H   0  0  0  0  0  0  0  0  0  0  0  0
   23.0018   18.2975   23.7900 C   0  0  0  0  0  0  0  0  0  0  0  0
   22.9940   18.3229   22.6932 H   0  0  0  0  0  0  0  0  0  0  0  0
   23.0752   19.3276   24.1573 H   0  0  0  0  0  0  0  0  0  0  0  0
   23.9100   17.7730   24.1117 H   0  0  0  0  0  0  0  0  0  0  0  0
   21.7703   16.1348   23.9847 N   0  3  0  0  0  0  0  0  0  0  0  0
   22.6139   15.6768   24.3415 H   0  0  0  0  0  0  0  0  0  0  0  0
   21.7530   15.9958   22.9707 H   0  0  0  0  0  0  0  0  0  0  0  0
   20.9652   15.6385   24.3775 H   0  0  0  0  0  0  0  0  0  0  0  0
  1  2  1  0  0  0  0
  1  3  1  0  0  0  0
  1  4  1  0  0  0  0
  1  5  1  0  0  0  0
  5  6  1  0  0  0  0
  5  7  1  0  0  0  0
  5  8  1  0  0  0  0
  8  9  1  0  0  0  0
  8 10  1  0  0  0  0
  8 11  1  0  0  0  0
 11 12  1  0  0  0  0
 11 13  1  0  0  0  0
 11 14  1  0  0  0  0
 14 15  1  0  0  0  0
 14 16  1  0  0  0  0
 14 17  1  0  0  0  0
 17 18  1  0  0  0  0
 17 19  1  0  0  0  0
 17 20  1  0  0  0  0
 20 21  1  0  0  0  0
 20 22  1  0  0  0  0
 22 23  1  0  0  0  0
 22 24  1  0  0  0  0
 22 25  1  0  0  0  0
 20 26  1  0  0  0  0
 26 27  1  0  0  0  0
 26 28  1  0  0  0  0
 26 29  1  0  0  0  0
M  END
> <VConfSearch Rank>
631

> <Conf_Id>
130

> <Delta U+W>
1.359

> <U+W>
-26.467

> <U>
25.687

> <W>
-52.154

> <W(PB)>
-54.643

> <W(SA)>
2.489

> <Valence>
4.682

> <Coulomb>
19.653

> <VdW>
1.352

> <VdW6>
-9.477

> <VdW12>
10.829

> <Bond>
0.274

> <Angle>
1.550

> <Pdih>
2.858

> <Idih>
0.000

> <Tether>
0.000

$$$$
VeraChem MOL file


 29 28  0  0  0  0  0  0  0  0999 V2000     
   18.5115   16.9618   20.2324 C   0  0  0  0  0  0  0  0  0  0  0  0
   18.1900   17.0388   19.1856 H   0  0  0  0  0  0  0  0  0  0  0  0
   18.8644   15.9361   20.4006 H   0  0  0  0  0  0  0  0  0  0  0  0
   17.6284   17.1298   20.8611 H   0  0  0  0  0  0  0  0  0  0  0  0
   19.6263   17.9893   20.5323 C   0  0  0  0  0  0  0  0  0  0  0  0
   19.2388   19.0077   20.3889 H   0  0  0  0  0  0  0  0  0  0  0  0
   20.4323   17.8609   19.7963 H   0  0  0  0  0  0  0  0  0  0  0  0
   20.2257   17.8528   21.9528 C   0  0  0  0  0  0  0  0  0  0  0  0
   20.6277   16.8387   22.0836 H   0  0  0  0  0  0  0  0  0  0  0  0
   21.0826   18.5339   22.0288 H   0  0  0  0  0  0  0  0  0  0  0  0
   19.2088   18.1595   23.0820 C   0  0  0  0  0  0  0  0  0  0  0  0
   18.3913   17.4284   23.0357 H   0  0  0  0  0  0  0  0  0  0  0  0
   18.7530   19.1421   22.9110 H   0  0  0  0  0  0  0  0  0  0  0  0
   19.8340   18.0896   24.4996 C   0  0  0  0  0  0  0  0  0  0  0  0
   19.0351   18.0175   25.2505 H   0  0  0  0  0  0  0  0  0  0  0  0
   20.3981   17.1503   24.5828 H   0  0  0  0  0  0  0  0  0  0  0  0
   20.7720   19.2759   24.8569 C   0  0  0  0  0  0  0  0  0  0  0  0
   21.2264   19.7027   23.9549 H   0  0  0  0  0  0  0  0  0  0  0  0
   21.6049   18.8758   25.4500 H   0  0  0  0  0  0  0  0  0  0  0  0
   20.1047   20.3977   25.6881 C   0  0  2  0  0  0  0  0  0  0  0  0
   19.6965   19.9498   26.5993 H   0  0  0  0  0  0  0  0  0  0  0  0
   18.9554   21.0904   24.9366 C   0  0  0  0  0  0  0  0  0  0  0  0
   18.1251   20.3966   24.7618 H   0  0  0  0  0  0  0  0  0  0  0  0
   18.5581   21.9276   25.5237 H   0  0  0  0  0  0  0  0  0  0  0  0
   19.2924   21.4822   23.9688 H   0  0  0  0  0  0  0  0  0  0  0  0
   21.1189   21.4134   26.1354 N   0  3  0  0  0  0  0  0  0  0  0  0
   21.8711   20.9811   26.6797 H   0  0  0  0  0  0  0  0  0  0  0  0
   20.6917   22.1336   26.7250 H   0  0  0  0  0  0  0  0  0  0  0  0
   21.5498   21.8879   25.3374 H   0  0  0  0  0  0  0  0  0  0  0  0
  1  2  1  0  0  0  0
  1  3  1  0  0  0  0
  1  4  1  0  0  0  0
  1  5  1  0  0  0  0
  5  6  1  0  0  0  0
  5  7  1  0  0  0  0
  5  8  1  0  0  0  0
  8  9  1  0  0  0  0
  8 10  1  0  0  0  0
  8 11  1  0  0  0  0
 11 12  1  0  0  0  0
 11 13  1  0  0  0  0
 11 14  1  0  0  0  0
 14 15  1  0  0  0  0
 14 16  1  0  0  0  0
 14 17  1  0  0  0  0
 17 18  1  0  0  0  0
 17 19  1  0  0  0  0
 17 20  1  0  0  0  0
 20 21  1  0  0  0  0
 20 22  1  0  0  0  0
 22 23  1  0  0  0  0
 22 24  1  0  0  0  0
 22 25  1  0  0  0  0
 20 26  1  0  0  0  0
 26 27  1  0  0  0  0
 26 28  1  0  0  0  0
 26 29  1  0  0  0  0
M  END
> <VConfSearch Rank>
632

> <Conf_Id>
157

> <Delta U+W>
4.354

> <U+W>
-23.472

> <U>
28.780

> <W>
-52.252

> <W(PB)>
-54.715

> <W(SA)>
2.462

> <Valence>
7.566

> <Coulomb>
19.822

> <VdW>
1.392

> <VdW6>
-10.248

> <VdW12>
11.641

> <Bond>
0.340

> <Angle>
2.096

> <Pdih>
5.129

> <Idih>
0.000

> <Tether>
0.000

$$$$
VeraChem MOL file


 29 28  0  0  0  0  0  0  0  0999 V2000     
   17.2075   20.4389   21.1669 C   0  0  0  0  0  0  0  0  0  0  0  0
   16.7923   20.2965   20.1608 H   0  0  0  0  0  0  0  0  0  0  0  0
   17.1821   19.4697   21.6771 H   0  0  0  0  0  0  0  0  0  0  0  0
   16.5409   21.1226   21.7083 H   0  0  0  0  0  0  0  0  0  0  0  0
   18.6399   21.0161   21.0841 C   0  0  0  0  0  0  0  0  0  0  0  0
   18.5882   21.9737   20.5472 H   0  0  0  0  0  0  0  0  0  0  0  0
   19.2808   20.3631   20.4756 H   0  0  0  0  0  0  0  0  0  0  0  0
   19.2839   21.2622   22.4728 C   0  0  0  0  0  0  0  0  0  0  0  0
   19.8896   22.1769   22.4108 H   0  0  0  0  0  0  0  0  0  0  0  0
   18.5067   21.4731   23.2201 H   0  0  0  0  0  0  0  0  0  0  0  0
   20.2100   20.1239   22.9736 C   0  0  0  0  0  0  0  0  0  0  0  0
   20.6574   20.4498   23.9214 H   0  0  0  0  0  0  0  0  0  0  0  0
   21.0438   19.9970   22.2695 H   0  0  0  0  0  0  0  0  0  0  0  0
   19.4963   18.7643   23.1741 C   0  0  0  0  0  0  0  0  0  0  0  0
   18.6105   18.8968   23.8091 H   0  0  0  0  0  0  0  0  0  0  0  0
   19.1308   18.4040   22.2040 H   0  0  0  0  0  0  0  0  0  0  0  0
   20.4192   17.6690   23.7680 C   0  0  0  0  0  0  0  0  0  0  0  0
   21.2536   17.4963   23.0752 H   0  0  0  0  0  0  0  0  0  0  0  0
   19.8627   16.7236   23.8183 H   0  0  0  0  0  0  0  0  0  0  0  0
   20.9863   17.9998   25.1669 C   0  0  2  0  0  0  0  0  0  0  0  0
   21.5643   18.9257   25.0958 H   0  0  0  0  0  0  0  0  0  0  0  0
   21.9305   16.8828   25.6387 C   0  0  0  0  0  0  0  0  0  0  0  0
   21.3991   15.9277   25.7349 H   0  0  0  0  0  0  0  0  0  0  0  0
   22.7557   16.7448   24.9289 H   0  0  0  0  0  0  0  0  0  0  0  0
   22.3679   17.1303   26.6138 H   0  0  0  0  0  0  0  0  0  0  0  0
   19.9036   18.2424   26.1822 N   0  3  0  0  0  0  0  0  0  0  0  0
   19.2919   19.0113   25.8948 H   0  0  0  0  0  0  0  0  0  0  0  0
   20.2950   18.4849   27.0969 H   0  0  0  0  0  0  0  0  0  0  0  0
   19.3186   17.4122   26.3084 H   0  0  0  0  0  0  0  0  0  0  0  0
  1  2  1  0  0  0  0
  1  3  1  0  0  0  0
  1  4  1  0  0  0  0
  1  5  1  0  0  0  0
  5  6  1  0  0  0  0
  5  7  1  0  0  0  0
  5  8  1  0  0  0  0
  8  9  1  0  0  0  0
  8 10  1  0  0  0  0
  8 11  1  0  0  0  0
 11 12  1  0  0  0  0
 11 13  1  0  0  0  0
 11 14  1  0  0  0  0
 14 15  1  0  0  0  0
 14 16  1  0  0  0  0
 14 17  1  0  0  0  0
 17 18  1  0  0  0  0
 17 19  1  0  0  0  0
 17 20  1  0  0  0  0
 20 21  1  0  0  0  0
 20 22  1  0  0  0  0
 22 23  1  0  0  0  0
 22 24  1  0  0  0  0
 22 25  1  0  0  0  0
 20 26  1  0  0  0  0
 26 27  1  0  0  0  0
 26 28  1  0  0  0  0
 26 29  1  0  0  0  0
M  END
> <VConfSearch Rank>
633

> <Conf_Id>
158

> <Delta U+W>
3.648

> <U+W>
-24.178

> <U>
28.057

> <W>
-52.235

> <W(PB)>
-54.696

> <W(SA)>
2.460

> <Valence>
6.543

> <Coulomb>
20.387

> <VdW>
1.127

> <VdW6>
-10.342

> <VdW12>
11.469

> <Bond>
0.308

> <Angle>
1.938

> <Pdih>
4.297

> <Idih>
0.000

> <Tether>
0.000

$$$$
VeraChem MOL file


 29 28  0  0  0  0  0  0  0  0999 V2000     
   20.8492   22.5572   23.2009 C   0  0  0  0  0  0  0  0  0  0  0  0
   19.9965   22.8305   23.8360 H   0  0  0  0  0  0  0  0  0  0  0  0
   21.4559   21.8181   23.7384 H   0  0  0  0  0  0  0  0  0  0  0  0
   21.4671   23.4542   23.0644 H   0  0  0  0  0  0  0  0  0  0  0  0
   20.3729   22.0158   21.8339 C   0  0  0  0  0  0  0  0  0  0  0  0
   21.2422   21.7194   21.2304 H   0  0  0  0  0  0  0  0  0  0  0  0
   19.8795   22.8292   21.2837 H   0  0  0  0  0  0  0  0  0  0  0  0
   19.3878   20.8279   21.9519 C   0  0  0  0  0  0  0  0  0  0  0  0
   18.5125   21.1350   22.5409 H   0  0  0  0  0  0  0  0  0  0  0  0
   19.0145   20.5832   20.9479 H   0  0  0  0  0  0  0  0  0  0  0  0
   20.0202   19.5623   22.5784 C   0  0  0  0  0  0  0  0  0  0  0  0
   20.3475   19.7812   23.6006 H   0  0  0  0  0  0  0  0  0  0  0  0
   20.9208   19.2872   22.0125 H   0  0  0  0  0  0  0  0  0  0  0  0
   19.0319   18.3703   22.5801 C   0  0  0  0  0  0  0  0  0  0  0  0
   18.0924   18.6504   23.0763 H   0  0  0  0  0  0  0  0  0  0  0  0
   18.7677   18.1437   21.5378 H   0  0  0  0  0  0  0  0  0  0  0  0
   19.6153   17.0873   23.2293 C   0  0  0  0  0  0  0  0  0  0  0  0
   20.7090   17.0745   23.1324 H   0  0  0  0  0  0  0  0  0  0  0  0
   19.2543   16.2261   22.6516 H   0  0  0  0  0  0  0  0  0  0  0  0
   19.2064   16.8612   24.7049 C   0  0  2  0  0  0  0  0  0  0  0  0
   18.1136   16.8304   24.7541 H   0  0  0  0  0  0  0  0  0  0  0  0
   19.6966   17.9797   25.6398 C   0  0  0  0  0  0  0  0  0  0  0  0
   20.7819   18.1184   25.5594 H   0  0  0  0  0  0  0  0  0  0  0  0
   19.2043   18.9309   25.4066 H   0  0  0  0  0  0  0  0  0  0  0  0
   19.4599   17.7425   26.6843 H   0  0  0  0  0  0  0  0  0  0  0  0
   19.6881   15.5250   25.1979 N   0  3  0  0  0  0  0  0  0  0  0  0
   19.3336   14.7588   24.6180 H   0  0  0  0  0  0  0  0  0  0  0  0
   19.3802   15.3477   26.1583 H   0  0  0  0  0  0  0  0  0  0  0  0
   20.7101   15.4698   25.1896 H   0  0  0  0  0  0  0  0  0  0  0  0
  1  2  1  0  0  0  0
  1  3  1  0  0  0  0
  1  4  1  0  0  0  0
  1  5  1  0  0  0  0
  5  6  1  0  0  0  0
  5  7  1  0  0  0  0
  5  8  1  0  0  0  0
  8  9  1  0  0  0  0
  8 10  1  0  0  0  0
  8 11  1  0  0  0  0
 11 12  1  0  0  0  0
 11 13  1  0  0  0  0
 11 14  1  0  0  0  0
 14 15  1  0  0  0  0
 14 16  1  0  0  0  0
 14 17  1  0  0  0  0
 17 18  1  0  0  0  0
 17 19  1  0  0  0  0
 17 20  1  0  0  0  0
 20 21  1  0  0  0  0
 20 22  1  0  0  0  0
 22 23  1  0  0  0  0
 22 24  1  0  0  0  0
 22 25  1  0  0  0  0
 20 26  1  0  0  0  0
 26 27  1  0  0  0  0
 26 28  1  0  0  0  0
 26 29  1  0  0  0  0
M  END
> <VConfSearch Rank>
634

> <Conf_Id>
156

> <Delta U+W>
3.393

> <U+W>
-24.433

> <U>
27.713

> <W>
-52.146

> <W(PB)>
-54.603

> <W(SA)>
2.458

> <Valence>
6.758

> <Coulomb>
19.720

> <VdW>
1.235

> <VdW6>
-9.782

> <VdW12>
11.017

> <Bond>
0.287

> <Angle>
1.880

> <Pdih>
4.591

> <Idih>
0.000

> <Tether>
0.000

$$$$
VeraChem MOL file


 29 28  0  0  0  0  0  0  0  0999 V2000     
   22.0920   19.2402   26.6320 C   0  0  0  0  0  0  0  0  0  0  0  0
   21.5363   18.3584   26.9769 H   0  0  0  0  0  0  0  0  0  0  0  0
   23.1616   18.9930   26.6342 H   0  0  0  0  0  0  0  0  0  0  0  0
   21.9311   20.0461   27.3597 H   0  0  0  0  0  0  0  0  0  0  0  0
   21.6254   19.6742   25.2264 C   0  0  0  0  0  0  0  0  0  0  0  0
   22.1768   20.5742   24.9205 H   0  0  0  0  0  0  0  0  0  0  0  0
   20.5638   19.9507   25.2735 H   0  0  0  0  0  0  0  0  0  0  0  0
   21.8382   18.5520   24.1834 C   0  0  0  0  0  0  0  0  0  0  0  0
   22.8908   18.2379   24.2079 H   0  0  0  0  0  0  0  0  0  0  0  0
   21.2547   17.6662   24.4663 H   0  0  0  0  0  0  0  0  0  0  0  0
   21.4914   18.9769   22.7328 C   0  0  0  0  0  0  0  0  0  0  0  0
   21.6939   18.1321   22.0602 H   0  0  0  0  0  0  0  0  0  0  0  0
   22.1788   19.7766   22.4242 H   0  0  0  0  0  0  0  0  0  0  0  0
   20.0352   19.4606   22.5080 C   0  0  0  0  0  0  0  0  0  0  0  0
   19.8587   20.3780   23.0833 H   0  0  0  0  0  0  0  0  0  0  0  0
   19.9362   19.7417   21.4517 H   0  0  0  0  0  0  0  0  0  0  0  0
   18.9678   18.3897   22.8631 C   0  0  0  0  0  0  0  0  0  0  0  0
   19.0479   18.1302   23.9258 H   0  0  0  0  0  0  0  0  0  0  0  0
   19.1804   17.4666   22.3081 H   0  0  0  0  0  0  0  0  0  0  0  0
   17.5053   18.8119   22.5872 C   0  0  2  0  0  0  0  0  0  0  0  0
   16.8621   17.9951   22.9291 H   0  0  0  0  0  0  0  0  0  0  0  0
   17.2328   19.0186   21.0870 C   0  0  0  0  0  0  0  0  0  0  0  0
   16.1616   19.1750   20.9106 H   0  0  0  0  0  0  0  0  0  0  0  0
   17.7668   19.8912   20.6929 H   0  0  0  0  0  0  0  0  0  0  0  0
   17.5395   18.1374   20.5098 H   0  0  0  0  0  0  0  0  0  0  0  0
   17.0984   20.0228   23.3808 N   0  3  0  0  0  0  0  0  0  0  0  0
   17.2318   19.8755   24.3853 H   0  0  0  0  0  0  0  0  0  0  0  0
   16.1113   20.2520   23.2330 H   0  0  0  0  0  0  0  0  0  0  0  0
   17.6477   20.8431   23.1126 H   0  0  0  0  0  0  0  0  0  0  0  0
  1  2  1  0  0  0  0
  1  3  1  0  0  0  0
  1  4  1  0  0  0  0
  1  5  1  0  0  0  0
  5  6  1  0  0  0  0
  5  7  1  0  0  0  0
  5  8  1  0  0  0  0
  8  9  1  0  0  0  0
  8 10  1  0  0  0  0
  8 11  1  0  0  0  0
 11 12  1  0  0  0  0
 11 13  1  0  0  0  0
 11 14  1  0  0  0  0
 14 15  1  0  0  0  0
 14 16  1  0  0  0  0
 14 17  1  0  0  0  0
 17 18  1  0  0  0  0
 17 19  1  0  0  0  0
 17 20  1  0  0  0  0
 20 21  1  0  0  0  0
 20 22  1  0  0  0  0
 22 23  1  0  0  0  0
 22 24  1  0  0  0  0
 22 25  1  0  0  0  0
 20 26  1  0  0  0  0
 26 27  1  0  0  0  0
 26 28  1  0  0  0  0
 26 29  1  0  0  0  0
M  END
> <VConfSearch Rank>
635

> <Conf_Id>
78

> <Delta U+W>
1.477

> <U+W>
-26.349

> <U>
26.385

> <W>
-52.734

> <W(PB)>
-55.179

> <W(SA)>
2.445

> <Valence>
4.726

> <Coulomb>
20.482

> <VdW>
1.177

> <VdW6>
-10.349

> <VdW12>
11.526

> <Bond>
0.319

> <Angle>
1.933

> <Pdih>
2.474

> <Idih>
0.000

> <Tether>
0.000

$$$$
VeraChem MOL file


 29 28  0  0  0  0  0  0  0  0999 V2000     
   18.2075   22.3629   24.1557 C   0  0  0  0  0  0  0  0  0  0  0  0
   18.4798   22.7048   25.1627 H   0  0  0  0  0  0  0  0  0  0  0  0
   19.1340   22.1862   23.5983 H   0  0  0  0  0  0  0  0  0  0  0  0
   17.6715   23.1823   23.6597 H   0  0  0  0  0  0  0  0  0  0  0  0
   17.3193   21.0988   24.2245 C   0  0  0  0  0  0  0  0  0  0  0  0
   16.9875   20.8093   23.2177 H   0  0  0  0  0  0  0  0  0  0  0  0
   16.4070   21.3561   24.7807 H   0  0  0  0  0  0  0  0  0  0  0  0
   18.0079   19.9025   24.9305 C   0  0  0  0  0  0  0  0  0  0  0  0
   18.7376   20.2649   25.6676 H   0  0  0  0  0  0  0  0  0  0  0  0
   17.2458   19.3633   25.5100 H   0  0  0  0  0  0  0  0  0  0  0  0
   18.6778   18.8797   23.9769 C   0  0  0  0  0  0  0  0  0  0  0  0
   17.9157   18.4444   23.3160 H   0  0  0  0  0  0  0  0  0  0  0  0
   19.0605   18.0532   24.5896 H   0  0  0  0  0  0  0  0  0  0  0  0
   19.8269   19.4659   23.1203 C   0  0  0  0  0  0  0  0  0  0  0  0
   19.4203   20.2346   22.4508 H   0  0  0  0  0  0  0  0  0  0  0  0
   20.5543   19.9741   23.7667 H   0  0  0  0  0  0  0  0  0  0  0  0
   20.5406   18.4051   22.2424 C   0  0  0  0  0  0  0  0  0  0  0  0
   21.3103   18.9039   21.6386 H   0  0  0  0  0  0  0  0  0  0  0  0
   19.8116   17.9981   21.5294 H   0  0  0  0  0  0  0  0  0  0  0  0
   21.1855   17.2310   23.0166 C   0  0  2  0  0  0  0  0  0  0  0  0
   20.4065   16.7306   23.5991 H   0  0  0  0  0  0  0  0  0  0  0  0
   22.2850   17.7077   23.9821 C   0  0  0  0  0  0  0  0  0  0  0  0
   22.7605   16.8531   24.4788 H   0  0  0  0  0  0  0  0  0  0  0  0
   23.0634   18.2693   23.4507 H   0  0  0  0  0  0  0  0  0  0  0  0
   21.8721   18.3510   24.7679 H   0  0  0  0  0  0  0  0  0  0  0  0
   21.7332   16.1970   22.0727 N   0  3  0  0  0  0  0  0  0  0  0  0
   22.4786   16.5830   21.4870 H   0  0  0  0  0  0  0  0  0  0  0  0
   21.0072   15.8345   21.4478 H   0  0  0  0  0  0  0  0  0  0  0  0
   22.1256   15.3983   22.5795 H   0  0  0  0  0  0  0  0  0  0  0  0
  1  2  1  0  0  0  0
  1  3  1  0  0  0  0
  1  4  1  0  0  0  0
  1  5  1  0  0  0  0
  5  6  1  0  0  0  0
  5  7  1  0  0  0  0
  5  8  1  0  0  0  0
  8  9  1  0  0  0  0
  8 10  1  0  0  0  0
  8 11  1  0  0  0  0
 11 12  1  0  0  0  0
 11 13  1  0  0  0  0
 11 14  1  0  0  0  0
 14 15  1  0  0  0  0
 14 16  1  0  0  0  0
 14 17  1  0  0  0  0
 17 18  1  0  0  0  0
 17 19  1  0  0  0  0
 17 20  1  0  0  0  0
 20 21  1  0  0  0  0
 20 22  1  0  0  0  0
 22 23  1  0  0  0  0
 22 24  1  0  0  0  0
 22 25  1  0  0  0  0
 20 26  1  0  0  0  0
 26 27  1  0  0  0  0
 26 28  1  0  0  0  0
 26 29  1  0  0  0  0
M  END
> <VConfSearch Rank>
636

> <Conf_Id>
145

> <Delta U+W>
3.784

> <U+W>
-24.042

> <U>
28.220

> <W>
-52.262

> <W(PB)>
-54.724

> <W(SA)>
2.462

> <Valence>
7.040

> <Coulomb>
19.984

> <VdW>
1.197

> <VdW6>
-10.566

> <VdW12>
11.763

> <Bond>
0.320

> <Angle>
2.280

> <Pdih>
4.439

> <Idih>
0.000

> <Tether>
0.000

$$$$
VeraChem MOL file


 29 28  0  0  0  0  0  0  0  0999 V2000     
   16.7120   16.7170   23.8414 C   0  0  0  0  0  0  0  0  0  0  0  0
   16.7667   15.7009   24.2535 H   0  0  0  0  0  0  0  0  0  0  0  0
   16.4820   17.4075   24.6633 H   0  0  0  0  0  0  0  0  0  0  0  0
   15.8757   16.7480   23.1310 H   0  0  0  0  0  0  0  0  0  0  0  0
   18.0333   17.1053   23.1449 C   0  0  0  0  0  0  0  0  0  0  0  0
   17.9290   18.1058   22.7083 H   0  0  0  0  0  0  0  0  0  0  0  0
   18.2166   16.4175   22.3076 H   0  0  0  0  0  0  0  0  0  0  0  0
   19.2300   17.0570   24.1253 C   0  0  0  0  0  0  0  0  0  0  0  0
   19.0327   17.6874   25.0032 H   0  0  0  0  0  0  0  0  0  0  0  0
   19.3186   16.0296   24.5047 H   0  0  0  0  0  0  0  0  0  0  0  0
   20.5785   17.4574   23.4721 C   0  0  0  0  0  0  0  0  0  0  0  0
   20.5644   17.2304   22.3972 H   0  0  0  0  0  0  0  0  0  0  0  0
   21.3664   16.8204   23.8975 H   0  0  0  0  0  0  0  0  0  0  0  0
   20.9983   18.9326   23.7000 C   0  0  0  0  0  0  0  0  0  0  0  0
   21.1124   19.1090   24.7778 H   0  0  0  0  0  0  0  0  0  0  0  0
   21.9939   19.0680   23.2589 H   0  0  0  0  0  0  0  0  0  0  0  0
   20.0150   19.9721   23.0988 C   0  0  0  0  0  0  0  0  0  0  0  0
   19.0472   19.8898   23.6080 H   0  0  0  0  0  0  0  0  0  0  0  0
   19.8307   19.7332   22.0431 H   0  0  0  0  0  0  0  0  0  0  0  0
   20.4787   21.4443   23.2037 C   0  0  2  0  0  0  0  0  0  0  0  0
   19.6674   22.0679   22.8156 H   0  0  0  0  0  0  0  0  0  0  0  0
   21.7261   21.7237   22.3470 C   0  0  0  0  0  0  0  0  0  0  0  0
   21.9437   22.7986   22.3274 H   0  0  0  0  0  0  0  0  0  0  0  0
   22.6125   21.2111   22.7385 H   0  0  0  0  0  0  0  0  0  0  0  0
   21.5692   21.3977   21.3114 H   0  0  0  0  0  0  0  0  0  0  0  0
   20.6939   21.8785   24.6273 N   0  3  0  0  0  0  0  0  0  0  0  0
   21.4509   21.3481   25.0658 H   0  0  0  0  0  0  0  0  0  0  0  0
   19.8517   21.7405   25.1933 H   0  0  0  0  0  0  0  0  0  0  0  0
   20.9413   22.8707   24.6825 H   0  0  0  0  0  0  0  0  0  0  0  0
  1  2  1  0  0  0  0
  1  3  1  0  0  0  0
  1  4  1  0  0  0  0
  1  5  1  0  0  0  0
  5  6  1  0  0  0  0
  5  7  1  0  0  0  0
  5  8  1  0  0  0  0
  8  9  1  0  0  0  0
  8 10  1  0  0  0  0
  8 11  1  0  0  0  0
 11 12  1  0  0  0  0
 11 13  1  0  0  0  0
 11 14  1  0  0  0  0
 14 15  1  0  0  0  0
 14 16  1  0  0  0  0
 14 17  1  0  0  0  0
 17 18  1  0  0  0  0
 17 19  1  0  0  0  0
 17 20  1  0  0  0  0
 20 21  1  0  0  0  0
 20 22  1  0  0  0  0
 22 23  1  0  0  0  0
 22 24  1  0  0  0  0
 22 25  1  0  0  0  0
 20 26  1  0  0  0  0
 26 27  1  0  0  0  0
 26 28  1  0  0  0  0
 26 29  1  0  0  0  0
M  END
> <VConfSearch Rank>
637

> <Conf_Id>
71

> <Delta U+W>
3.542

> <U+W>
-24.284

> <U>
28.217

> <W>
-52.501

> <W(PB)>
-54.947

> <W(SA)>
2.446

> <Valence>
6.821

> <Coulomb>
20.147

> <VdW>
1.249

> <VdW6>
-10.237

> <VdW12>
11.486

> <Bond>
0.317

> <Angle>
1.990

> <Pdih>
4.515

> <Idih>
0.000

> <Tether>
0.000

$$$$
VeraChem MOL file


 29 28  0  0  0  0  0  0  0  0999 V2000     
   19.6223   16.5907   26.5464 C   0  0  0  0  0  0  0  0  0  0  0  0
   20.6460   16.3725   26.2153 H   0  0  0  0  0  0  0  0  0  0  0  0
   19.6597   16.8818   27.6043 H   0  0  0  0  0  0  0  0  0  0  0  0
   19.0392   15.6636   26.4724 H   0  0  0  0  0  0  0  0  0  0  0  0
   18.9873   17.7039   25.6867 C   0  0  0  0  0  0  0  0  0  0  0  0
   17.9542   17.8741   26.0206 H   0  0  0  0  0  0  0  0  0  0  0  0
   18.9259   17.3628   24.6464 H   0  0  0  0  0  0  0  0  0  0  0  0
   19.7871   19.0254   25.7843 C   0  0  0  0  0  0  0  0  0  0  0  0
   19.7936   19.3426   26.8363 H   0  0  0  0  0  0  0  0  0  0  0  0
   20.8384   18.8584   25.5122 H   0  0  0  0  0  0  0  0  0  0  0  0
   19.1904   20.1740   24.9298 C   0  0  0  0  0  0  0  0  0  0  0  0
   19.3248   21.1148   25.4814 H   0  0  0  0  0  0  0  0  0  0  0  0
   18.1042   20.0469   24.8239 H   0  0  0  0  0  0  0  0  0  0  0  0
   19.8458   20.3539   23.5361 C   0  0  0  0  0  0  0  0  0  0  0  0
   19.4009   21.2400   23.0652 H   0  0  0  0  0  0  0  0  0  0  0  0
   20.9118   20.5801   23.6715 H   0  0  0  0  0  0  0  0  0  0  0  0
   19.6835   19.1301   22.5959 C   0  0  0  0  0  0  0  0  0  0  0  0
   18.6290   18.8253   22.5758 H   0  0  0  0  0  0  0  0  0  0  0  0
   20.2441   18.2804   23.0050 H   0  0  0  0  0  0  0  0  0  0  0  0
   20.1552   19.3617   21.1410 C   0  0  2  0  0  0  0  0  0  0  0  0
   19.9860   18.4301   20.5922 H   0  0  0  0  0  0  0  0  0  0  0  0
   21.6584   19.6808   21.0654 C   0  0  0  0  0  0  0  0  0  0  0  0
   22.2465   18.9118   21.5813 H   0  0  0  0  0  0  0  0  0  0  0  0
   21.9924   19.7102   20.0210 H   0  0  0  0  0  0  0  0  0  0  0  0
   21.8895   20.6523   21.5186 H   0  0  0  0  0  0  0  0  0  0  0  0
   19.3449   20.4133   20.4342 N   0  3  0  0  0  0  0  0  0  0  0  0
   18.3463   20.1864   20.4427 H   0  0  0  0  0  0  0  0  0  0  0  0
   19.6289   20.5088   19.4550 H   0  0  0  0  0  0  0  0  0  0  0  0
   19.4570   21.3286   20.8769 H   0  0  0  0  0  0  0  0  0  0  0  0
  1  2  1  0  0  0  0
  1  3  1  0  0  0  0
  1  4  1  0  0  0  0
  1  5  1  0  0  0  0
  5  6  1  0  0  0  0
  5  7  1  0  0  0  0
  5  8  1  0  0  0  0
  8  9  1  0  0  0  0
  8 10  1  0  0  0  0
  8 11  1  0  0  0  0
 11 12  1  0  0  0  0
 11 13  1  0  0  0  0
 11 14  1  0  0  0  0
 14 15  1  0  0  0  0
 14 16  1  0  0  0  0
 14 17  1  0  0  0  0
 17 18  1  0  0  0  0
 17 19  1  0  0  0  0
 17 20  1  0  0  0  0
 20 21  1  0  0  0  0
 20 22  1  0  0  0  0
 22 23  1  0  0  0  0
 22 24  1  0  0  0  0
 22 25  1  0  0  0  0
 20 26  1  0  0  0  0
 26 27  1  0  0  0  0
 26 28  1  0  0  0  0
 26 29  1  0  0  0  0
M  END
> <VConfSearch Rank>
638

> <Conf_Id>
163

> <Delta U+W>
3.309

> <U+W>
-24.517

> <U>
27.916

> <W>
-52.433

> <W(PB)>
-54.866

> <W(SA)>
2.433

> <Valence>
6.693

> <Coulomb>
20.015

> <VdW>
1.208

> <VdW6>
-10.294

> <VdW12>
11.503

> <Bond>
0.312

> <Angle>
1.939

> <Pdih>
4.441

> <Idih>
0.000

> <Tether>
0.000

$$$$
VeraChem MOL file


 29 28  0  0  0  0  0  0  0  0999 V2000     
   21.5255   18.9493   19.9265 C   0  0  0  0  0  0  0  0  0  0  0  0
   22.2392   18.1221   20.0328 H   0  0  0  0  0  0  0  0  0  0  0  0
   20.5351   18.5255   19.7199 H   0  0  0  0  0  0  0  0  0  0  0  0
   21.8216   19.5372   19.0481 H   0  0  0  0  0  0  0  0  0  0  0  0
   21.5120   19.8376   21.1913 C   0  0  0  0  0  0  0  0  0  0  0  0
   20.7660   20.6361   21.0749 H   0  0  0  0  0  0  0  0  0  0  0  0
   22.4863   20.3382   21.2805 H   0  0  0  0  0  0  0  0  0  0  0  0
   21.2384   19.0511   22.4960 C   0  0  0  0  0  0  0  0  0  0  0  0
   21.9888   18.2568   22.6101 H   0  0  0  0  0  0  0  0  0  0  0  0
   21.3817   19.7373   23.3405 H   0  0  0  0  0  0  0  0  0  0  0  0
   19.8158   18.4399   22.5605 C   0  0  0  0  0  0  0  0  0  0  0  0
   19.6745   17.7551   21.7145 H   0  0  0  0  0  0  0  0  0  0  0  0
   19.0671   19.2333   22.4364 H   0  0  0  0  0  0  0  0  0  0  0  0
   19.5414   17.6464   23.8645 C   0  0  0  0  0  0  0  0  0  0  0  0
   18.5395   17.2008   23.8034 H   0  0  0  0  0  0  0  0  0  0  0  0
   20.2384   16.7988   23.9202 H   0  0  0  0  0  0  0  0  0  0  0  0
   19.6560   18.4725   25.1736 C   0  0  0  0  0  0  0  0  0  0  0  0
   20.7057   18.7490   25.3353 H   0  0  0  0  0  0  0  0  0  0  0  0
   19.3814   17.8332   26.0231 H   0  0  0  0  0  0  0  0  0  0  0  0
   18.7861   19.7487   25.1929 C   0  0  2  0  0  0  0  0  0  0  0  0
   19.0749   20.3746   24.3432 H   0  0  0  0  0  0  0  0  0  0  0  0
   19.0336   20.5468   26.4826 C   0  0  0  0  0  0  0  0  0  0  0  0
   18.4462   21.4732   26.4845 H   0  0  0  0  0  0  0  0  0  0  0  0
   18.7559   19.9639   27.3697 H   0  0  0  0  0  0  0  0  0  0  0  0
   20.0916   20.8232   26.5725 H   0  0  0  0  0  0  0  0  0  0  0  0
   17.3224   19.4440   25.0300 N   0  3  0  0  0  0  0  0  0  0  0  0
   17.1440   18.9383   24.1581 H   0  0  0  0  0  0  0  0  0  0  0  0
   16.7607   20.3000   25.0114 H   0  0  0  0  0  0  0  0  0  0  0  0
   16.9749   18.8651   25.7991 H   0  0  0  0  0  0  0  0  0  0  0  0
  1  2  1  0  0  0  0
  1  3  1  0  0  0  0
  1  4  1  0  0  0  0
  1  5  1  0  0  0  0
  5  6  1  0  0  0  0
  5  7  1  0  0  0  0
  5  8  1  0  0  0  0
  8  9  1  0  0  0  0
  8 10  1  0  0  0  0
  8 11  1  0  0  0  0
 11 12  1  0  0  0  0
 11 13  1  0  0  0  0
 11 14  1  0  0  0  0
 14 15  1  0  0  0  0
 14 16  1  0  0  0  0
 14 17  1  0  0  0  0
 17 18  1  0  0  0  0
 17 19  1  0  0  0  0
 17 20  1  0  0  0  0
 20 21  1  0  0  0  0
 20 22  1  0  0  0  0
 22 23  1  0  0  0  0
 22 24  1  0  0  0  0
 22 25  1  0  0  0  0
 20 26  1  0  0  0  0
 26 27  1  0  0  0  0
 26 28  1  0  0  0  0
 26 29  1  0  0  0  0
M  END
> <VConfSearch Rank>
639

> <Conf_Id>
173

> <Delta U+W>
1.363

> <U+W>
-26.462

> <U>
25.816

> <W>
-52.279

> <W(PB)>
-54.727

> <W(SA)>
2.449

> <Valence>
4.504

> <Coulomb>
20.342

> <VdW>
0.971

> <VdW6>
-10.532

> <VdW12>
11.503

> <Bond>
0.307

> <Angle>
1.715

> <Pdih>
2.481

> <Idih>
0.000

> <Tether>
0.000

$$$$
VeraChem MOL file


 29 28  0  0  0  0  0  0  0  0999 V2000     
   20.6531   18.1089   19.8541 C   0  0  0  0  0  0  0  0  0  0  0  0
   21.6596   17.7019   20.0170 H   0  0  0  0  0  0  0  0  0  0  0  0
   20.0848   17.3860   19.2543 H   0  0  0  0  0  0  0  0  0  0  0  0
   20.7530   19.0300   19.2654 H   0  0  0  0  0  0  0  0  0  0  0  0
   19.9466   18.3939   21.1962 C   0  0  0  0  0  0  0  0  0  0  0  0
   18.9544   18.8242   21.0016 H   0  0  0  0  0  0  0  0  0  0  0  0
   20.5253   19.1469   21.7473 H   0  0  0  0  0  0  0  0  0  0  0  0
   19.8035   17.1124   22.0486 C   0  0  0  0  0  0  0  0  0  0  0  0
   19.3288   16.3303   21.4402 H   0  0  0  0  0  0  0  0  0  0  0  0
   20.8020   16.7337   22.3071 H   0  0  0  0  0  0  0  0  0  0  0  0
   18.9706   17.2932   23.3440 C   0  0  0  0  0  0  0  0  0  0  0  0
   18.9091   16.3128   23.8363 H   0  0  0  0  0  0  0  0  0  0  0  0
   17.9355   17.5627   23.0927 H   0  0  0  0  0  0  0  0  0  0  0  0
   19.5621   18.3073   24.3576 C   0  0  0  0  0  0  0  0  0  0  0  0
   19.3787   17.9245   25.3703 H   0  0  0  0  0  0  0  0  0  0  0  0
   20.6526   18.3491   24.2403 H   0  0  0  0  0  0  0  0  0  0  0  0
   18.9322   19.7233   24.2423 C   0  0  0  0  0  0  0  0  0  0  0  0
   17.8513   19.6466   24.4183 H   0  0  0  0  0  0  0  0  0  0  0  0
   19.0387   20.1051   23.2208 H   0  0  0  0  0  0  0  0  0  0  0  0
   19.5101   20.7734   25.2200 C   0  0  2  0  0  0  0  0  0  0  0  0
   18.9407   21.6971   25.0780 H   0  0  0  0  0  0  0  0  0  0  0  0
   20.9864   21.0883   24.9217 C   0  0  0  0  0  0  0  0  0  0  0  0
   21.1209   21.3668   23.8691 H   0  0  0  0  0  0  0  0  0  0  0  0
   21.3296   21.9308   25.5346 H   0  0  0  0  0  0  0  0  0  0  0  0
   21.6365   20.2321   25.1366 H   0  0  0  0  0  0  0  0  0  0  0  0
   19.3215   20.3849   26.6605 N   0  3  0  0  0  0  0  0  0  0  0  0
   18.3350   20.2172   26.8779 H   0  0  0  0  0  0  0  0  0  0  0  0
   19.6542   21.1187   27.2925 H   0  0  0  0  0  0  0  0  0  0  0  0
   19.8366   19.5298   26.8843 H   0  0  0  0  0  0  0  0  0  0  0  0
  1  2  1  0  0  0  0
  1  3  1  0  0  0  0
  1  4  1  0  0  0  0
  1  5  1  0  0  0  0
  5  6  1  0  0  0  0
  5  7  1  0  0  0  0
  5  8  1  0  0  0  0
  8  9  1  0  0  0  0
  8 10  1  0  0  0  0
  8 11  1  0  0  0  0
 11 12  1  0  0  0  0
 11 13  1  0  0  0  0
 11 14  1  0  0  0  0
 14 15  1  0  0  0  0
 14 16  1  0  0  0  0
 14 17  1  0  0  0  0
 17 18  1  0  0  0  0
 17 19  1  0  0  0  0
 17 20  1  0  0  0  0
 20 21  1  0  0  0  0
 20 22  1  0  0  0  0
 22 23  1  0  0  0  0
 22 24  1  0  0  0  0
 22 25  1  0  0  0  0
 20 26  1  0  0  0  0
 26 27  1  0  0  0  0
 26 28  1  0  0  0  0
 26 29  1  0  0  0  0
M  END
> <VConfSearch Rank>
640

> <Conf_Id>
117

> <Delta U+W>
3.377

> <U+W>
-24.449

> <U>
27.947

> <W>
-52.396

> <W(PB)>
-54.842

> <W(SA)>
2.447

> <Valence>
6.731

> <Coulomb>
20.067

> <VdW>
1.149

> <VdW6>
-10.427

> <VdW12>
11.575

> <Bond>
0.324

> <Angle>
1.943

> <Pdih>
4.465

> <Idih>
0.000

> <Tether>
0.000

$$$$
VeraChem MOL file


 29 28  0  0  0  0  0  0  0  0999 V2000     
   18.2399   16.5272   19.7324 C   0  0  0  0  0  0  0  0  0  0  0  0
   19.1137   16.7923   19.1228 H   0  0  0  0  0  0  0  0  0  0  0  0
   18.4328   15.5536   20.2015 H   0  0  0  0  0  0  0  0  0  0  0  0
   17.3810   16.4124   19.0584 H   0  0  0  0  0  0  0  0  0  0  0  0
   17.9570   17.6090   20.7962 C   0  0  0  0  0  0  0  0  0  0  0  0
   17.0592   17.3332   21.3668 H   0  0  0  0  0  0  0  0  0  0  0  0
   17.7348   18.5623   20.2965 H   0  0  0  0  0  0  0  0  0  0  0  0
   19.1514   17.7906   21.7587 C   0  0  0  0  0  0  0  0  0  0  0  0
   19.3712   16.8347   22.2540 H   0  0  0  0  0  0  0  0  0  0  0  0
   20.0468   18.0639   21.1835 H   0  0  0  0  0  0  0  0  0  0  0  0
   18.8718   18.8731   22.8255 C   0  0  0  0  0  0  0  0  0  0  0  0
   17.9754   18.5992   23.3989 H   0  0  0  0  0  0  0  0  0  0  0  0
   18.6523   19.8288   22.3294 H   0  0  0  0  0  0  0  0  0  0  0  0
   20.0666   19.0540   23.7887 C   0  0  0  0  0  0  0  0  0  0  0  0
   20.2831   18.0987   24.2870 H   0  0  0  0  0  0  0  0  0  0  0  0
   20.9594   19.3211   23.2078 H   0  0  0  0  0  0  0  0  0  0  0  0
   19.7844   20.1397   24.8554 C   0  0  0  0  0  0  0  0  0  0  0  0
   18.8589   19.8821   25.3877 H   0  0  0  0  0  0  0  0  0  0  0  0
   19.6051   21.1054   24.3643 H   0  0  0  0  0  0  0  0  0  0  0  0
   20.9263   20.2845   25.8846 C   0  0  2  0  0  0  0  0  0  0  0  0
   21.1019   19.3060   26.3420 H   0  0  0  0  0  0  0  0  0  0  0  0
   20.5248   21.2705   26.9931 C   0  0  0  0  0  0  0  0  0  0  0  0
   21.3172   21.3504   27.7475 H   0  0  0  0  0  0  0  0  0  0  0  0
   20.3385   22.2720   26.5853 H   0  0  0  0  0  0  0  0  0  0  0  0
   19.6132   20.9342   27.5028 H   0  0  0  0  0  0  0  0  0  0  0  0
   22.2236   20.7050   25.2498 N   0  3  0  0  0  0  0  0  0  0  0  0
   22.5268   20.0336   24.5392 H   0  0  0  0  0  0  0  0  0  0  0  0
   22.9735   20.7768   25.9435 H   0  0  0  0  0  0  0  0  0  0  0  0
   22.1376   21.6181   24.7953 H   0  0  0  0  0  0  0  0  0  0  0  0
  1  2  1  0  0  0  0
  1  3  1  0  0  0  0
  1  4  1  0  0  0  0
  1  5  1  0  0  0  0
  5  6  1  0  0  0  0
  5  7  1  0  0  0  0
  5  8  1  0  0  0  0
  8  9  1  0  0  0  0
  8 10  1  0  0  0  0
  8 11  1  0  0  0  0
 11 12  1  0  0  0  0
 11 13  1  0  0  0  0
 11 14  1  0  0  0  0
 14 15  1  0  0  0  0
 14 16  1  0  0  0  0
 14 17  1  0  0  0  0
 17 18  1  0  0  0  0
 17 19  1  0  0  0  0
 17 20  1  0  0  0  0
 20 21  1  0  0  0  0
 20 22  1  0  0  0  0
 22 23  1  0  0  0  0
 22 24  1  0  0  0  0
 22 25  1  0  0  0  0
 20 26  1  0  0  0  0
 26 27  1  0  0  0  0
 26 28  1  0  0  0  0
 26 29  1  0  0  0  0
M  END
> <VConfSearch Rank>
641

> <Conf_Id>
164

> <Delta U+W>
0.000

> <U+W>
-27.826

> <U>
23.963

> <W>
-51.789

> <W(PB)>
-54.342

> <W(SA)>
2.554

> <Valence>
3.166

> <Coulomb>
19.734

> <VdW>
1.062

> <VdW6>
-7.938

> <VdW12>
9.001

> <Bond>
0.188

> <Angle>
0.880

> <Pdih>
2.098

> <Idih>
0.000

> <Tether>
0.000

$$$$
VeraChem MOL file


 29 28  0  0  0  0  0  0  0  0999 V2000     
   23.5207   17.4376   20.8590 C   0  0  0  0  0  0  0  0  0  0  0  0
   24.2422   17.4493   21.6865 H   0  0  0  0  0  0  0  0  0  0  0  0
   23.0969   16.4273   20.7890 H   0  0  0  0  0  0  0  0  0  0  0  0
   24.0701   17.6379   19.9300 H   0  0  0  0  0  0  0  0  0  0  0  0
   22.4127   18.4901   21.0745 C   0  0  0  0  0  0  0  0  0  0  0  0
   21.7266   18.4780   20.2160 H   0  0  0  0  0  0  0  0  0  0  0  0
   22.8630   19.4922   21.1066 H   0  0  0  0  0  0  0  0  0  0  0  0
   21.6234   18.2311   22.3767 C   0  0  0  0  0  0  0  0  0  0  0  0
   21.1773   17.2275   22.3409 H   0  0  0  0  0  0  0  0  0  0  0  0
   22.3136   18.2418   23.2316 H   0  0  0  0  0  0  0  0  0  0  0  0
   20.5128   19.2830   22.5959 C   0  0  0  0  0  0  0  0  0  0  0  0
   19.8227   19.2714   21.7407 H   0  0  0  0  0  0  0  0  0  0  0  0
   20.9603   20.2860   22.6300 H   0  0  0  0  0  0  0  0  0  0  0  0
   19.7236   19.0237   23.8992 C   0  0  0  0  0  0  0  0  0  0  0  0
   19.2882   18.0167   23.8583 H   0  0  0  0  0  0  0  0  0  0  0  0
   20.4131   19.0404   24.7547 H   0  0  0  0  0  0  0  0  0  0  0  0
   18.6085   20.0764   24.1139 C   0  0  0  0  0  0  0  0  0  0  0  0
   17.8810   20.0181   23.2934 H   0  0  0  0  0  0  0  0  0  0  0  0
   19.0577   21.0769   24.0609 H   0  0  0  0  0  0  0  0  0  0  0  0
   17.8763   19.9408   25.4685 C   0  0  2  0  0  0  0  0  0  0  0  0
   18.6248   19.9597   26.2667 H   0  0  0  0  0  0  0  0  0  0  0  0
   17.0861   18.6240   25.5723 C   0  0  0  0  0  0  0  0  0  0  0  0
   16.3633   18.5293   24.7523 H   0  0  0  0  0  0  0  0  0  0  0  0
   17.7534   17.7549   25.5450 H   0  0  0  0  0  0  0  0  0  0  0  0
   16.5340   18.5785   26.5192 H   0  0  0  0  0  0  0  0  0  0  0  0
   16.9669   21.1130   25.7125 N   0  3  0  0  0  0  0  0  0  0  0  0
   16.5095   21.0476   26.6264 H   0  0  0  0  0  0  0  0  0  0  0  0
   16.2293   21.1677   25.0049 H   0  0  0  0  0  0  0  0  0  0  0  0
   17.4800   21.9991   25.6916 H   0  0  0  0  0  0  0  0  0  0  0  0
  1  2  1  0  0  0  0
  1  3  1  0  0  0  0
  1  4  1  0  0  0  0
  1  5  1  0  0  0  0
  5  6  1  0  0  0  0
  5  7  1  0  0  0  0
  5  8  1  0  0  0  0
  8  9  1  0  0  0  0
  8 10  1  0  0  0  0
  8 11  1  0  0  0  0
 11 12  1  0  0  0  0
 11 13  1  0  0  0  0
 11 14  1  0  0  0  0
 14 15  1  0  0  0  0
 14 16  1  0  0  0  0
 14 17  1  0  0  0  0
 17 18  1  0  0  0  0
 17 19  1  0  0  0  0
 17 20  1  0  0  0  0
 20 21  1  0  0  0  0
 20 22  1  0  0  0  0
 22 23  1  0  0  0  0
 22 24  1  0  0  0  0
 22 25  1  0  0  0  0
 20 26  1  0  0  0  0
 26 27  1  0  0  0  0
 26 28  1  0  0  0  0
 26 29  1  0  0  0  0
M  END
> <VConfSearch Rank>
642

> <Conf_Id>
58

> <Delta U+W>
0.412

> <U+W>
-27.414

> <U>
24.279

> <W>
-51.694

> <W(PB)>
-54.271

> <W(SA)>
2.577

> <Valence>
3.709

> <Coulomb>
19.380

> <VdW>
1.191

> <VdW6>
-8.093

> <VdW12>
9.284

> <Bond>
0.200

> <Angle>
1.161

> <Pdih>
2.348

> <Idih>
0.000

> <Tether>
0.000

$$$$
VeraChem MOL file


 29 28  0  0  0  0  0  0  0  0999 V2000     
   15.2448   20.1653   24.4158 C   0  0  0  0  0  0  0  0  0  0  0  0
   14.9104   19.8538   23.4176 H   0  0  0  0  0  0  0  0  0  0  0  0
   15.1349   19.3103   25.0956 H   0  0  0  0  0  0  0  0  0  0  0  0
   14.5729   20.9608   24.7634 H   0  0  0  0  0  0  0  0  0  0  0  0
   16.7055   20.6622   24.3813 C   0  0  0  0  0  0  0  0  0  0  0  0
   17.0002   20.9981   25.3855 H   0  0  0  0  0  0  0  0  0  0  0  0
   16.7774   21.5373   23.7204 H   0  0  0  0  0  0  0  0  0  0  0  0
   17.6730   19.5606   23.8952 C   0  0  0  0  0  0  0  0  0  0  0  0
   17.5960   18.6873   24.5576 H   0  0  0  0  0  0  0  0  0  0  0  0
   17.3730   19.2264   22.8923 H   0  0  0  0  0  0  0  0  0  0  0  0
   19.1368   20.0547   23.8590 C   0  0  0  0  0  0  0  0  0  0  0  0
   19.4354   20.3892   24.8622 H   0  0  0  0  0  0  0  0  0  0  0  0
   19.2125   20.9282   23.1967 H   0  0  0  0  0  0  0  0  0  0  0  0
   20.1045   18.9524   23.3724 C   0  0  0  0  0  0  0  0  0  0  0  0
   20.0229   18.0824   24.0373 H   0  0  0  0  0  0  0  0  0  0  0  0
   19.7952   18.6216   22.3723 H   0  0  0  0  0  0  0  0  0  0  0  0
   21.5711   19.4554   23.3351 C   0  0  0  0  0  0  0  0  0  0  0  0
   21.8496   19.8285   24.3294 H   0  0  0  0  0  0  0  0  0  0  0  0
   21.6420   20.3173   22.6585 H   0  0  0  0  0  0  0  0  0  0  0  0
   22.6124   18.3966   22.9017 C   0  0  2  0  0  0  0  0  0  0  0  0
   23.5975   18.8712   22.9487 H   0  0  0  0  0  0  0  0  0  0  0  0
   22.3915   17.9264   21.4534 C   0  0  0  0  0  0  0  0  0  0  0  0
   23.2189   17.2836   21.1288 H   0  0  0  0  0  0  0  0  0  0  0  0
   21.4624   17.3535   21.3500 H   0  0  0  0  0  0  0  0  0  0  0  0
   22.3466   18.7820   20.7682 H   0  0  0  0  0  0  0  0  0  0  0  0
   22.6682   17.2267   23.8451 N   0  3  0  0  0  0  0  0  0  0  0  0
   22.8594   17.5275   24.8051 H   0  0  0  0  0  0  0  0  0  0  0  0
   23.4041   16.5663   23.5788 H   0  0  0  0  0  0  0  0  0  0  0  0
   21.7831   16.7138   23.8528 H   0  0  0  0  0  0  0  0  0  0  0  0
  1  2  1  0  0  0  0
  1  3  1  0  0  0  0
  1  4  1  0  0  0  0
  1  5  1  0  0  0  0
  5  6  1  0  0  0  0
  5  7  1  0  0  0  0
  5  8  1  0  0  0  0
  8  9  1  0  0  0  0
  8 10  1  0  0  0  0
  8 11  1  0  0  0  0
 11 12  1  0  0  0  0
 11 13  1  0  0  0  0
 11 14  1  0  0  0  0
 14 15  1  0  0  0  0
 14 16  1  0  0  0  0
 14 17  1  0  0  0  0
 17 18  1  0  0  0  0
 17 19  1  0  0  0  0
 17 20  1  0  0  0  0
 20 21  1  0  0  0  0
 20 22  1  0  0  0  0
 22 23  1  0  0  0  0
 22 24  1  0  0  0  0
 22 25  1  0  0  0  0
 20 26  1  0  0  0  0
 26 27  1  0  0  0  0
 26 28  1  0  0  0  0
 26 29  1  0  0  0  0
M  END
> <VConfSearch Rank>
643

> <Conf_Id>
137

> <Delta U+W>
0.280

> <U+W>
-27.546

> <U>
24.513

> <W>
-52.059

> <W(PB)>
-54.556

> <W(SA)>
2.497

> <Valence>
3.677

> <Coulomb>
19.662

> <VdW>
1.174

> <VdW6>
-8.569

> <VdW12>
9.743

> <Bond>
0.224

> <Angle>
1.211

> <Pdih>
2.243

> <Idih>
0.000

> <Tether>
0.000

$$$$
VeraChem MOL file


 29 28  0  0  0  0  0  0  0  0999 V2000     
   22.0268   20.4247   27.1432 C   0  0  0  0  0  0  0  0  0  0  0  0
   22.8863   20.1600   26.5135 H   0  0  0  0  0  0  0  0  0  0  0  0
   21.8153   21.4927   27.0019 H   0  0  0  0  0  0  0  0  0  0  0  0
   22.3178   20.2745   28.1910 H   0  0  0  0  0  0  0  0  0  0  0  0
   20.7950   19.5642   26.7911 C   0  0  0  0  0  0  0  0  0  0  0  0
   19.9637   19.8275   27.4600 H   0  0  0  0  0  0  0  0  0  0  0  0
   21.0257   18.5052   26.9734 H   0  0  0  0  0  0  0  0  0  0  0  0
   20.3636   19.7577   25.3205 C   0  0  0  0  0  0  0  0  0  0  0  0
   20.1318   20.8171   25.1441 H   0  0  0  0  0  0  0  0  0  0  0  0
   21.2060   19.5012   24.6654 H   0  0  0  0  0  0  0  0  0  0  0  0
   19.1308   18.8915   24.9657 C   0  0  0  0  0  0  0  0  0  0  0  0
   18.3293   19.1025   25.6871 H   0  0  0  0  0  0  0  0  0  0  0  0
   19.3782   17.8274   25.0831 H   0  0  0  0  0  0  0  0  0  0  0  0
   18.5814   19.1428   23.5396 C   0  0  0  0  0  0  0  0  0  0  0  0
   17.6325   18.5995   23.4457 H   0  0  0  0  0  0  0  0  0  0  0  0
   18.3415   20.2084   23.4204 H   0  0  0  0  0  0  0  0  0  0  0  0
   19.5501   18.6948   22.4141 C   0  0  0  0  0  0  0  0  0  0  0  0
   19.7814   17.6274   22.5270 H   0  0  0  0  0  0  0  0  0  0  0  0
   20.4992   19.2330   22.5241 H   0  0  0  0  0  0  0  0  0  0  0  0
   19.0144   18.9625   20.9887 C   0  0  2  0  0  0  0  0  0  0  0  0
   18.7338   20.0181   20.9198 H   0  0  0  0  0  0  0  0  0  0  0  0
   17.7783   18.1061   20.6595 C   0  0  0  0  0  0  0  0  0  0  0  0
   17.9922   17.0370   20.7818 H   0  0  0  0  0  0  0  0  0  0  0  0
   16.9300   18.3634   21.3038 H   0  0  0  0  0  0  0  0  0  0  0  0
   17.4586   18.2722   19.6233 H   0  0  0  0  0  0  0  0  0  0  0  0
   20.0861   18.7413   19.9575 N   0  3  0  0  0  0  0  0  0  0  0  0
   20.9031   19.3345   20.1291 H   0  0  0  0  0  0  0  0  0  0  0  0
   19.7476   18.9548   19.0149 H   0  0  0  0  0  0  0  0  0  0  0  0
   20.4067   17.7691   19.9540 H   0  0  0  0  0  0  0  0  0  0  0  0
  1  2  1  0  0  0  0
  1  3  1  0  0  0  0
  1  4  1  0  0  0  0
  1  5  1  0  0  0  0
  5  6  1  0  0  0  0
  5  7  1  0  0  0  0
  5  8  1  0  0  0  0
  8  9  1  0  0  0  0
  8 10  1  0  0  0  0
  8 11  1  0  0  0  0
 11 12  1  0  0  0  0
 11 13  1  0  0  0  0
 11 14  1  0  0  0  0
 14 15  1  0  0  0  0
 14 16  1  0  0  0  0
 14 17  1  0  0  0  0
 17 18  1  0  0  0  0
 17 19  1  0  0  0  0
 17 20  1  0  0  0  0
 20 21  1  0  0  0  0
 20 22  1  0  0  0  0
 22 23  1  0  0  0  0
 22 24  1  0  0  0  0
 22 25  1  0  0  0  0
 20 26  1  0  0  0  0
 26 27  1  0  0  0  0
 26 28  1  0  0  0  0
 26 29  1  0  0  0  0
M  END
> <VConfSearch Rank>
644

> <Conf_Id>
40

> <Delta U+W>
1.128

> <U+W>
-26.698

> <U>
25.442

> <W>
-52.140

> <W(PB)>
-54.658

> <W(SA)>
2.519

> <Valence>
4.343

> <Coulomb>
19.740

> <VdW>
1.360

> <VdW6>
-8.739

> <VdW12>
10.099

> <Bond>
0.251

> <Angle>
1.483

> <Pdih>
2.608

> <Idih>
0.000

> <Tether>
0.000

$$$$
VeraChem MOL file


 29 28  0  0  0  0  0  0  0  0999 V2000     
   19.9405   20.9073   19.5531 C   0  0  0  0  0  0  0  0  0  0  0  0
   20.7341   21.4543   20.0767 H   0  0  0  0  0  0  0  0  0  0  0  0
   20.3822   20.0119   19.0968 H   0  0  0  0  0  0  0  0  0  0  0  0
   19.5762   21.5519   18.7427 H   0  0  0  0  0  0  0  0  0  0  0  0
   18.7831   20.5319   20.5063 C   0  0  0  0  0  0  0  0  0  0  0  0
   17.9626   20.1051   19.9126 H   0  0  0  0  0  0  0  0  0  0  0  0
   18.3815   21.4402   20.9769 H   0  0  0  0  0  0  0  0  0  0  0  0
   19.1870   19.5112   21.5977 C   0  0  0  0  0  0  0  0  0  0  0  0
   18.2760   19.2062   22.1278 H   0  0  0  0  0  0  0  0  0  0  0  0
   19.5876   18.6055   21.1219 H   0  0  0  0  0  0  0  0  0  0  0  0
   20.2174   20.0691   22.6125 C   0  0  0  0  0  0  0  0  0  0  0  0
   19.8148   20.9716   23.0927 H   0  0  0  0  0  0  0  0  0  0  0  0
   21.1222   20.3825   22.0761 H   0  0  0  0  0  0  0  0  0  0  0  0
   20.6379   19.0469   23.6976 C   0  0  0  0  0  0  0  0  0  0  0  0
   21.0221   18.1371   23.2159 H   0  0  0  0  0  0  0  0  0  0  0  0
   21.4775   19.4771   24.2590 H   0  0  0  0  0  0  0  0  0  0  0  0
   19.4961   18.6775   24.6797 C   0  0  0  0  0  0  0  0  0  0  0  0
   18.6691   18.2220   24.1216 H   0  0  0  0  0  0  0  0  0  0  0  0
   19.0976   19.5882   25.1460 H   0  0  0  0  0  0  0  0  0  0  0  0
   19.9433   17.6866   25.7766 C   0  0  2  0  0  0  0  0  0  0  0  0
   20.3700   16.8047   25.2889 H   0  0  0  0  0  0  0  0  0  0  0  0
   18.7360   17.2375   26.6152 C   0  0  0  0  0  0  0  0  0  0  0  0
   19.0408   16.5066   27.3744 H   0  0  0  0  0  0  0  0  0  0  0  0
   18.2699   18.0885   27.1276 H   0  0  0  0  0  0  0  0  0  0  0  0
   17.9764   16.7620   25.9822 H   0  0  0  0  0  0  0  0  0  0  0  0
   21.0174   18.2535   26.6644 N   0  3  0  0  0  0  0  0  0  0  0  0
   20.6918   19.0902   27.1559 H   0  0  0  0  0  0  0  0  0  0  0  0
   21.8480   18.5149   26.1266 H   0  0  0  0  0  0  0  0  0  0  0  0
   21.3124   17.5763   27.3736 H   0  0  0  0  0  0  0  0  0  0  0  0
  1  2  1  0  0  0  0
  1  3  1  0  0  0  0
  1  4  1  0  0  0  0
  1  5  1  0  0  0  0
  5  6  1  0  0  0  0
  5  7  1  0  0  0  0
  5  8  1  0  0  0  0
  8  9  1  0  0  0  0
  8 10  1  0  0  0  0
  8 11  1  0  0  0  0
 11 12  1  0  0  0  0
 11 13  1  0  0  0  0
 11 14  1  0  0  0  0
 14 15  1  0  0  0  0
 14 16  1  0  0  0  0
 14 17  1  0  0  0  0
 17 18  1  0  0  0  0
 17 19  1  0  0  0  0
 17 20  1  0  0  0  0
 20 21  1  0  0  0  0
 20 22  1  0  0  0  0
 22 23  1  0  0  0  0
 22 24  1  0  0  0  0
 22 25  1  0  0  0  0
 20 26  1  0  0  0  0
 26 27  1  0  0  0  0
 26 28  1  0  0  0  0
 26 29  1  0  0  0  0
M  END
> <VConfSearch Rank>
645

> <Conf_Id>
134

> <Delta U+W>
1.228

> <U+W>
-26.598

> <U>
25.451

> <W>
-52.048

> <W(PB)>
-54.539

> <W(SA)>
2.490

> <Valence>
4.319

> <Coulomb>
19.732

> <VdW>
1.400

> <VdW6>
-9.173

> <VdW12>
10.573

> <Bond>
0.281

> <Angle>
1.459

> <Pdih>
2.580

> <Idih>
0.000

> <Tether>
0.000

$$$$
VeraChem MOL file


 29 28  0  0  0  0  0  0  0  0999 V2000     
   22.5384   16.4035   21.5259 C   0  0  0  0  0  0  0  0  0  0  0  0
   21.5963   15.8916   21.2943 H   0  0  0  0  0  0  0  0  0  0  0  0
   22.7294   17.1462   20.7404 H   0  0  0  0  0  0  0  0  0  0  0  0
   23.3395   15.6544   21.4812 H   0  0  0  0  0  0  0  0  0  0  0  0
   22.4975   17.0680   22.9208 C   0  0  0  0  0  0  0  0  0  0  0  0
   23.4995   17.4526   23.1572 H   0  0  0  0  0  0  0  0  0  0  0  0
   22.2707   16.3113   23.6848 H   0  0  0  0  0  0  0  0  0  0  0  0
   21.4838   18.2335   23.0207 C   0  0  0  0  0  0  0  0  0  0  0  0
   21.6252   18.7228   23.9928 H   0  0  0  0  0  0  0  0  0  0  0  0
   21.7161   18.9878   22.2565 H   0  0  0  0  0  0  0  0  0  0  0  0
   20.0082   17.7812   22.8783 C   0  0  0  0  0  0  0  0  0  0  0  0
   19.7757   17.0280   23.6435 H   0  0  0  0  0  0  0  0  0  0  0  0
   19.8690   17.2884   21.9076 H   0  0  0  0  0  0  0  0  0  0  0  0
   18.9937   18.9475   22.9719 C   0  0  0  0  0  0  0  0  0  0  0  0
   19.2249   19.6867   22.1936 H   0  0  0  0  0  0  0  0  0  0  0  0
   17.9928   18.5567   22.7422 H   0  0  0  0  0  0  0  0  0  0  0  0
   18.9601   19.6283   24.3647 C   0  0  0  0  0  0  0  0  0  0  0  0
   19.9061   20.1516   24.5525 H   0  0  0  0  0  0  0  0  0  0  0  0
   18.8741   18.8492   25.1336 H   0  0  0  0  0  0  0  0  0  0  0  0
   17.7876   20.6201   24.5391 C   0  0  2  0  0  0  0  0  0  0  0  0
   16.8555   20.0923   24.3150 H   0  0  0  0  0  0  0  0  0  0  0  0
   17.9045   21.8266   23.5906 C   0  0  0  0  0  0  0  0  0  0  0  0
   18.8541   22.3562   23.7373 H   0  0  0  0  0  0  0  0  0  0  0  0
   17.8427   21.5160   22.5412 H   0  0  0  0  0  0  0  0  0  0  0  0
   17.0878   22.5374   23.7672 H   0  0  0  0  0  0  0  0  0  0  0  0
   17.6787   21.0867   25.9641 N   0  3  0  0  0  0  0  0  0  0  0  0
   17.5567   20.3011   26.6098 H   0  0  0  0  0  0  0  0  0  0  0  0
   16.8788   21.7131   26.0923 H   0  0  0  0  0  0  0  0  0  0  0  0
   18.5165   21.5975   26.2556 H   0  0  0  0  0  0  0  0  0  0  0  0
  1  2  1  0  0  0  0
  1  3  1  0  0  0  0
  1  4  1  0  0  0  0
  1  5  1  0  0  0  0
  5  6  1  0  0  0  0
  5  7  1  0  0  0  0
  5  8  1  0  0  0  0
  8  9  1  0  0  0  0
  8 10  1  0  0  0  0
  8 11  1  0  0  0  0
 11 12  1  0  0  0  0
 11 13  1  0  0  0  0
 11 14  1  0  0  0  0
 14 15  1  0  0  0  0
 14 16  1  0  0  0  0
 14 17  1  0  0  0  0
 17 18  1  0  0  0  0
 17 19  1  0  0  0  0
 17 20  1  0  0  0  0
 20 21  1  0  0  0  0
 20 22  1  0  0  0  0
 22 23  1  0  0  0  0
 22 24  1  0  0  0  0
 22 25  1  0  0  0  0
 20 26  1  0  0  0  0
 26 27  1  0  0  0  0
 26 28  1  0  0  0  0
 26 29  1  0  0  0  0
M  END
> <VConfSearch Rank>
646

> <Conf_Id>
73

> <Delta U+W>
1.580

> <U+W>
-26.246

> <U>
25.821

> <W>
-52.067

> <W(PB)>
-54.581

> <W(SA)>
2.514

> <Valence>
4.779

> <Coulomb>
19.614

> <VdW>
1.428

> <VdW6>
-9.390

> <VdW12>
10.818

> <Bond>
0.283

> <Angle>
1.640

> <Pdih>
2.856

> <Idih>
0.000

> <Tether>
0.000

$$$$
VeraChem MOL file


 29 28  0  0  0  0  0  0  0  0999 V2000     
   19.2278   19.7953   19.1517 C   0  0  0  0  0  0  0  0  0  0  0  0
   19.2116   18.6979   19.1257 H   0  0  0  0  0  0  0  0  0  0  0  0
   18.6095   20.1613   18.3218 H   0  0  0  0  0  0  0  0  0  0  0  0
   20.2595   20.1264   18.9750 H   0  0  0  0  0  0  0  0  0  0  0  0
   18.6986   20.3261   20.5008 C   0  0  0  0  0  0  0  0  0  0  0  0
   17.6554   20.0068   20.6345 H   0  0  0  0  0  0  0  0  0  0  0  0
   18.6942   21.4250   20.4833 H   0  0  0  0  0  0  0  0  0  0  0  0
   19.5525   19.8260   21.6869 C   0  0  0  0  0  0  0  0  0  0  0  0
   19.5562   18.7284   21.6859 H   0  0  0  0  0  0  0  0  0  0  0  0
   20.5935   20.1498   21.5501 H   0  0  0  0  0  0  0  0  0  0  0  0
   19.0194   20.3541   23.0406 C   0  0  0  0  0  0  0  0  0  0  0  0
   17.9989   19.9826   23.2079 H   0  0  0  0  0  0  0  0  0  0  0  0
   18.9440   21.4492   22.9906 H   0  0  0  0  0  0  0  0  0  0  0  0
   19.9123   19.9809   24.2497 C   0  0  0  0  0  0  0  0  0  0  0  0
   20.9317   20.3555   24.0827 H   0  0  0  0  0  0  0  0  0  0  0  0
   19.5284   20.5118   25.1307 H   0  0  0  0  0  0  0  0  0  0  0  0
   19.9561   18.4586   24.5406 C   0  0  0  0  0  0  0  0  0  0  0  0
   20.3642   17.9340   23.6680 H   0  0  0  0  0  0  0  0  0  0  0  0
   18.9364   18.0787   24.6881 H   0  0  0  0  0  0  0  0  0  0  0  0
   20.8237   18.1053   25.7683 C   0  0  2  0  0  0  0  0  0  0  0  0
   21.8227   18.5249   25.6145 H   0  0  0  0  0  0  0  0  0  0  0  0
   20.9571   16.5803   25.9071 C   0  0  0  0  0  0  0  0  0  0  0  0
   21.4059   16.1443   25.0059 H   0  0  0  0  0  0  0  0  0  0  0  0
   21.6011   16.3226   26.7570 H   0  0  0  0  0  0  0  0  0  0  0  0
   19.9788   16.1089   26.0640 H   0  0  0  0  0  0  0  0  0  0  0  0
   20.2931   18.7040   27.0423 N   0  3  0  0  0  0  0  0  0  0  0  0
   20.8907   18.4734   27.8412 H   0  0  0  0  0  0  0  0  0  0  0  0
   19.3527   18.3592   27.2530 H   0  0  0  0  0  0  0  0  0  0  0  0
   20.2417   19.7246   26.9830 H   0  0  0  0  0  0  0  0  0  0  0  0
  1  2  1  0  0  0  0
  1  3  1  0  0  0  0
  1  4  1  0  0  0  0
  1  5  1  0  0  0  0
  5  6  1  0  0  0  0
  5  7  1  0  0  0  0
  5  8  1  0  0  0  0
  8  9  1  0  0  0  0
  8 10  1  0  0  0  0
  8 11  1  0  0  0  0
 11 12  1  0  0  0  0
 11 13  1  0  0  0  0
 11 14  1  0  0  0  0
 14 15  1  0  0  0  0
 14 16  1  0  0  0  0
 14 17  1  0  0  0  0
 17 18  1  0  0  0  0
 17 19  1  0  0  0  0
 17 20  1  0  0  0  0
 20 21  1  0  0  0  0
 20 22  1  0  0  0  0
 22 23  1  0  0  0  0
 22 24  1  0  0  0  0
 22 25  1  0  0  0  0
 20 26  1  0  0  0  0
 26 27  1  0  0  0  0
 26 28  1  0  0  0  0
 26 29  1  0  0  0  0
M  END
> <VConfSearch Rank>
647

> <Conf_Id>
111

> <Delta U+W>
0.580

> <U+W>
-27.246

> <U>
24.710

> <W>
-51.957

> <W(PB)>
-54.511

> <W(SA)>
2.555

> <Valence>
3.735

> <Coulomb>
19.760

> <VdW>
1.216

> <VdW6>
-8.624

> <VdW12>
9.840

> <Bond>
0.236

> <Angle>
1.168

> <Pdih>
2.330

> <Idih>
0.000

> <Tether>
0.000

$$$$
VeraChem MOL file


 29 28  0  0  0  0  0  0  0  0999 V2000     
   22.8581   17.0593   21.2646 C   0  0  0  0  0  0  0  0  0  0  0  0
   22.1728   16.8123   20.4432 H   0  0  0  0  0  0  0  0  0  0  0  0
   23.2038   18.0916   21.1230 H   0  0  0  0  0  0  0  0  0  0  0  0
   23.7306   16.3978   21.1860 H   0  0  0  0  0  0  0  0  0  0  0  0
   22.1667   16.8887   22.6338 C   0  0  0  0  0  0  0  0  0  0  0  0
   22.8852   17.1104   23.4354 H   0  0  0  0  0  0  0  0  0  0  0  0
   21.8635   15.8400   22.7606 H   0  0  0  0  0  0  0  0  0  0  0  0
   20.9335   17.8089   22.7703 C   0  0  0  0  0  0  0  0  0  0  0  0
   21.2480   18.8517   22.6329 H   0  0  0  0  0  0  0  0  0  0  0  0
   20.2175   17.5824   21.9683 H   0  0  0  0  0  0  0  0  0  0  0  0
   20.2417   17.6417   24.1445 C   0  0  0  0  0  0  0  0  0  0  0  0
   20.9398   17.9177   24.9469 H   0  0  0  0  0  0  0  0  0  0  0  0
   20.0006   16.5807   24.2973 H   0  0  0  0  0  0  0  0  0  0  0  0
   18.9384   18.4660   24.2837 C   0  0  0  0  0  0  0  0  0  0  0  0
   18.2358   18.1603   23.4972 H   0  0  0  0  0  0  0  0  0  0  0  0
   18.4644   18.2097   25.2413 H   0  0  0  0  0  0  0  0  0  0  0  0
   19.1699   19.9981   24.2290 C   0  0  0  0  0  0  0  0  0  0  0  0
   19.5133   20.2921   23.2291 H   0  0  0  0  0  0  0  0  0  0  0  0
   19.9778   20.2553   24.9265 H   0  0  0  0  0  0  0  0  0  0  0  0
   17.9190   20.8259   24.6015 C   0  0  2  0  0  0  0  0  0  0  0  0
   17.5693   20.4959   25.5846 H   0  0  0  0  0  0  0  0  0  0  0  0
   16.7760   20.6350   23.5885 C   0  0  0  0  0  0  0  0  0  0  0  0
   17.0977   20.8977   22.5731 H   0  0  0  0  0  0  0  0  0  0  0  0
   16.4208   19.5980   23.5792 H   0  0  0  0  0  0  0  0  0  0  0  0
   15.9193   21.2689   23.8486 H   0  0  0  0  0  0  0  0  0  0  0  0
   18.2547   22.2849   24.7387 N   0  3  0  0  0  0  0  0  0  0  0  0
   18.9844   22.4396   25.4405 H   0  0  0  0  0  0  0  0  0  0  0  0
   17.4371   22.8314   25.0243 H   0  0  0  0  0  0  0  0  0  0  0  0
   18.5901   22.6764   23.8544 H   0  0  0  0  0  0  0  0  0  0  0  0
  1  2  1  0  0  0  0
  1  3  1  0  0  0  0
  1  4  1  0  0  0  0
  1  5  1  0  0  0  0
  5  6  1  0  0  0  0
  5  7  1  0  0  0  0
  5  8  1  0  0  0  0
  8  9  1  0  0  0  0
  8 10  1  0  0  0  0
  8 11  1  0  0  0  0
 11 12  1  0  0  0  0
 11 13  1  0  0  0  0
 11 14  1  0  0  0  0
 14 15  1  0  0  0  0
 14 16  1  0  0  0  0
 14 17  1  0  0  0  0
 17 18  1  0  0  0  0
 17 19  1  0  0  0  0
 17 20  1  0  0  0  0
 20 21  1  0  0  0  0
 20 22  1  0  0  0  0
 22 23  1  0  0  0  0
 22 24  1  0  0  0  0
 22 25  1  0  0  0  0
 20 26  1  0  0  0  0
 26 27  1  0  0  0  0
 26 28  1  0  0  0  0
 26 29  1  0  0  0  0
M  END
> <VConfSearch Rank>
648

> <Conf_Id>
39

> <Delta U+W>
0.965

> <U+W>
-26.861

> <U>
25.129

> <W>
-51.990

> <W(PB)>
-54.526

> <W(SA)>
2.536

> <Valence>
4.206

> <Coulomb>
19.678

> <VdW>
1.245

> <VdW6>
-8.834

> <VdW12>
10.079

> <Bond>
0.240

> <Angle>
1.353

> <Pdih>
2.613

> <Idih>
0.000

> <Tether>
0.000

$$$$
VeraChem MOL file


 29 28  0  0  0  0  0  0  0  0999 V2000     
   23.1987   19.6469   25.9320 C   0  0  0  0  0  0  0  0  0  0  0  0
   23.2560   20.7006   25.6294 H   0  0  0  0  0  0  0  0  0  0  0  0
   22.3986   19.5450   26.6754 H   0  0  0  0  0  0  0  0  0  0  0  0
   24.1433   19.3885   26.4280 H   0  0  0  0  0  0  0  0  0  0  0  0
   22.9615   18.7299   24.7107 C   0  0  0  0  0  0  0  0  0  0  0  0
   22.8727   17.6861   25.0429 H   0  0  0  0  0  0  0  0  0  0  0  0
   23.8475   18.7715   24.0618 H   0  0  0  0  0  0  0  0  0  0  0  0
   21.7181   19.1214   23.8759 C   0  0  0  0  0  0  0  0  0  0  0  0
   21.8121   20.1650   23.5457 H   0  0  0  0  0  0  0  0  0  0  0  0
   21.7146   18.5072   22.9665 H   0  0  0  0  0  0  0  0  0  0  0  0
   20.3805   18.9311   24.6356 C   0  0  0  0  0  0  0  0  0  0  0  0
   20.3903   19.5400   25.5487 H   0  0  0  0  0  0  0  0  0  0  0  0
   20.2844   17.8865   24.9620 H   0  0  0  0  0  0  0  0  0  0  0  0
   19.1353   19.3334   23.8074 C   0  0  0  0  0  0  0  0  0  0  0  0
   18.2604   19.2973   24.4696 H   0  0  0  0  0  0  0  0  0  0  0  0
   19.2396   20.3788   23.4881 H   0  0  0  0  0  0  0  0  0  0  0  0
   18.8900   18.4193   22.5758 C   0  0  0  0  0  0  0  0  0  0  0  0
   18.9020   17.3694   22.8964 H   0  0  0  0  0  0  0  0  0  0  0  0
   19.7162   18.5289   21.8626 H   0  0  0  0  0  0  0  0  0  0  0  0
   17.5649   18.6864   21.8234 C   0  0  2  0  0  0  0  0  0  0  0  0
   17.5142   17.9763   20.9922 H   0  0  0  0  0  0  0  0  0  0  0  0
   17.5146   20.1045   21.2286 C   0  0  0  0  0  0  0  0  0  0  0  0
   17.4688   20.8708   22.0115 H   0  0  0  0  0  0  0  0  0  0  0  0
   18.3985   20.2985   20.6083 H   0  0  0  0  0  0  0  0  0  0  0  0
   16.6291   20.2223   20.5920 H   0  0  0  0  0  0  0  0  0  0  0  0
   16.3552   18.4162   22.6751 N   0  3  0  0  0  0  0  0  0  0  0  0
   16.3594   17.4596   23.0405 H   0  0  0  0  0  0  0  0  0  0  0  0
   15.4886   18.5369   22.1430 H   0  0  0  0  0  0  0  0  0  0  0  0
   16.3149   19.0519   23.4756 H   0  0  0  0  0  0  0  0  0  0  0  0
  1  2  1  0  0  0  0
  1  3  1  0  0  0  0
  1  4  1  0  0  0  0
  1  5  1  0  0  0  0
  5  6  1  0  0  0  0
  5  7  1  0  0  0  0
  5  8  1  0  0  0  0
  8  9  1  0  0  0  0
  8 10  1  0  0  0  0
  8 11  1  0  0  0  0
 11 12  1  0  0  0  0
 11 13  1  0  0  0  0
 11 14  1  0  0  0  0
 14 15  1  0  0  0  0
 14 16  1  0  0  0  0
 14 17  1  0  0  0  0
 17 18  1  0  0  0  0
 17 19  1  0  0  0  0
 17 20  1  0  0  0  0
 20 21  1  0  0  0  0
 20 22  1  0  0  0  0
 22 23  1  0  0  0  0
 22 24  1  0  0  0  0
 22 25  1  0  0  0  0
 20 26  1  0  0  0  0
 26 27  1  0  0  0  0
 26 28  1  0  0  0  0
 26 29  1  0  0  0  0
M  END
> <VConfSearch Rank>
649

> <Conf_Id>
155

> <Delta U+W>
1.624

> <U+W>
-26.202

> <U>
25.894

> <W>
-52.096

> <W(PB)>
-54.602

> <W(SA)>
2.506

> <Valence>
4.779

> <Coulomb>
19.659

> <VdW>
1.456

> <VdW6>
-9.843

> <VdW12>
11.299

> <Bond>
0.315

> <Angle>
1.725

> <Pdih>
2.740

> <Idih>
0.000

> <Tether>
0.000

$$$$
VeraChem MOL file


 29 28  0  0  0  0  0  0  0  0999 V2000     
   23.6477   19.1651   22.4208 C   0  0  0  0  0  0  0  0  0  0  0  0
   23.5082   20.1096   22.9612 H   0  0  0  0  0  0  0  0  0  0  0  0
   23.6571   18.3475   23.1533 H   0  0  0  0  0  0  0  0  0  0  0  0
   24.6358   19.2002   21.9439 H   0  0  0  0  0  0  0  0  0  0  0  0
   22.5432   18.9494   21.3617 C   0  0  0  0  0  0  0  0  0  0  0  0
   22.7878   18.0558   20.7707 H   0  0  0  0  0  0  0  0  0  0  0  0
   22.5378   19.7923   20.6566 H   0  0  0  0  0  0  0  0  0  0  0  0
   21.1333   18.7699   21.9743 C   0  0  0  0  0  0  0  0  0  0  0  0
   20.4304   18.5238   21.1666 H   0  0  0  0  0  0  0  0  0  0  0  0
   21.1457   17.9058   22.6511 H   0  0  0  0  0  0  0  0  0  0  0  0
   20.6260   20.0286   22.7228 C   0  0  0  0  0  0  0  0  0  0  0  0
   20.7503   20.9043   22.0712 H   0  0  0  0  0  0  0  0  0  0  0  0
   21.2440   20.2135   23.6114 H   0  0  0  0  0  0  0  0  0  0  0  0
   19.1388   19.9414   23.1462 C   0  0  0  0  0  0  0  0  0  0  0  0
   18.8436   20.9228   23.5388 H   0  0  0  0  0  0  0  0  0  0  0  0
   18.5140   19.7612   22.2604 H   0  0  0  0  0  0  0  0  0  0  0  0
   18.8627   18.8495   24.2125 C   0  0  0  0  0  0  0  0  0  0  0  0
   19.4783   19.0363   25.1024 H   0  0  0  0  0  0  0  0  0  0  0  0
   19.1752   17.8760   23.8158 H   0  0  0  0  0  0  0  0  0  0  0  0
   17.3758   18.7413   24.6223 C   0  0  2  0  0  0  0  0  0  0  0  0
   16.7776   18.6163   23.7145 H   0  0  0  0  0  0  0  0  0  0  0  0
   16.8821   19.9969   25.3635 C   0  0  0  0  0  0  0  0  0  0  0  0
   17.4976   20.2034   26.2480 H   0  0  0  0  0  0  0  0  0  0  0  0
   16.9051   20.8797   24.7146 H   0  0  0  0  0  0  0  0  0  0  0  0
   15.8445   19.8667   25.6946 H   0  0  0  0  0  0  0  0  0  0  0  0
   17.1335   17.5170   25.4609 N   0  3  0  0  0  0  0  0  0  0  0  0
   17.4126   16.6624   24.9704 H   0  0  0  0  0  0  0  0  0  0  0  0
   16.1431   17.4196   25.7027 H   0  0  0  0  0  0  0  0  0  0  0  0
   17.6597   17.5545   26.3381 H   0  0  0  0  0  0  0  0  0  0  0  0
  1  2  1  0  0  0  0
  1  3  1  0  0  0  0
  1  4  1  0  0  0  0
  1  5  1  0  0  0  0
  5  6  1  0  0  0  0
  5  7  1  0  0  0  0
  5  8  1  0  0  0  0
  8  9  1  0  0  0  0
  8 10  1  0  0  0  0
  8 11  1  0  0  0  0
 11 12  1  0  0  0  0
 11 13  1  0  0  0  0
 11 14  1  0  0  0  0
 14 15  1  0  0  0  0
 14 16  1  0  0  0  0
 14 17  1  0  0  0  0
 17 18  1  0  0  0  0
 17 19  1  0  0  0  0
 17 20  1  0  0  0  0
 20 21  1  0  0  0  0
 20 22  1  0  0  0  0
 22 23  1  0  0  0  0
 22 24  1  0  0  0  0
 22 25  1  0  0  0  0
 20 26  1  0  0  0  0
 26 27  1  0  0  0  0
 26 28  1  0  0  0  0
 26 29  1  0  0  0  0
M  END
> <VConfSearch Rank>
650

> <Conf_Id>
135

> <Delta U+W>
1.581

> <U+W>
-26.245

> <U>
25.974

> <W>
-52.219

> <W(PB)>
-54.709

> <W(SA)>
2.490

> <Valence>
4.811

> <Coulomb>
19.700

> <VdW>
1.463

> <VdW6>
-9.391

> <VdW12>
10.854

> <Bond>
0.285

> <Angle>
1.671

> <Pdih>
2.855

> <Idih>
0.000

> <Tether>
0.000

$$$$
VeraChem MOL file


 29 28  0  0  0  0  0  0  0  0999 V2000     
   23.4446   19.2926   21.8380 C   0  0  0  0  0  0  0  0  0  0  0  0
   22.8962   20.0064   21.2097 H   0  0  0  0  0  0  0  0  0  0  0  0
   23.6333   19.7643   22.8104 H   0  0  0  0  0  0  0  0  0  0  0  0
   24.4183   19.1083   21.3659 H   0  0  0  0  0  0  0  0  0  0  0  0
   22.6593   17.9705   21.9921 C   0  0  0  0  0  0  0  0  0  0  0  0
   23.2157   17.2842   22.6456 H   0  0  0  0  0  0  0  0  0  0  0  0
   22.5969   17.4786   21.0114 H   0  0  0  0  0  0  0  0  0  0  0  0
   21.2259   18.1693   22.5407 C   0  0  0  0  0  0  0  0  0  0  0  0
   20.6716   18.8327   21.8638 H   0  0  0  0  0  0  0  0  0  0  0  0
   20.7072   17.2009   22.5217 H   0  0  0  0  0  0  0  0  0  0  0  0
   21.1939   18.7332   23.9836 C   0  0  0  0  0  0  0  0  0  0  0  0
   21.6023   19.7523   23.9987 H   0  0  0  0  0  0  0  0  0  0  0  0
   21.8517   18.1261   24.6206 H   0  0  0  0  0  0  0  0  0  0  0  0
   19.7769   18.7431   24.6074 C   0  0  0  0  0  0  0  0  0  0  0  0
   19.3875   17.7167   24.6281 H   0  0  0  0  0  0  0  0  0  0  0  0
   19.8585   19.0663   25.6544 H   0  0  0  0  0  0  0  0  0  0  0  0
   18.7863   19.6770   23.8655 C   0  0  0  0  0  0  0  0  0  0  0  0
   18.5882   19.2914   22.8573 H   0  0  0  0  0  0  0  0  0  0  0  0
   19.2600   20.6592   23.7381 H   0  0  0  0  0  0  0  0  0  0  0  0
   17.4456   19.8722   24.6093 C   0  0  2  0  0  0  0  0  0  0  0  0
   17.6633   20.2222   25.6231 H   0  0  0  0  0  0  0  0  0  0  0  0
   16.6423   18.5630   24.7077 C   0  0  0  0  0  0  0  0  0  0  0  0
   16.4497   18.1400   23.7138 H   0  0  0  0  0  0  0  0  0  0  0  0
   17.1748   17.8126   25.3035 H   0  0  0  0  0  0  0  0  0  0  0  0
   15.6758   18.7385   25.1958 H   0  0  0  0  0  0  0  0  0  0  0  0
   16.6158   20.9445   23.9597 N   0  3  0  0  0  0  0  0  0  0  0  0
   15.7440   21.1047   24.4726 H   0  0  0  0  0  0  0  0  0  0  0  0
   16.3637   20.6926   23.0001 H   0  0  0  0  0  0  0  0  0  0  0  0
   17.1156   21.8376   23.9225 H   0  0  0  0  0  0  0  0  0  0  0  0
  1  2  1  0  0  0  0
  1  3  1  0  0  0  0
  1  4  1  0  0  0  0
  1  5  1  0  0  0  0
  5  6  1  0  0  0  0
  5  7  1  0  0  0  0
  5  8  1  0  0  0  0
  8  9  1  0  0  0  0
  8 10  1  0  0  0  0
  8 11  1  0  0  0  0
 11 12  1  0  0  0  0
 11 13  1  0  0  0  0
 11 14  1  0  0  0  0
 14 15  1  0  0  0  0
 14 16  1  0  0  0  0
 14 17  1  0  0  0  0
 17 18  1  0  0  0  0
 17 19  1  0  0  0  0
 17 20  1  0  0  0  0
 20 21  1  0  0  0  0
 20 22  1  0  0  0  0
 22 23  1  0  0  0  0
 22 24  1  0  0  0  0
 22 25  1  0  0  0  0
 20 26  1  0  0  0  0
 26 27  1  0  0  0  0
 26 28  1  0  0  0  0
 26 29  1  0  0  0  0
M  END
> <VConfSearch Rank>
651

> <Conf_Id>
130

> <Delta U+W>
1.359

> <U+W>
-26.467

> <U>
25.687

> <W>
-52.154

> <W(PB)>
-54.643

> <W(SA)>
2.489

> <Valence>
4.682

> <Coulomb>
19.653

> <VdW>
1.352

> <VdW6>
-9.477

> <VdW12>
10.829

> <Bond>
0.274

> <Angle>
1.550

> <Pdih>
2.858

> <Idih>
0.000

> <Tether>
0.000

$$$$
VeraChem MOL file


 29 28  0  0  0  0  0  0  0  0999 V2000     
   16.8992   20.7314   25.8561 C   0  0  0  0  0  0  0  0  0  0  0  0
   15.8696   21.1110   25.8829 H   0  0  0  0  0  0  0  0  0  0  0  0
   17.1872   20.4695   26.8825 H   0  0  0  0  0  0  0  0  0  0  0  0
   17.5436   21.5515   25.5161 H   0  0  0  0  0  0  0  0  0  0  0  0
   16.9989   19.5051   24.9208 C   0  0  0  0  0  0  0  0  0  0  0  0
   16.7383   19.8005   23.8949 H   0  0  0  0  0  0  0  0  0  0  0  0
   16.2470   18.7647   25.2278 H   0  0  0  0  0  0  0  0  0  0  0  0
   18.3922   18.8310   24.9332 C   0  0  0  0  0  0  0  0  0  0  0  0
   18.6390   18.5217   25.9581 H   0  0  0  0  0  0  0  0  0  0  0  0
   18.3307   17.9090   24.3416 H   0  0  0  0  0  0  0  0  0  0  0  0
   19.5197   19.7381   24.3772 C   0  0  0  0  0  0  0  0  0  0  0  0
   19.6153   20.6239   25.0184 H   0  0  0  0  0  0  0  0  0  0  0  0
   19.2401   20.1066   23.3829 H   0  0  0  0  0  0  0  0  0  0  0  0
   20.8998   19.0321   24.3269 C   0  0  0  0  0  0  0  0  0  0  0  0
   21.6934   19.7839   24.2165 H   0  0  0  0  0  0  0  0  0  0  0  0
   21.0810   18.5576   25.3013 H   0  0  0  0  0  0  0  0  0  0  0  0
   21.0437   17.9623   23.2091 C   0  0  0  0  0  0  0  0  0  0  0  0
   20.0698   17.5280   22.9534 H   0  0  0  0  0  0  0  0  0  0  0  0
   21.6422   17.1355   23.6136 H   0  0  0  0  0  0  0  0  0  0  0  0
   21.7475   18.4624   21.9249 C   0  0  2  0  0  0  0  0  0  0  0  0
   22.7309   18.8523   22.2051 H   0  0  0  0  0  0  0  0  0  0  0  0
   20.9685   19.5853   21.2194 C   0  0  0  0  0  0  0  0  0  0  0  0
   20.9325   20.4886   21.8392 H   0  0  0  0  0  0  0  0  0  0  0  0
   21.4557   19.8607   20.2759 H   0  0  0  0  0  0  0  0  0  0  0  0
   19.9404   19.2753   20.9945 H   0  0  0  0  0  0  0  0  0  0  0  0
   21.9998   17.3276   20.9715 N   0  3  0  0  0  0  0  0  0  0  0  0
   22.5586   16.5873   21.4057 H   0  0  0  0  0  0  0  0  0  0  0  0
   22.5068   17.6438   20.1399 H   0  0  0  0  0  0  0  0  0  0  0  0
   21.1235   16.9054   20.6528 H   0  0  0  0  0  0  0  0  0  0  0  0
  1  2  1  0  0  0  0
  1  3  1  0  0  0  0
  1  4  1  0  0  0  0
  1  5  1  0  0  0  0
  5  6  1  0  0  0  0
  5  7  1  0  0  0  0
  5  8  1  0  0  0  0
  8  9  1  0  0  0  0
  8 10  1  0  0  0  0
  8 11  1  0  0  0  0
 11 12  1  0  0  0  0
 11 13  1  0  0  0  0
 11 14  1  0  0  0  0
 14 15  1  0  0  0  0
 14 16  1  0  0  0  0
 14 17  1  0  0  0  0
 17 18  1  0  0  0  0
 17 19  1  0  0  0  0
 17 20  1  0  0  0  0
 20 21  1  0  0  0  0
 20 22  1  0  0  0  0
 22 23  1  0  0  0  0
 22 24  1  0  0  0  0
 22 25  1  0  0  0  0
 20 26  1  0  0  0  0
 26 27  1  0  0  0  0
 26 28  1  0  0  0  0
 26 29  1  0  0  0  0
M  END
> <VConfSearch Rank>
652

> <Conf_Id>
157

> <Delta U+W>
4.354

> <U+W>
-23.472

> <U>
28.780

> <W>
-52.252

> <W(PB)>
-54.715

> <W(SA)>
2.462

> <Valence>
7.566

> <Coulomb>
19.822

> <VdW>
1.392

> <VdW6>
-10.248

> <VdW12>
11.641

> <Bond>
0.340

> <Angle>
2.096

> <Pdih>
5.129

> <Idih>
0.000

> <Tether>
0.000

$$$$
VeraChem MOL file


 29 28  0  0  0  0  0  0  0  0999 V2000     
   22.3023   16.4593   23.5861 C   0  0  0  0  0  0  0  0  0  0  0  0
   23.2491   16.1601   24.0540 H   0  0  0  0  0  0  0  0  0  0  0  0
   21.5958   16.6976   24.3888 H   0  0  0  0  0  0  0  0  0  0  0  0
   21.9118   15.5907   23.0401 H   0  0  0  0  0  0  0  0  0  0  0  0
   22.5248   17.6556   22.6318 C   0  0  0  0  0  0  0  0  0  0  0  0
   23.2539   17.3488   21.8688 H   0  0  0  0  0  0  0  0  0  0  0  0
   22.9870   18.4942   23.1710 H   0  0  0  0  0  0  0  0  0  0  0  0
   21.2294   18.1213   21.9185 C   0  0  0  0  0  0  0  0  0  0  0  0
   21.4936   18.4280   20.8970 H   0  0  0  0  0  0  0  0  0  0  0  0
   20.5350   17.2777   21.8028 H   0  0  0  0  0  0  0  0  0  0  0  0
   20.5076   19.3172   22.5915 C   0  0  0  0  0  0  0  0  0  0  0  0
   19.6574   19.5953   21.9554 H   0  0  0  0  0  0  0  0  0  0  0  0
   21.1784   20.1873   22.6028 H   0  0  0  0  0  0  0  0  0  0  0  0
   20.0112   19.0332   24.0306 C   0  0  0  0  0  0  0  0  0  0  0  0
   19.4084   18.1157   24.0442 H   0  0  0  0  0  0  0  0  0  0  0  0
   20.8768   18.8447   24.6784 H   0  0  0  0  0  0  0  0  0  0  0  0
   19.2078   20.2083   24.6452 C   0  0  0  0  0  0  0  0  0  0  0  0
   19.8577   21.0920   24.6965 H   0  0  0  0  0  0  0  0  0  0  0  0
   18.9489   19.9582   25.6827 H   0  0  0  0  0  0  0  0  0  0  0  0
   17.9196   20.5748   23.8743 C   0  0  2  0  0  0  0  0  0  0  0  0
   18.1948   20.8523   22.8527 H   0  0  0  0  0  0  0  0  0  0  0  0
   17.2310   21.7832   24.5281 C   0  0  0  0  0  0  0  0  0  0  0  0
   16.9255   21.5575   25.5575 H   0  0  0  0  0  0  0  0  0  0  0  0
   17.9048   22.6487   24.5536 H   0  0  0  0  0  0  0  0  0  0  0  0
   16.3372   22.0737   23.9623 H   0  0  0  0  0  0  0  0  0  0  0  0
   16.9665   19.4164   23.7662 N   0  3  0  0  0  0  0  0  0  0  0  0
   17.4045   18.6190   23.2968 H   0  0  0  0  0  0  0  0  0  0  0  0
   16.1301   19.6677   23.2316 H   0  0  0  0  0  0  0  0  0  0  0  0
   16.6579   19.1005   24.6895 H   0  0  0  0  0  0  0  0  0  0  0  0
  1  2  1  0  0  0  0
  1  3  1  0  0  0  0
  1  4  1  0  0  0  0
  1  5  1  0  0  0  0
  5  6  1  0  0  0  0
  5  7  1  0  0  0  0
  5  8  1  0  0  0  0
  8  9  1  0  0  0  0
  8 10  1  0  0  0  0
  8 11  1  0  0  0  0
 11 12  1  0  0  0  0
 11 13  1  0  0  0  0
 11 14  1  0  0  0  0
 14 15  1  0  0  0  0
 14 16  1  0  0  0  0
 14 17  1  0  0  0  0
 17 18  1  0  0  0  0
 17 19  1  0  0  0  0
 17 20  1  0  0  0  0
 20 21  1  0  0  0  0
 20 22  1  0  0  0  0
 22 23  1  0  0  0  0
 22 24  1  0  0  0  0
 22 25  1  0  0  0  0
 20 26  1  0  0  0  0
 26 27  1  0  0  0  0
 26 28  1  0  0  0  0
 26 29  1  0  0  0  0
M  END
> <VConfSearch Rank>
653

> <Conf_Id>
158

> <Delta U+W>
3.648

> <U+W>
-24.178

> <U>
28.057

> <W>
-52.235

> <W(PB)>
-54.696

> <W(SA)>
2.460

> <Valence>
6.543

> <Coulomb>
20.387

> <VdW>
1.127

> <VdW6>
-10.342

> <VdW12>
11.469

> <Bond>
0.308

> <Angle>
1.938

> <Pdih>
4.297

> <Idih>
0.000

> <Tether>
0.000

$$$$
VeraChem MOL file


 29 28  0  0  0  0  0  0  0  0999 V2000     
   19.6496   21.2766   26.4438 C   0  0  0  0  0  0  0  0  0  0  0  0
   20.5121   20.7424   26.8630 H   0  0  0  0  0  0  0  0  0  0  0  0
   19.9210   21.6379   25.4442 H   0  0  0  0  0  0  0  0  0  0  0  0
   19.4618   22.1566   27.0724 H   0  0  0  0  0  0  0  0  0  0  0  0
   18.4006   20.3673   26.3997 C   0  0  0  0  0  0  0  0  0  0  0  0
   17.5613   20.9136   25.9470 H   0  0  0  0  0  0  0  0  0  0  0  0
   18.0960   20.1345   27.4297 H   0  0  0  0  0  0  0  0  0  0  0  0
   18.6324   19.0396   25.6389 C   0  0  0  0  0  0  0  0  0  0  0  0
   19.4605   18.4893   26.1065 H   0  0  0  0  0  0  0  0  0  0  0  0
   17.7389   18.4107   25.7545 H   0  0  0  0  0  0  0  0  0  0  0  0
   18.9214   19.2352   24.1315 C   0  0  0  0  0  0  0  0  0  0  0  0
   19.8414   19.8163   24.0047 H   0  0  0  0  0  0  0  0  0  0  0  0
   18.1126   19.8254   23.6793 H   0  0  0  0  0  0  0  0  0  0  0  0
   19.0422   17.8801   23.3919 C   0  0  0  0  0  0  0  0  0  0  0  0
   19.7950   17.2431   23.8767 H   0  0  0  0  0  0  0  0  0  0  0  0
   18.0857   17.3488   23.4935 H   0  0  0  0  0  0  0  0  0  0  0  0
   19.3638   18.0292   21.8812 C   0  0  0  0  0  0  0  0  0  0  0  0
   18.9846   18.9881   21.5035 H   0  0  0  0  0  0  0  0  0  0  0  0
   18.8041   17.2535   21.3418 H   0  0  0  0  0  0  0  0  0  0  0  0
   20.8584   17.8635   21.5148 C   0  0  2  0  0  0  0  0  0  0  0  0
   21.1866   16.8790   21.8621 H   0  0  0  0  0  0  0  0  0  0  0  0
   21.7566   18.9264   22.1697 C   0  0  0  0  0  0  0  0  0  0  0  0
   21.4129   19.9403   21.9299 H   0  0  0  0  0  0  0  0  0  0  0  0
   21.7715   18.8109   23.2596 H   0  0  0  0  0  0  0  0  0  0  0  0
   22.7918   18.8262   21.8212 H   0  0  0  0  0  0  0  0  0  0  0  0
   21.0505   17.8696   20.0236 N   0  3  0  0  0  0  0  0  0  0  0  0
   20.4982   17.1366   19.5691 H   0  0  0  0  0  0  0  0  0  0  0  0
   22.0306   17.7124   19.7722 H   0  0  0  0  0  0  0  0  0  0  0  0
   20.7700   18.7649   19.6143 H   0  0  0  0  0  0  0  0  0  0  0  0
  1  2  1  0  0  0  0
  1  3  1  0  0  0  0
  1  4  1  0  0  0  0
  1  5  1  0  0  0  0
  5  6  1  0  0  0  0
  5  7  1  0  0  0  0
  5  8  1  0  0  0  0
  8  9  1  0  0  0  0
  8 10  1  0  0  0  0
  8 11  1  0  0  0  0
 11 12  1  0  0  0  0
 11 13  1  0  0  0  0
 11 14  1  0  0  0  0
 14 15  1  0  0  0  0
 14 16  1  0  0  0  0
 14 17  1  0  0  0  0
 17 18  1  0  0  0  0
 17 19  1  0  0  0  0
 17 20  1  0  0  0  0
 20 21  1  0  0  0  0
 20 22  1  0  0  0  0
 22 23  1  0  0  0  0
 22 24  1  0  0  0  0
 22 25  1  0  0  0  0
 20 26  1  0  0  0  0
 26 27  1  0  0  0  0
 26 28  1  0  0  0  0
 26 29  1  0  0  0  0
M  END
> <VConfSearch Rank>
654

> <Conf_Id>
156

> <Delta U+W>
3.393

> <U+W>
-24.433

> <U>
27.713

> <W>
-52.146

> <W(PB)>
-54.603

> <W(SA)>
2.458

> <Valence>
6.758

> <Coulomb>
19.720

> <VdW>
1.235

> <VdW6>
-9.782

> <VdW12>
11.017

> <Bond>
0.287

> <Angle>
1.880

> <Pdih>
4.591

> <Idih>
0.000

> <Tether>
0.000

$$$$
VeraChem MOL file


 29 28  0  0  0  0  0  0  0  0999 V2000     
   20.2145   15.6125   21.9823 C   0  0  0  0  0  0  0  0  0  0  0  0
   19.6895   15.2417   22.8722 H   0  0  0  0  0  0  0  0  0  0  0  0
   19.6980   15.2254   21.0943 H   0  0  0  0  0  0  0  0  0  0  0  0
   21.2294   15.1943   21.9907 H   0  0  0  0  0  0  0  0  0  0  0  0
   20.2610   17.1550   21.9690 C   0  0  0  0  0  0  0  0  0  0  0  0
   20.8167   17.4958   21.0844 H   0  0  0  0  0  0  0  0  0  0  0  0
   20.8182   17.5017   22.8493 H   0  0  0  0  0  0  0  0  0  0  0  0
   18.8410   17.7681   21.9615 C   0  0  0  0  0  0  0  0  0  0  0  0
   18.2764   17.3488   21.1173 H   0  0  0  0  0  0  0  0  0  0  0  0
   18.2991   17.4616   22.8658 H   0  0  0  0  0  0  0  0  0  0  0  0
   18.8311   19.3135   21.8331 C   0  0  0  0  0  0  0  0  0  0  0  0
   17.7883   19.6587   21.8117 H   0  0  0  0  0  0  0  0  0  0  0  0
   19.2581   19.5905   20.8593 H   0  0  0  0  0  0  0  0  0  0  0  0
   19.5921   20.0816   22.9449 C   0  0  0  0  0  0  0  0  0  0  0  0
   20.6604   19.8362   22.8970 H   0  0  0  0  0  0  0  0  0  0  0  0
   19.5172   21.1534   22.7212 H   0  0  0  0  0  0  0  0  0  0  0  0
   19.0412   19.8083   24.3711 C   0  0  0  0  0  0  0  0  0  0  0  0
   19.1429   18.7417   24.6056 H   0  0  0  0  0  0  0  0  0  0  0  0
   17.9646   20.0227   24.3920 H   0  0  0  0  0  0  0  0  0  0  0  0
   19.7313   20.6098   25.5000 C   0  0  2  0  0  0  0  0  0  0  0  0
   19.2879   20.2845   26.4462 H   0  0  0  0  0  0  0  0  0  0  0  0
   19.4878   22.1236   25.3711 C   0  0  0  0  0  0  0  0  0  0  0  0
   19.8643   22.6487   26.2575 H   0  0  0  0  0  0  0  0  0  0  0  0
   19.9940   22.5440   24.4942 H   0  0  0  0  0  0  0  0  0  0  0  0
   18.4157   22.3405   25.2869 H   0  0  0  0  0  0  0  0  0  0  0  0
   21.2008   20.3071   25.6026 N   0  3  0  0  0  0  0  0  0  0  0  0
   21.3693   19.3060   25.7369 H   0  0  0  0  0  0  0  0  0  0  0  0
   21.6294   20.7987   26.3922 H   0  0  0  0  0  0  0  0  0  0  0  0
   21.6981   20.5938   24.7558 H   0  0  0  0  0  0  0  0  0  0  0  0
  1  2  1  0  0  0  0
  1  3  1  0  0  0  0
  1  4  1  0  0  0  0
  1  5  1  0  0  0  0
  5  6  1  0  0  0  0
  5  7  1  0  0  0  0
  5  8  1  0  0  0  0
  8  9  1  0  0  0  0
  8 10  1  0  0  0  0
  8 11  1  0  0  0  0
 11 12  1  0  0  0  0
 11 13  1  0  0  0  0
 11 14  1  0  0  0  0
 14 15  1  0  0  0  0
 14 16  1  0  0  0  0
 14 17  1  0  0  0  0
 17 18  1  0  0  0  0
 17 19  1  0  0  0  0
 17 20  1  0  0  0  0
 20 21  1  0  0  0  0
 20 22  1  0  0  0  0
 22 23  1  0  0  0  0
 22 24  1  0  0  0  0
 22 25  1  0  0  0  0
 20 26  1  0  0  0  0
 26 27  1  0  0  0  0
 26 28  1  0  0  0  0
 26 29  1  0  0  0  0
M  END
> <VConfSearch Rank>
655

> <Conf_Id>
78

> <Delta U+W>
1.477

> <U+W>
-26.349

> <U>
26.385

> <W>
-52.734

> <W(PB)>
-55.179

> <W(SA)>
2.445

> <Valence>
4.726

> <Coulomb>
20.482

> <VdW>
1.177

> <VdW6>
-10.349

> <VdW12>
11.526

> <Bond>
0.319

> <Angle>
1.933

> <Pdih>
2.474

> <Idih>
0.000

> <Tether>
0.000

$$$$
VeraChem MOL file


 29 28  0  0  0  0  0  0  0  0999 V2000     
   22.0304   21.0217   25.7723 C   0  0  0  0  0  0  0  0  0  0  0  0
   22.5629   20.3304   26.4384 H   0  0  0  0  0  0  0  0  0  0  0  0
   22.2471   20.7277   24.7394 H   0  0  0  0  0  0  0  0  0  0  0  0
   22.4500   22.0239   25.9284 H   0  0  0  0  0  0  0  0  0  0  0  0
   20.5134   21.0176   26.0728 C   0  0  0  0  0  0  0  0  0  0  0  0
   19.9993   21.7680   25.4561 H   0  0  0  0  0  0  0  0  0  0  0  0
   20.3740   21.3366   27.1152 H   0  0  0  0  0  0  0  0  0  0  0  0
   19.8551   19.6259   25.8894 C   0  0  0  0  0  0  0  0  0  0  0  0
   20.5899   18.8304   26.0752 H   0  0  0  0  0  0  0  0  0  0  0  0
   19.0876   19.5061   26.6665 H   0  0  0  0  0  0  0  0  0  0  0  0
   19.1672   19.4050   24.5176 C   0  0  0  0  0  0  0  0  0  0  0  0
   18.3612   20.1410   24.3915 H   0  0  0  0  0  0  0  0  0  0  0  0
   18.6823   18.4206   24.5420 H   0  0  0  0  0  0  0  0  0  0  0  0
   20.1268   19.4809   23.3046 C   0  0  0  0  0  0  0  0  0  0  0  0
   20.5438   20.4938   23.2388 H   0  0  0  0  0  0  0  0  0  0  0  0
   20.9792   18.8064   23.4587 H   0  0  0  0  0  0  0  0  0  0  0  0
   19.4337   19.1670   21.9532 C   0  0  0  0  0  0  0  0  0  0  0  0
   20.1667   19.2811   21.1435 H   0  0  0  0  0  0  0  0  0  0  0  0
   18.6625   19.9278   21.7744 H   0  0  0  0  0  0  0  0  0  0  0  0
   18.7818   17.7674   21.8532 C   0  0  2  0  0  0  0  0  0  0  0  0
   18.0409   17.6724   22.6523 H   0  0  0  0  0  0  0  0  0  0  0  0
   19.8128   16.6354   22.0080 C   0  0  0  0  0  0  0  0  0  0  0  0
   19.3342   15.6565   21.8816 H   0  0  0  0  0  0  0  0  0  0  0  0
   20.6126   16.7225   21.2622 H   0  0  0  0  0  0  0  0  0  0  0  0
   20.2689   16.6470   23.0049 H   0  0  0  0  0  0  0  0  0  0  0  0
   18.0282   17.6129   20.5616 N   0  3  0  0  0  0  0  0  0  0  0  0
   18.6527   17.6841   19.7536 H   0  0  0  0  0  0  0  0  0  0  0  0
   17.3069   18.3324   20.4574 H   0  0  0  0  0  0  0  0  0  0  0  0
   17.5612   16.7032   20.5074 H   0  0  0  0  0  0  0  0  0  0  0  0
  1  2  1  0  0  0  0
  1  3  1  0  0  0  0
  1  4  1  0  0  0  0
  1  5  1  0  0  0  0
  5  6  1  0  0  0  0
  5  7  1  0  0  0  0
  5  8  1  0  0  0  0
  8  9  1  0  0  0  0
  8 10  1  0  0  0  0
  8 11  1  0  0  0  0
 11 12  1  0  0  0  0
 11 13  1  0  0  0  0
 11 14  1  0  0  0  0
 14 15  1  0  0  0  0
 14 16  1  0  0  0  0
 14 17  1  0  0  0  0
 17 18  1  0  0  0  0
 17 19  1  0  0  0  0
 17 20  1  0  0  0  0
 20 21  1  0  0  0  0
 20 22  1  0  0  0  0
 22 23  1  0  0  0  0
 22 24  1  0  0  0  0
 22 25  1  0  0  0  0
 20 26  1  0  0  0  0
 26 27  1  0  0  0  0
 26 28  1  0  0  0  0
 26 29  1  0  0  0  0
M  END
> <VConfSearch Rank>
656

> <Conf_Id>
145

> <Delta U+W>
3.784

> <U+W>
-24.042

> <U>
28.220

> <W>
-52.262

> <W(PB)>
-54.724

> <W(SA)>
2.462

> <Valence>
7.040

> <Coulomb>
19.984

> <VdW>
1.197

> <VdW6>
-10.566

> <VdW12>
11.763

> <Bond>
0.320

> <Angle>
2.280

> <Pdih>
4.439

> <Idih>
0.000

> <Tether>
0.000

$$$$
VeraChem MOL file


 29 28  0  0  0  0  0  0  0  0999 V2000     
   17.7643   21.5982   21.1779 C   0  0  0  0  0  0  0  0  0  0  0  0
   16.7176   21.8865   21.3409 H   0  0  0  0  0  0  0  0  0  0  0  0
   18.4040   22.3290   21.6896 H   0  0  0  0  0  0  0  0  0  0  0  0
   17.9689   21.6664   20.1015 H   0  0  0  0  0  0  0  0  0  0  0  0
   18.0331   20.1690   21.6943 C   0  0  0  0  0  0  0  0  0  0  0  0
   19.0732   19.8979   21.4768 H   0  0  0  0  0  0  0  0  0  0  0  0
   17.4036   19.4595   21.1393 H   0  0  0  0  0  0  0  0  0  0  0  0
   17.7397   20.0456   23.2089 C   0  0  0  0  0  0  0  0  0  0  0  0
   18.3108   20.7957   23.7730 H   0  0  0  0  0  0  0  0  0  0  0  0
   16.6802   20.2872   23.3716 H   0  0  0  0  0  0  0  0  0  0  0  0
   18.0130   18.6282   23.7763 C   0  0  0  0  0  0  0  0  0  0  0  0
   17.8857   17.8712   22.9902 H   0  0  0  0  0  0  0  0  0  0  0  0
   17.2418   18.4063   24.5269 H   0  0  0  0  0  0  0  0  0  0  0  0
   19.3933   18.4578   24.4619 C   0  0  0  0  0  0  0  0  0  0  0  0
   19.4571   19.1491   25.3128 H   0  0  0  0  0  0  0  0  0  0  0  0
   19.4333   17.4457   24.8840 H   0  0  0  0  0  0  0  0  0  0  0  0
   20.6034   18.6770   23.5151 C   0  0  0  0  0  0  0  0  0  0  0  0
   20.6061   19.7173   23.1679 H   0  0  0  0  0  0  0  0  0  0  0  0
   20.4852   18.0522   22.6201 H   0  0  0  0  0  0  0  0  0  0  0  0
   21.9857   18.3877   24.1467 C   0  0  2  0  0  0  0  0  0  0  0  0
   22.7436   18.6531   23.4031 H   0  0  0  0  0  0  0  0  0  0  0  0
   22.1711   16.8976   24.4834 C   0  0  0  0  0  0  0  0  0  0  0  0
   23.2049   16.7011   24.7926 H   0  0  0  0  0  0  0  0  0  0  0  0
   21.5125   16.5793   25.2999 H   0  0  0  0  0  0  0  0  0  0  0  0
   21.9615   16.2708   23.6077 H   0  0  0  0  0  0  0  0  0  0  0  0
   22.2601   19.2501   25.3477 N   0  3  0  0  0  0  0  0  0  0  0  0
   21.5971   19.0559   26.1022 H   0  0  0  0  0  0  0  0  0  0  0  0
   22.1861   20.2457   25.1198 H   0  0  0  0  0  0  0  0  0  0  0  0
   23.2018   19.0892   25.7166 H   0  0  0  0  0  0  0  0  0  0  0  0
  1  2  1  0  0  0  0
  1  3  1  0  0  0  0
  1  4  1  0  0  0  0
  1  5  1  0  0  0  0
  5  6  1  0  0  0  0
  5  7  1  0  0  0  0
  5  8  1  0  0  0  0
  8  9  1  0  0  0  0
  8 10  1  0  0  0  0
  8 11  1  0  0  0  0
 11 12  1  0  0  0  0
 11 13  1  0  0  0  0
 11 14  1  0  0  0  0
 14 15  1  0  0  0  0
 14 16  1  0  0  0  0
 14 17  1  0  0  0  0
 17 18  1  0  0  0  0
 17 19  1  0  0  0  0
 17 20  1  0  0  0  0
 20 21  1  0  0  0  0
 20 22  1  0  0  0  0
 22 23  1  0  0  0  0
 22 24  1  0  0  0  0
 22 25  1  0  0  0  0
 20 26  1  0  0  0  0
 26 27  1  0  0  0  0
 26 28  1  0  0  0  0
 26 29  1  0  0  0  0
M  END
> <VConfSearch Rank>
657

> <Conf_Id>
71

> <Delta U+W>
3.542

> <U+W>
-24.284

> <U>
28.217

> <W>
-52.501

> <W(PB)>
-54.947

> <W(SA)>
2.446

> <Valence>
6.821

> <Coulomb>
20.147

> <VdW>
1.249

> <VdW6>
-10.237

> <VdW12>
11.486

> <Bond>
0.317

> <Angle>
1.990

> <Pdih>
4.515

> <Idih>
0.000

> <Tether>
0.000

$$$$
VeraChem MOL file


 29 28  0  0  0  0  0  0  0  0999 V2000     
   18.7126   17.3649   20.1677 C   0  0  0  0  0  0  0  0  0  0  0  0
   18.7163   18.4061   19.8197 H   0  0  0  0  0  0  0  0  0  0  0  0
   19.3794   16.7844   19.5169 H   0  0  0  0  0  0  0  0  0  0  0  0
   17.6951   16.9719   20.0441 H   0  0  0  0  0  0  0  0  0  0  0  0
   19.1573   17.2719   21.6425 C   0  0  0  0  0  0  0  0  0  0  0  0
   19.1099   16.2238   21.9693 H   0  0  0  0  0  0  0  0  0  0  0  0
   18.4461   17.8252   22.2673 H   0  0  0  0  0  0  0  0  0  0  0  0
   20.5948   17.8108   21.8392 C   0  0  0  0  0  0  0  0  0  0  0  0
   21.2726   17.2068   21.2201 H   0  0  0  0  0  0  0  0  0  0  0  0
   20.6743   18.8389   21.4600 H   0  0  0  0  0  0  0  0  0  0  0  0
   21.0843   17.7447   23.3095 C   0  0  0  0  0  0  0  0  0  0  0  0
   22.1551   17.4978   23.3017 H   0  0  0  0  0  0  0  0  0  0  0  0
   20.5944   16.9156   23.8383 H   0  0  0  0  0  0  0  0  0  0  0  0
   20.9163   19.0624   24.1091 C   0  0  0  0  0  0  0  0  0  0  0  0
   21.3703   18.9178   25.0981 H   0  0  0  0  0  0  0  0  0  0  0  0
   21.4975   19.8533   23.6166 H   0  0  0  0  0  0  0  0  0  0  0  0
   19.4429   19.5195   24.2766 C   0  0  0  0  0  0  0  0  0  0  0  0
   18.8408   18.6770   24.6407 H   0  0  0  0  0  0  0  0  0  0  0  0
   19.0333   19.7926   23.2962 H   0  0  0  0  0  0  0  0  0  0  0  0
   19.2394   20.7179   25.2333 C   0  0  2  0  0  0  0  0  0  0  0  0
   18.1669   20.9342   25.2600 H   0  0  0  0  0  0  0  0  0  0  0  0
   19.9578   21.9836   24.7343 C   0  0  0  0  0  0  0  0  0  0  0  0
   19.6675   22.2151   23.7019 H   0  0  0  0  0  0  0  0  0  0  0  0
   19.6910   22.8468   25.3563 H   0  0  0  0  0  0  0  0  0  0  0  0
   21.0480   21.8704   24.7679 H   0  0  0  0  0  0  0  0  0  0  0  0
   19.6338   20.3972   26.6488 N   0  3  0  0  0  0  0  0  0  0  0  0
   19.1277   19.5807   27.0037 H   0  0  0  0  0  0  0  0  0  0  0  0
   19.4337   21.1791   27.2791 H   0  0  0  0  0  0  0  0  0  0  0  0
   20.6340   20.1946   26.7190 H   0  0  0  0  0  0  0  0  0  0  0  0
  1  2  1  0  0  0  0
  1  3  1  0  0  0  0
  1  4  1  0  0  0  0
  1  5  1  0  0  0  0
  5  6  1  0  0  0  0
  5  7  1  0  0  0  0
  5  8  1  0  0  0  0
  8  9  1  0  0  0  0
  8 10  1  0  0  0  0
  8 11  1  0  0  0  0
 11 12  1  0  0  0  0
 11 13  1  0  0  0  0
 11 14  1  0  0  0  0
 14 15  1  0  0  0  0
 14 16  1  0  0  0  0
 14 17  1  0  0  0  0
 17 18  1  0  0  0  0
 17 19  1  0  0  0  0
 17 20  1  0  0  0  0
 20 21  1  0  0  0  0
 20 22  1  0  0  0  0
 22 23  1  0  0  0  0
 22 24  1  0  0  0  0
 22 25  1  0  0  0  0
 20 26  1  0  0  0  0
 26 27  1  0  0  0  0
 26 28  1  0  0  0  0
 26 29  1  0  0  0  0
M  END
> <VConfSearch Rank>
658

> <Conf_Id>
163

> <Delta U+W>
3.309

> <U+W>
-24.517

> <U>
27.916

> <W>
-52.433

> <W(PB)>
-54.866

> <W(SA)>
2.433

> <Valence>
6.693

> <Coulomb>
20.015

> <VdW>
1.208

> <VdW6>
-10.294

> <VdW12>
11.503

> <Bond>
0.312

> <Angle>
1.939

> <Pdih>
4.441

> <Idih>
0.000

> <Tether>
0.000

$$$$
VeraChem MOL file


 29 28  0  0  0  0  0  0  0  0999 V2000     
   19.5434   21.9194   20.6564 C   0  0  0  0  0  0  0  0  0  0  0  0
   18.4956   21.8538   20.3360 H   0  0  0  0  0  0  0  0  0  0  0  0
   19.5896   22.5432   21.5575 H   0  0  0  0  0  0  0  0  0  0  0  0
   20.1036   22.4384   19.8679 H   0  0  0  0  0  0  0  0  0  0  0  0
   20.1374   20.5144   20.9055 C   0  0  0  0  0  0  0  0  0  0  0  0
   21.1739   20.6079   21.2586 H   0  0  0  0  0  0  0  0  0  0  0  0
   20.1865   19.9779   19.9477 H   0  0  0  0  0  0  0  0  0  0  0  0
   19.3174   19.6654   21.9068 C   0  0  0  0  0  0  0  0  0  0  0  0
   18.2834   19.5713   21.5477 H   0  0  0  0  0  0  0  0  0  0  0  0
   19.7375   18.6514   21.9133 H   0  0  0  0  0  0  0  0  0  0  0  0
   19.3210   20.2370   23.3472 C   0  0  0  0  0  0  0  0  0  0  0  0
   18.9016   21.2513   23.3380 H   0  0  0  0  0  0  0  0  0  0  0  0
   20.3552   20.3400   23.7011 H   0  0  0  0  0  0  0  0  0  0  0  0
   18.4951   19.3910   24.3511 C   0  0  0  0  0  0  0  0  0  0  0  0
   18.5019   19.8941   25.3273 H   0  0  0  0  0  0  0  0  0  0  0  0
   17.4441   19.3823   24.0309 H   0  0  0  0  0  0  0  0  0  0  0  0
   18.9747   17.9252   24.5264 C   0  0  0  0  0  0  0  0  0  0  0  0
   18.7794   17.3684   23.6011 H   0  0  0  0  0  0  0  0  0  0  0  0
   18.3644   17.4413   25.3005 H   0  0  0  0  0  0  0  0  0  0  0  0
   20.4685   17.7895   24.8951 C   0  0  2  0  0  0  0  0  0  0  0  0
   21.0610   18.2733   24.1128 H   0  0  0  0  0  0  0  0  0  0  0  0
   20.8731   16.3084   24.9565 C   0  0  0  0  0  0  0  0  0  0  0  0
   21.9421   16.2070   25.1813 H   0  0  0  0  0  0  0  0  0  0  0  0
   20.3087   15.7743   25.7312 H   0  0  0  0  0  0  0  0  0  0  0  0
   20.6867   15.8135   23.9953 H   0  0  0  0  0  0  0  0  0  0  0  0
   20.8031   18.4851   26.1859 N   0  3  0  0  0  0  0  0  0  0  0  0
   20.5645   19.4796   26.1435 H   0  0  0  0  0  0  0  0  0  0  0  0
   21.8016   18.4157   26.4016 H   0  0  0  0  0  0  0  0  0  0  0  0
   20.2898   18.0778   26.9721 H   0  0  0  0  0  0  0  0  0  0  0  0
  1  2  1  0  0  0  0
  1  3  1  0  0  0  0
  1  4  1  0  0  0  0
  1  5  1  0  0  0  0
  5  6  1  0  0  0  0
  5  7  1  0  0  0  0
  5  8  1  0  0  0  0
  8  9  1  0  0  0  0
  8 10  1  0  0  0  0
  8 11  1  0  0  0  0
 11 12  1  0  0  0  0
 11 13  1  0  0  0  0
 11 14  1  0  0  0  0
 14 15  1  0  0  0  0
 14 16  1  0  0  0  0
 14 17  1  0  0  0  0
 17 18  1  0  0  0  0
 17 19  1  0  0  0  0
 17 20  1  0  0  0  0
 20 21  1  0  0  0  0
 20 22  1  0  0  0  0
 22 23  1  0  0  0  0
 22 24  1  0  0  0  0
 22 25  1  0  0  0  0
 20 26  1  0  0  0  0
 26 27  1  0  0  0  0
 26 28  1  0  0  0  0
 26 29  1  0  0  0  0
M  END
> <VConfSearch Rank>
659

> <Conf_Id>
173

> <Delta U+W>
1.363

> <U+W>
-26.462

> <U>
25.816

> <W>
-52.279

> <W(PB)>
-54.727

> <W(SA)>
2.449

> <Valence>
4.504

> <Coulomb>
20.342

> <VdW>
0.971

> <VdW6>
-10.532

> <VdW12>
11.503

> <Bond>
0.307

> <Angle>
1.715

> <Pdih>
2.481

> <Idih>
0.000

> <Tether>
0.000

$$$$
VeraChem MOL file


 29 28  0  0  0  0  0  0  0  0999 V2000     
   20.7808   20.7145   20.1595 C   0  0  0  0  0  0  0  0  0  0  0  0
   20.0523   20.2143   19.5081 H   0  0  0  0  0  0  0  0  0  0  0  0
   20.7259   21.7942   19.9682 H   0  0  0  0  0  0  0  0  0  0  0  0
   21.7828   20.3719   19.8703 H   0  0  0  0  0  0  0  0  0  0  0  0
   20.5047   20.3989   21.6447 C   0  0  0  0  0  0  0  0  0  0  0  0
   21.2639   20.8904   22.2689 H   0  0  0  0  0  0  0  0  0  0  0  0
   20.6060   19.3168   21.8008 H   0  0  0  0  0  0  0  0  0  0  0  0
   19.0940   20.8629   22.0734 C   0  0  0  0  0  0  0  0  0  0  0  0
   18.9676   21.9197   21.8004 H   0  0  0  0  0  0  0  0  0  0  0  0
   18.3384   20.3075   21.5009 H   0  0  0  0  0  0  0  0  0  0  0  0
   18.8028   20.7143   23.5892 C   0  0  0  0  0  0  0  0  0  0  0  0
   17.7945   21.1107   23.7720 H   0  0  0  0  0  0  0  0  0  0  0  0
   19.4814   21.3553   24.1686 H   0  0  0  0  0  0  0  0  0  0  0  0
   18.8530   19.2571   24.1181 C   0  0  0  0  0  0  0  0  0  0  0  0
   18.0673   19.1416   24.8765 H   0  0  0  0  0  0  0  0  0  0  0  0
   18.5977   18.5636   23.3066 H   0  0  0  0  0  0  0  0  0  0  0  0
   20.2189   18.8879   24.7607 C   0  0  0  0  0  0  0  0  0  0  0  0
   20.4123   19.5688   25.5999 H   0  0  0  0  0  0  0  0  0  0  0  0
   21.0334   19.0589   24.0480 H   0  0  0  0  0  0  0  0  0  0  0  0
   20.3209   17.4348   25.2811 C   0  0  2  0  0  0  0  0  0  0  0  0
   21.2992   17.3295   25.7604 H   0  0  0  0  0  0  0  0  0  0  0  0
   20.2515   16.4067   24.1384 C   0  0  0  0  0  0  0  0  0  0  0  0
   20.9934   16.6346   23.3630 H   0  0  0  0  0  0  0  0  0  0  0  0
   20.4647   15.3992   24.5162 H   0  0  0  0  0  0  0  0  0  0  0  0
   19.2604   16.3851   23.6702 H   0  0  0  0  0  0  0  0  0  0  0  0
   19.3013   17.1303   26.3437 N   0  3  0  0  0  0  0  0  0  0  0  0
   19.3712   17.7837   27.1291 H   0  0  0  0  0  0  0  0  0  0  0  0
   19.4231   16.1855   26.7193 H   0  0  0  0  0  0  0  0  0  0  0  0
   18.3498   17.1934   25.9733 H   0  0  0  0  0  0  0  0  0  0  0  0
  1  2  1  0  0  0  0
  1  3  1  0  0  0  0
  1  4  1  0  0  0  0
  1  5  1  0  0  0  0
  5  6  1  0  0  0  0
  5  7  1  0  0  0  0
  5  8  1  0  0  0  0
  8  9  1  0  0  0  0
  8 10  1  0  0  0  0
  8 11  1  0  0  0  0
 11 12  1  0  0  0  0
 11 13  1  0  0  0  0
 11 14  1  0  0  0  0
 14 15  1  0  0  0  0
 14 16  1  0  0  0  0
 14 17  1  0  0  0  0
 17 18  1  0  0  0  0
 17 19  1  0  0  0  0
 17 20  1  0  0  0  0
 20 21  1  0  0  0  0
 20 22  1  0  0  0  0
 22 23  1  0  0  0  0
 22 24  1  0  0  0  0
 22 25  1  0  0  0  0
 20 26  1  0  0  0  0
 26 27  1  0  0  0  0
 26 28  1  0  0  0  0
 26 29  1  0  0  0  0
M  END
> <VConfSearch Rank>
660

> <Conf_Id>
117

> <Delta U+W>
3.377

> <U+W>
-24.449

> <U>
27.947

> <W>
-52.396

> <W(PB)>
-54.842

> <W(SA)>
2.447

> <Valence>
6.731

> <Coulomb>
20.067

> <VdW>
1.149

> <VdW6>
-10.427

> <VdW12>
11.575

> <Bond>
0.324

> <Angle>
1.943

> <Pdih>
4.465

> <Idih>
0.000

> <Tether>
0.000

$$$$
VeraChem MOL file


 29 28  0  0  0  0  0  0  0  0999 V2000     
   23.4689   18.4732   20.4673 C   0  0  0  0  0  0  0  0  0  0  0  0
   23.4676   19.5230   20.1459 H   0  0  0  0  0  0  0  0  0  0  0  0
   24.2241   18.3579   21.2558 H   0  0  0  0  0  0  0  0  0  0  0  0
   23.7785   17.8591   19.6116 H   0  0  0  0  0  0  0  0  0  0  0  0
   22.0736   18.0450   20.9689 C   0  0  0  0  0  0  0  0  0  0  0  0
   22.0977   16.9830   21.2510 H   0  0  0  0  0  0  0  0  0  0  0  0
   21.3470   18.1391   20.1497 H   0  0  0  0  0  0  0  0  0  0  0  0
   21.6137   18.8945   22.1742 C   0  0  0  0  0  0  0  0  0  0  0  0
   22.3441   18.7990   22.9895 H   0  0  0  0  0  0  0  0  0  0  0  0
   21.5934   19.9552   21.8880 H   0  0  0  0  0  0  0  0  0  0  0  0
   20.2168   18.4684   22.6793 C   0  0  0  0  0  0  0  0  0  0  0  0
   20.2382   17.4073   22.9638 H   0  0  0  0  0  0  0  0  0  0  0  0
   19.4868   18.5644   21.8636 H   0  0  0  0  0  0  0  0  0  0  0  0
   19.7573   19.3181   23.8856 C   0  0  0  0  0  0  0  0  0  0  0  0
   20.4859   19.2187   24.7023 H   0  0  0  0  0  0  0  0  0  0  0  0
   19.7447   20.3771   23.5955 H   0  0  0  0  0  0  0  0  0  0  0  0
   18.3573   18.8901   24.3888 C   0  0  0  0  0  0  0  0  0  0  0  0
   18.3767   17.8170   24.6217 H   0  0  0  0  0  0  0  0  0  0  0  0
   17.6178   19.0237   23.5880 H   0  0  0  0  0  0  0  0  0  0  0  0
   17.9065   19.6640   25.6465 C   0  0  2  0  0  0  0  0  0  0  0  0
   18.6696   19.5353   26.4203 H   0  0  0  0  0  0  0  0  0  0  0  0
   16.5806   19.0957   26.1770 C   0  0  0  0  0  0  0  0  0  0  0  0
   16.2730   19.6172   27.0918 H   0  0  0  0  0  0  0  0  0  0  0  0
   15.7782   19.2025   25.4363 H   0  0  0  0  0  0  0  0  0  0  0  0
   16.6822   18.0305   26.4196 H   0  0  0  0  0  0  0  0  0  0  0  0
   17.7848   21.1429   25.3997 N   0  3  0  0  0  0  0  0  0  0  0  0
   18.6733   21.5440   25.0879 H   0  0  0  0  0  0  0  0  0  0  0  0
   17.5043   21.6420   26.2488 H   0  0  0  0  0  0  0  0  0  0  0  0
   17.0854   21.3445   24.6802 H   0  0  0  0  0  0  0  0  0  0  0  0
  1  2  1  0  0  0  0
  1  3  1  0  0  0  0
  1  4  1  0  0  0  0
  1  5  1  0  0  0  0
  5  6  1  0  0  0  0
  5  7  1  0  0  0  0
  5  8  1  0  0  0  0
  8  9  1  0  0  0  0
  8 10  1  0  0  0  0
  8 11  1  0  0  0  0
 11 12  1  0  0  0  0
 11 13  1  0  0  0  0
 11 14  1  0  0  0  0
 14 15  1  0  0  0  0
 14 16  1  0  0  0  0
 14 17  1  0  0  0  0
 17 18  1  0  0  0  0
 17 19  1  0  0  0  0
 17 20  1  0  0  0  0
 20 21  1  0  0  0  0
 20 22  1  0  0  0  0
 22 23  1  0  0  0  0
 22 24  1  0  0  0  0
 22 25  1  0  0  0  0
 20 26  1  0  0  0  0
 26 27  1  0  0  0  0
 26 28  1  0  0  0  0
 26 29  1  0  0  0  0
M  END
> <VConfSearch Rank>
661

> <Conf_Id>
164

> <Delta U+W>
0.000

> <U+W>
-27.826

> <U>
23.963

> <W>
-51.789

> <W(PB)>
-54.342

> <W(SA)>
2.554

> <Valence>
3.166

> <Coulomb>
19.734

> <VdW>
1.062

> <VdW6>
-7.938

> <VdW12>
9.001

> <Bond>
0.188

> <Angle>
0.880

> <Pdih>
2.098

> <Idih>
0.000

> <Tether>
0.000

$$$$
VeraChem MOL file


 29 28  0  0  0  0  0  0  0  0999 V2000     
   19.5517   23.9345   23.2856 C   0  0  0  0  0  0  0  0  0  0  0  0
   18.5033   23.9569   22.9604 H   0  0  0  0  0  0  0  0  0  0  0  0
   19.5735   24.0472   24.3774 H   0  0  0  0  0  0  0  0  0  0  0  0
   20.0593   24.8033   22.8468 H   0  0  0  0  0  0  0  0  0  0  0  0
   20.2397   22.6237   22.8495 C   0  0  0  0  0  0  0  0  0  0  0  0
   21.2942   22.6451   23.1587 H   0  0  0  0  0  0  0  0  0  0  0  0
   20.2322   22.5554   21.7526 H   0  0  0  0  0  0  0  0  0  0  0  0
   19.5440   21.3841   23.4540 C   0  0  0  0  0  0  0  0  0  0  0  0
   19.5519   21.4581   24.5503 H   0  0  0  0  0  0  0  0  0  0  0  0
   18.4900   21.3682   23.1440 H   0  0  0  0  0  0  0  0  0  0  0  0
   20.2304   20.0695   23.0195 C   0  0  0  0  0  0  0  0  0  0  0  0
   21.2843   20.0859   23.3301 H   0  0  0  0  0  0  0  0  0  0  0  0
   20.2229   19.9977   21.9231 H   0  0  0  0  0  0  0  0  0  0  0  0
   19.5336   18.8295   23.6241 C   0  0  0  0  0  0  0  0  0  0  0  0
   19.5390   18.9154   24.7186 H   0  0  0  0  0  0  0  0  0  0  0  0
   18.4810   18.8105   23.3092 H   0  0  0  0  0  0  0  0  0  0  0  0
   20.2261   17.5139   23.1911 C   0  0  0  0  0  0  0  0  0  0  0  0
   21.2601   17.5005   23.5607 H   0  0  0  0  0  0  0  0  0  0  0  0
   20.2873   17.4959   22.0949 H   0  0  0  0  0  0  0  0  0  0  0  0
   19.4895   16.2385   23.6602 C   0  0  2  0  0  0  0  0  0  0  0  0
   18.4522   16.2949   23.3160 H   0  0  0  0  0  0  0  0  0  0  0  0
   19.4875   16.0997   25.1932 C   0  0  0  0  0  0  0  0  0  0  0  0
   20.5091   16.1028   25.5932 H   0  0  0  0  0  0  0  0  0  0  0  0
   18.9300   16.9158   25.6670 H   0  0  0  0  0  0  0  0  0  0  0  0
   19.0069   15.1611   25.4954 H   0  0  0  0  0  0  0  0  0  0  0  0
   20.0796   15.0086   23.0281 N   0  3  0  0  0  0  0  0  0  0  0  0
   19.5700   14.1646   23.3048 H   0  0  0  0  0  0  0  0  0  0  0  0
   21.0571   14.8791   23.3029 H   0  0  0  0  0  0  0  0  0  0  0  0
   20.0515   15.0596   22.0055 H   0  0  0  0  0  0  0  0  0  0  0  0
  1  2  1  0  0  0  0
  1  3  1  0  0  0  0
  1  4  1  0  0  0  0
  1  5  1  0  0  0  0
  5  6  1  0  0  0  0
  5  7  1  0  0  0  0
  5  8  1  0  0  0  0
  8  9  1  0  0  0  0
  8 10  1  0  0  0  0
  8 11  1  0  0  0  0
 11 12  1  0  0  0  0
 11 13  1  0  0  0  0
 11 14  1  0  0  0  0
 14 15  1  0  0  0  0
 14 16  1  0  0  0  0
 14 17  1  0  0  0  0
 17 18  1  0  0  0  0
 17 19  1  0  0  0  0
 17 20  1  0  0  0  0
 20 21  1  0  0  0  0
 20 22  1  0  0  0  0
 22 23  1  0  0  0  0
 22 24  1  0  0  0  0
 22 25  1  0  0  0  0
 20 26  1  0  0  0  0
 26 27  1  0  0  0  0
 26 28  1  0  0  0  0
 26 29  1  0  0  0  0
M  END
> <VConfSearch Rank>
662

> <Conf_Id>
58

> <Delta U+W>
0.412

> <U+W>
-27.414

> <U>
24.279

> <W>
-51.694

> <W(PB)>
-54.271

> <W(SA)>
2.577

> <Valence>
3.709

> <Coulomb>
19.380

> <VdW>
1.191

> <VdW6>
-8.093

> <VdW12>
9.284

> <Bond>
0.200

> <Angle>
1.161

> <Pdih>
2.348

> <Idih>
0.000

> <Tether>
0.000

$$$$
VeraChem MOL file


 29 28  0  0  0  0  0  0  0  0999 V2000     
   24.2350   20.3990   23.1850 C   0  0  0  0  0  0  0  0  0  0  0  0
   24.0122   21.2008   22.4690 H   0  0  0  0  0  0  0  0  0  0  0  0
   24.2291   20.8304   24.1945 H   0  0  0  0  0  0  0  0  0  0  0  0
   25.2504   20.0361   22.9794 H   0  0  0  0  0  0  0  0  0  0  0  0
   23.2114   19.2499   23.0670 C   0  0  0  0  0  0  0  0  0  0  0  0
   23.4795   18.4492   23.7704 H   0  0  0  0  0  0  0  0  0  0  0  0
   23.2642   18.8168   22.0583 H   0  0  0  0  0  0  0  0  0  0  0  0
   21.7726   19.7343   23.3519 C   0  0  0  0  0  0  0  0  0  0  0  0
   21.7253   20.1682   24.3603 H   0  0  0  0  0  0  0  0  0  0  0  0
   21.5102   20.5362   22.6480 H   0  0  0  0  0  0  0  0  0  0  0  0
   20.7447   18.5863   23.2343 C   0  0  0  0  0  0  0  0  0  0  0  0
   21.0087   17.7848   23.9382 H   0  0  0  0  0  0  0  0  0  0  0  0
   20.7932   18.1528   22.2258 H   0  0  0  0  0  0  0  0  0  0  0  0
   19.3053   19.0712   23.5192 C   0  0  0  0  0  0  0  0  0  0  0  0
   19.2641   19.5043   24.5273 H   0  0  0  0  0  0  0  0  0  0  0  0
   19.0530   19.8745   22.8147 H   0  0  0  0  0  0  0  0  0  0  0  0
   18.2783   17.9155   23.3963 C   0  0  0  0  0  0  0  0  0  0  0  0
   18.5714   17.0996   24.0700 H   0  0  0  0  0  0  0  0  0  0  0  0
   18.3206   17.4989   22.3813 H   0  0  0  0  0  0  0  0  0  0  0  0
   16.8154   18.3074   23.7118 C   0  0  2  0  0  0  0  0  0  0  0  0
   16.2087   17.4014   23.6179 H   0  0  0  0  0  0  0  0  0  0  0  0
   16.2649   19.3410   22.7139 C   0  0  0  0  0  0  0  0  0  0  0  0
   15.1914   19.4970   22.8767 H   0  0  0  0  0  0  0  0  0  0  0  0
   16.7636   20.3119   22.8186 H   0  0  0  0  0  0  0  0  0  0  0  0
   16.3977   18.9953   21.6812 H   0  0  0  0  0  0  0  0  0  0  0  0
   16.6408   18.7807   25.1286 N   0  3  0  0  0  0  0  0  0  0  0  0
   16.9641   18.0794   25.8011 H   0  0  0  0  0  0  0  0  0  0  0  0
   15.6580   18.9767   25.3390 H   0  0  0  0  0  0  0  0  0  0  0  0
   17.1690   19.6398   25.3005 H   0  0  0  0  0  0  0  0  0  0  0  0
  1  2  1  0  0  0  0
  1  3  1  0  0  0  0
  1  4  1  0  0  0  0
  1  5  1  0  0  0  0
  5  6  1  0  0  0  0
  5  7  1  0  0  0  0
  5  8  1  0  0  0  0
  8  9  1  0  0  0  0
  8 10  1  0  0  0  0
  8 11  1  0  0  0  0
 11 12  1  0  0  0  0
 11 13  1  0  0  0  0
 11 14  1  0  0  0  0
 14 15  1  0  0  0  0
 14 16  1  0  0  0  0
 14 17  1  0  0  0  0
 17 18  1  0  0  0  0
 17 19  1  0  0  0  0
 17 20  1  0  0  0  0
 20 21  1  0  0  0  0
 20 22  1  0  0  0  0
 22 23  1  0  0  0  0
 22 24  1  0  0  0  0
 22 25  1  0  0  0  0
 20 26  1  0  0  0  0
 26 27  1  0  0  0  0
 26 28  1  0  0  0  0
 26 29  1  0  0  0  0
M  END
> <VConfSearch Rank>
663

> <Conf_Id>
137

> <Delta U+W>
0.280

> <U+W>
-27.546

> <U>
24.513

> <W>
-52.059

> <W(PB)>
-54.556

> <W(SA)>
2.497

> <Valence>
3.677

> <Coulomb>
19.662

> <VdW>
1.174

> <VdW6>
-8.569

> <VdW12>
9.743

> <Bond>
0.224

> <Angle>
1.211

> <Pdih>
2.243

> <Idih>
0.000

> <Tether>
0.000

$$$$
VeraChem MOL file


 29 28  0  0  0  0  0  0  0  0999 V2000     
   22.1267   21.1442   20.3146 C   0  0  0  0  0  0  0  0  0  0  0  0
   22.4421   21.7807   21.1517 H   0  0  0  0  0  0  0  0  0  0  0  0
   22.8478   20.3219   20.2195 H   0  0  0  0  0  0  0  0  0  0  0  0
   22.1773   21.7447   19.3970 H   0  0  0  0  0  0  0  0  0  0  0  0
   20.6973   20.6055   20.5351 C   0  0  0  0  0  0  0  0  0  0  0  0
   20.3976   20.0023   19.6666 H   0  0  0  0  0  0  0  0  0  0  0  0
   19.9947   21.4487   20.5933 H   0  0  0  0  0  0  0  0  0  0  0  0
   20.5985   19.7552   21.8209 C   0  0  0  0  0  0  0  0  0  0  0  0
   21.3008   18.9126   21.7566 H   0  0  0  0  0  0  0  0  0  0  0  0
   20.9103   20.3668   22.6773 H   0  0  0  0  0  0  0  0  0  0  0  0
   19.1641   19.2183   22.0447 C   0  0  0  0  0  0  0  0  0  0  0  0
   18.8406   18.6828   21.1413 H   0  0  0  0  0  0  0  0  0  0  0  0
   18.4680   20.0592   22.1698 H   0  0  0  0  0  0  0  0  0  0  0  0
   19.0393   18.2565   23.2522 C   0  0  0  0  0  0  0  0  0  0  0  0
   18.0322   17.8211   23.2309 H   0  0  0  0  0  0  0  0  0  0  0  0
   19.7412   17.4200   23.1301 H   0  0  0  0  0  0  0  0  0  0  0  0
   19.2786   18.9456   24.6210 C   0  0  0  0  0  0  0  0  0  0  0  0
   18.5701   19.7749   24.7476 H   0  0  0  0  0  0  0  0  0  0  0  0
   20.2817   19.3886   24.6278 H   0  0  0  0  0  0  0  0  0  0  0  0
   19.1752   17.9849   25.8281 C   0  0  2  0  0  0  0  0  0  0  0  0
   19.8440   17.1372   25.6505 H   0  0  0  0  0  0  0  0  0  0  0  0
   17.7463   17.4469   26.0249 C   0  0  0  0  0  0  0  0  0  0  0  0
   17.0258   18.2664   26.1389 H   0  0  0  0  0  0  0  0  0  0  0  0
   17.4317   16.8273   25.1774 H   0  0  0  0  0  0  0  0  0  0  0  0
   17.6908   16.8184   26.9223 H   0  0  0  0  0  0  0  0  0  0  0  0
   19.6565   18.6470   27.0893 N   0  3  0  0  0  0  0  0  0  0  0  0
   20.6228   18.9741   26.9987 H   0  0  0  0  0  0  0  0  0  0  0  0
   19.6266   18.0026   27.8846 H   0  0  0  0  0  0  0  0  0  0  0  0
   19.0786   19.4568   27.3305 H   0  0  0  0  0  0  0  0  0  0  0  0
  1  2  1  0  0  0  0
  1  3  1  0  0  0  0
  1  4  1  0  0  0  0
  1  5  1  0  0  0  0
  5  6  1  0  0  0  0
  5  7  1  0  0  0  0
  5  8  1  0  0  0  0
  8  9  1  0  0  0  0
  8 10  1  0  0  0  0
  8 11  1  0  0  0  0
 11 12  1  0  0  0  0
 11 13  1  0  0  0  0
 11 14  1  0  0  0  0
 14 15  1  0  0  0  0
 14 16  1  0  0  0  0
 14 17  1  0  0  0  0
 17 18  1  0  0  0  0
 17 19  1  0  0  0  0
 17 20  1  0  0  0  0
 20 21  1  0  0  0  0
 20 22  1  0  0  0  0
 22 23  1  0  0  0  0
 22 24  1  0  0  0  0
 22 25  1  0  0  0  0
 20 26  1  0  0  0  0
 26 27  1  0  0  0  0
 26 28  1  0  0  0  0
 26 29  1  0  0  0  0
M  END
> <VConfSearch Rank>
664

> <Conf_Id>
40

> <Delta U+W>
1.128

> <U+W>
-26.698

> <U>
25.442

> <W>
-52.140

> <W(PB)>
-54.658

> <W(SA)>
2.519

> <Valence>
4.343

> <Coulomb>
19.740

> <VdW>
1.360

> <VdW6>
-8.739

> <VdW12>
10.099

> <Bond>
0.251

> <Angle>
1.483

> <Pdih>
2.608

> <Idih>
0.000

> <Tether>
0.000

$$$$
VeraChem MOL file


 29 28  0  0  0  0  0  0  0  0999 V2000     
   22.7551   17.7550   20.6482 C   0  0  0  0  0  0  0  0  0  0  0  0
   22.0492   16.9155   20.6526 H   0  0  0  0  0  0  0  0  0  0  0  0
   22.4352   18.4705   19.8797 H   0  0  0  0  0  0  0  0  0  0  0  0
   23.7349   17.3593   20.3511 H   0  0  0  0  0  0  0  0  0  0  0  0
   22.8440   18.4316   22.0351 C   0  0  0  0  0  0  0  0  0  0  0  0
   23.6528   19.1753   22.0126 H   0  0  0  0  0  0  0  0  0  0  0  0
   23.1311   17.6884   22.7920 H   0  0  0  0  0  0  0  0  0  0  0  0
   21.5347   19.1374   22.4639 C   0  0  0  0  0  0  0  0  0  0  0  0
   21.7401   19.6988   23.3841 H   0  0  0  0  0  0  0  0  0  0  0  0
   21.2525   19.8790   21.7040 H   0  0  0  0  0  0  0  0  0  0  0  0
   20.3568   18.1587   22.7035 C   0  0  0  0  0  0  0  0  0  0  0  0
   20.6365   17.4204   23.4675 H   0  0  0  0  0  0  0  0  0  0  0  0
   20.1625   17.5924   21.7836 H   0  0  0  0  0  0  0  0  0  0  0  0
   19.0394   18.8605   23.1170 C   0  0  0  0  0  0  0  0  0  0  0  0
   18.7710   19.6124   22.3620 H   0  0  0  0  0  0  0  0  0  0  0  0
   18.2385   18.1098   23.1034 H   0  0  0  0  0  0  0  0  0  0  0  0
   19.1010   19.5234   24.5175 C   0  0  0  0  0  0  0  0  0  0  0  0
   19.8826   20.2929   24.5219 H   0  0  0  0  0  0  0  0  0  0  0  0
   19.3894   18.7772   25.2697 H   0  0  0  0  0  0  0  0  0  0  0  0
   17.7678   20.1855   24.9288 C   0  0  2  0  0  0  0  0  0  0  0  0
   17.4826   20.8968   24.1475 H   0  0  0  0  0  0  0  0  0  0  0  0
   17.9394   20.9589   26.2461 C   0  0  0  0  0  0  0  0  0  0  0  0
   17.0051   21.4607   26.5263 H   0  0  0  0  0  0  0  0  0  0  0  0
   18.2265   20.2882   27.0656 H   0  0  0  0  0  0  0  0  0  0  0  0
   18.7141   21.7296   26.1479 H   0  0  0  0  0  0  0  0  0  0  0  0
   16.6420   19.1943   25.0450 N   0  3  0  0  0  0  0  0  0  0  0  0
   16.8388   18.4886   25.7597 H   0  0  0  0  0  0  0  0  0  0  0  0
   16.4836   18.7029   24.1612 H   0  0  0  0  0  0  0  0  0  0  0  0
   15.7638   19.6543   25.3014 H   0  0  0  0  0  0  0  0  0  0  0  0
  1  2  1  0  0  0  0
  1  3  1  0  0  0  0
  1  4  1  0  0  0  0
  1  5  1  0  0  0  0
  5  6  1  0  0  0  0
  5  7  1  0  0  0  0
  5  8  1  0  0  0  0
  8  9  1  0  0  0  0
  8 10  1  0  0  0  0
  8 11  1  0  0  0  0
 11 12  1  0  0  0  0
 11 13  1  0  0  0  0
 11 14  1  0  0  0  0
 14 15  1  0  0  0  0
 14 16  1  0  0  0  0
 14 17  1  0  0  0  0
 17 18  1  0  0  0  0
 17 19  1  0  0  0  0
 17 20  1  0  0  0  0
 20 21  1  0  0  0  0
 20 22  1  0  0  0  0
 22 23  1  0  0  0  0
 22 24  1  0  0  0  0
 22 25  1  0  0  0  0
 20 26  1  0  0  0  0
 26 27  1  0  0  0  0
 26 28  1  0  0  0  0
 26 29  1  0  0  0  0
M  END
> <VConfSearch Rank>
665

> <Conf_Id>
134

> <Delta U+W>
1.228

> <U+W>
-26.598

> <U>
25.451

> <W>
-52.048

> <W(PB)>
-54.539

> <W(SA)>
2.490

> <Valence>
4.319

> <Coulomb>
19.732

> <VdW>
1.400

> <VdW6>
-9.173

> <VdW12>
10.573

> <Bond>
0.281

> <Angle>
1.459

> <Pdih>
2.580

> <Idih>
0.000

> <Tether>
0.000

$$$$
VeraChem MOL file


 29 28  0  0  0  0  0  0  0  0999 V2000     
   17.5980   22.3197   25.3645 C   0  0  0  0  0  0  0  0  0  0  0  0
   18.4388   22.8906   24.9517 H   0  0  0  0  0  0  0  0  0  0  0  0
   16.8145   22.2573   24.5982 H   0  0  0  0  0  0  0  0  0  0  0  0
   17.1953   22.8921   26.2102 H   0  0  0  0  0  0  0  0  0  0  0  0
   18.0378   20.9116   25.8258 C   0  0  0  0  0  0  0  0  0  0  0  0
   17.1962   20.4324   26.3453 H   0  0  0  0  0  0  0  0  0  0  0  0
   18.8455   20.9999   26.5657 H   0  0  0  0  0  0  0  0  0  0  0  0
   18.4895   19.9938   24.6641 C   0  0  0  0  0  0  0  0  0  0  0  0
   18.6487   18.9868   25.0705 H   0  0  0  0  0  0  0  0  0  0  0  0
   17.6781   19.9072   23.9285 H   0  0  0  0  0  0  0  0  0  0  0  0
   19.7831   20.4793   23.9619 C   0  0  0  0  0  0  0  0  0  0  0  0
   20.5948   20.5643   24.6974 H   0  0  0  0  0  0  0  0  0  0  0  0
   19.6240   21.4879   23.5596 H   0  0  0  0  0  0  0  0  0  0  0  0
   20.2323   19.5648   22.7956 C   0  0  0  0  0  0  0  0  0  0  0  0
   19.4206   19.4991   22.0590 H   0  0  0  0  0  0  0  0  0  0  0  0
   21.0784   20.0445   22.2841 H   0  0  0  0  0  0  0  0  0  0  0  0
   20.6593   18.1455   23.2510 C   0  0  0  0  0  0  0  0  0  0  0  0
   19.7911   17.5941   23.6334 H   0  0  0  0  0  0  0  0  0  0  0  0
   21.3630   18.2430   24.0881 H   0  0  0  0  0  0  0  0  0  0  0  0
   21.3365   17.3168   22.1359 C   0  0  2  0  0  0  0  0  0  0  0  0
   22.1783   17.8946   21.7421 H   0  0  0  0  0  0  0  0  0  0  0  0
   20.3717   17.0094   20.9766 C   0  0  0  0  0  0  0  0  0  0  0  0
   19.4794   16.4798   21.3328 H   0  0  0  0  0  0  0  0  0  0  0  0
   20.0484   17.9278   20.4731 H   0  0  0  0  0  0  0  0  0  0  0  0
   20.8617   16.3813   20.2225 H   0  0  0  0  0  0  0  0  0  0  0  0
   21.9161   16.0420   22.6829 N   0  3  0  0  0  0  0  0  0  0  0  0
   22.5945   16.2254   23.4279 H   0  0  0  0  0  0  0  0  0  0  0  0
   22.4003   15.5089   21.9548 H   0  0  0  0  0  0  0  0  0  0  0  0
   21.1880   15.4366   23.0717 H   0  0  0  0  0  0  0  0  0  0  0  0
  1  2  1  0  0  0  0
  1  3  1  0  0  0  0
  1  4  1  0  0  0  0
  1  5  1  0  0  0  0
  5  6  1  0  0  0  0
  5  7  1  0  0  0  0
  5  8  1  0  0  0  0
  8  9  1  0  0  0  0
  8 10  1  0  0  0  0
  8 11  1  0  0  0  0
 11 12  1  0  0  0  0
 11 13  1  0  0  0  0
 11 14  1  0  0  0  0
 14 15  1  0  0  0  0
 14 16  1  0  0  0  0
 14 17  1  0  0  0  0
 17 18  1  0  0  0  0
 17 19  1  0  0  0  0
 17 20  1  0  0  0  0
 20 21  1  0  0  0  0
 20 22  1  0  0  0  0
 22 23  1  0  0  0  0
 22 24  1  0  0  0  0
 22 25  1  0  0  0  0
 20 26  1  0  0  0  0
 26 27  1  0  0  0  0
 26 28  1  0  0  0  0
 26 29  1  0  0  0  0
M  END
> <VConfSearch Rank>
666

> <Conf_Id>
73

> <Delta U+W>
1.580

> <U+W>
-26.246

> <U>
25.821

> <W>
-52.067

> <W(PB)>
-54.581

> <W(SA)>
2.514

> <Valence>
4.779

> <Coulomb>
19.614

> <VdW>
1.428

> <VdW6>
-9.390

> <VdW12>
10.818

> <Bond>
0.283

> <Angle>
1.640

> <Pdih>
2.856

> <Idih>
0.000

> <Tether>
0.000

$$$$
VeraChem MOL file


 29 28  0  0  0  0  0  0  0  0999 V2000     
   16.0523   19.6829   21.2148 C   0  0  0  0  0  0  0  0  0  0  0  0
   15.8306   18.6803   21.6033 H   0  0  0  0  0  0  0  0  0  0  0  0
   15.0984   20.2059   21.0680 H   0  0  0  0  0  0  0  0  0  0  0  0
   16.5302   19.5712   20.2328 H   0  0  0  0  0  0  0  0  0  0  0  0
   16.9593   20.4665   22.1870 C   0  0  0  0  0  0  0  0  0  0  0  0
   16.4419   20.5907   23.1487 H   0  0  0  0  0  0  0  0  0  0  0  0
   17.1343   21.4756   21.7883 H   0  0  0  0  0  0  0  0  0  0  0  0
   18.3103   19.7518   22.4107 C   0  0  0  0  0  0  0  0  0  0  0  0
   18.1200   18.7428   22.7988 H   0  0  0  0  0  0  0  0  0  0  0  0
   18.8247   19.6325   21.4471 H   0  0  0  0  0  0  0  0  0  0  0  0
   19.2185   20.5347   23.3893 C   0  0  0  0  0  0  0  0  0  0  0  0
   18.7319   20.6043   24.3720 H   0  0  0  0  0  0  0  0  0  0  0  0
   19.3274   21.5660   23.0259 H   0  0  0  0  0  0  0  0  0  0  0  0
   20.6318   19.9228   23.5520 C   0  0  0  0  0  0  0  0  0  0  0  0
   21.1185   19.8564   22.5691 H   0  0  0  0  0  0  0  0  0  0  0  0
   21.2353   20.6186   24.1494 H   0  0  0  0  0  0  0  0  0  0  0  0
   20.6283   18.5277   24.2285 C   0  0  0  0  0  0  0  0  0  0  0  0
   20.0460   17.8286   23.6157 H   0  0  0  0  0  0  0  0  0  0  0  0
   20.1245   18.5879   25.2024 H   0  0  0  0  0  0  0  0  0  0  0  0
   22.0464   17.9450   24.4135 C   0  0  2  0  0  0  0  0  0  0  0  0
   22.5407   17.9290   23.4372 H   0  0  0  0  0  0  0  0  0  0  0  0
   21.9671   16.5024   24.9379 C   0  0  0  0  0  0  0  0  0  0  0  0
   21.3991   15.8668   24.2471 H   0  0  0  0  0  0  0  0  0  0  0  0
   22.9702   16.0700   25.0385 H   0  0  0  0  0  0  0  0  0  0  0  0
   21.4777   16.4631   25.9192 H   0  0  0  0  0  0  0  0  0  0  0  0
   22.9031   18.7866   25.3196 N   0  3  0  0  0  0  0  0  0  0  0  0
   23.8439   18.3939   25.4158 H   0  0  0  0  0  0  0  0  0  0  0  0
   22.5006   18.8522   26.2583 H   0  0  0  0  0  0  0  0  0  0  0  0
   23.0045   19.7395   24.9598 H   0  0  0  0  0  0  0  0  0  0  0  0
  1  2  1  0  0  0  0
  1  3  1  0  0  0  0
  1  4  1  0  0  0  0
  1  5  1  0  0  0  0
  5  6  1  0  0  0  0
  5  7  1  0  0  0  0
  5  8  1  0  0  0  0
  8  9  1  0  0  0  0
  8 10  1  0  0  0  0
  8 11  1  0  0  0  0
 11 12  1  0  0  0  0
 11 13  1  0  0  0  0
 11 14  1  0  0  0  0
 14 15  1  0  0  0  0
 14 16  1  0  0  0  0
 14 17  1  0  0  0  0
 17 18  1  0  0  0  0
 17 19  1  0  0  0  0
 17 20  1  0  0  0  0
 20 21  1  0  0  0  0
 20 22  1  0  0  0  0
 22 23  1  0  0  0  0
 22 24  1  0  0  0  0
 22 25  1  0  0  0  0
 20 26  1  0  0  0  0
 26 27  1  0  0  0  0
 26 28  1  0  0  0  0
 26 29  1  0  0  0  0
M  END
> <VConfSearch Rank>
667

> <Conf_Id>
111

> <Delta U+W>
0.580

> <U+W>
-27.246

> <U>
24.710

> <W>
-51.957

> <W(PB)>
-54.511

> <W(SA)>
2.555

> <Valence>
3.735

> <Coulomb>
19.760

> <VdW>
1.216

> <VdW6>
-8.624

> <VdW12>
9.840

> <Bond>
0.236

> <Angle>
1.168

> <Pdih>
2.330

> <Idih>
0.000

> <Tether>
0.000

$$$$
VeraChem MOL file


 29 28  0  0  0  0  0  0  0  0999 V2000     
   19.2916   15.9336   20.5306 C   0  0  0  0  0  0  0  0  0  0  0  0
   20.3711   15.7344   20.5231 H   0  0  0  0  0  0  0  0  0  0  0  0
   18.8524   15.4070   21.3879 H   0  0  0  0  0  0  0  0  0  0  0  0
   18.8632   15.5040   19.6157 H   0  0  0  0  0  0  0  0  0  0  0  0
   19.0078   17.4488   20.6057 C   0  0  0  0  0  0  0  0  0  0  0  0
   17.9223   17.6184   20.5781 H   0  0  0  0  0  0  0  0  0  0  0  0
   19.4286   17.9425   19.7185 H   0  0  0  0  0  0  0  0  0  0  0  0
   19.6013   18.0791   21.8849 C   0  0  0  0  0  0  0  0  0  0  0  0
   19.1801   17.5716   22.7626 H   0  0  0  0  0  0  0  0  0  0  0  0
   20.6865   17.9087   21.9071 H   0  0  0  0  0  0  0  0  0  0  0  0
   19.3139   19.5976   21.9633 C   0  0  0  0  0  0  0  0  0  0  0  0
   18.2289   19.7684   21.9937 H   0  0  0  0  0  0  0  0  0  0  0  0
   19.6758   20.0785   21.0440 H   0  0  0  0  0  0  0  0  0  0  0  0
   19.9830   20.2907   23.1756 C   0  0  0  0  0  0  0  0  0  0  0  0
   21.0693   20.1411   23.1187 H   0  0  0  0  0  0  0  0  0  0  0  0
   19.8131   21.3733   23.0957 H   0  0  0  0  0  0  0  0  0  0  0  0
   19.4451   19.7946   24.5426 C   0  0  0  0  0  0  0  0  0  0  0  0
   19.7282   18.7464   24.7014 H   0  0  0  0  0  0  0  0  0  0  0  0
   18.3477   19.8231   24.5183 H   0  0  0  0  0  0  0  0  0  0  0  0
   19.9306   20.6405   25.7415 C   0  0  2  0  0  0  0  0  0  0  0  0
   19.6718   21.6866   25.5508 H   0  0  0  0  0  0  0  0  0  0  0  0
   21.4540   20.5436   25.9389 C   0  0  0  0  0  0  0  0  0  0  0  0
   21.7710   19.5022   26.0753 H   0  0  0  0  0  0  0  0  0  0  0  0
   21.9943   20.9577   25.0797 H   0  0  0  0  0  0  0  0  0  0  0  0
   21.7659   21.1129   26.8232 H   0  0  0  0  0  0  0  0  0  0  0  0
   19.2161   20.2506   27.0056 N   0  3  0  0  0  0  0  0  0  0  0  0
   18.2011   20.3490   26.9107 H   0  0  0  0  0  0  0  0  0  0  0  0
   19.5062   20.8355   27.7945 H   0  0  0  0  0  0  0  0  0  0  0  0
   19.4087   19.2779   27.2594 H   0  0  0  0  0  0  0  0  0  0  0  0
  1  2  1  0  0  0  0
  1  3  1  0  0  0  0
  1  4  1  0  0  0  0
  1  5  1  0  0  0  0
  5  6  1  0  0  0  0
  5  7  1  0  0  0  0
  5  8  1  0  0  0  0
  8  9  1  0  0  0  0
  8 10  1  0  0  0  0
  8 11  1  0  0  0  0
 11 12  1  0  0  0  0
 11 13  1  0  0  0  0
 11 14  1  0  0  0  0
 14 15  1  0  0  0  0
 14 16  1  0  0  0  0
 14 17  1  0  0  0  0
 17 18  1  0  0  0  0
 17 19  1  0  0  0  0
 17 20  1  0  0  0  0
 20 21  1  0  0  0  0
 20 22  1  0  0  0  0
 22 23  1  0  0  0  0
 22 24  1  0  0  0  0
 22 25  1  0  0  0  0
 20 26  1  0  0  0  0
 26 27  1  0  0  0  0
 26 28  1  0  0  0  0
 26 29  1  0  0  0  0
M  END
> <VConfSearch Rank>
668

> <Conf_Id>
39

> <Delta U+W>
0.965

> <U+W>
-26.861

> <U>
25.129

> <W>
-51.990

> <W(PB)>
-54.526

> <W(SA)>
2.536

> <Valence>
4.206

> <Coulomb>
19.678

> <VdW>
1.245

> <VdW6>
-8.834

> <VdW12>
10.079

> <Bond>
0.240

> <Angle>
1.353

> <Pdih>
2.613

> <Idih>
0.000

> <Tether>
0.000

$$$$
VeraChem MOL file


 29 28  0  0  0  0  0  0  0  0999 V2000     
   21.1705   15.1067   23.0429 C   0  0  0  0  0  0  0  0  0  0  0  0
   21.6549   15.1519   24.0269 H   0  0  0  0  0  0  0  0  0  0  0  0
   20.0942   14.9596   23.1952 H   0  0  0  0  0  0  0  0  0  0  0  0
   21.5531   14.2201   22.5209 H   0  0  0  0  0  0  0  0  0  0  0  0
   21.4600   16.3837   22.2216 C   0  0  0  0  0  0  0  0  0  0  0  0
   20.9365   16.3302   21.2568 H   0  0  0  0  0  0  0  0  0  0  0  0
   22.5333   16.4159   21.9874 H   0  0  0  0  0  0  0  0  0  0  0  0
   21.0743   17.6912   22.9551 C   0  0  0  0  0  0  0  0  0  0  0  0
   21.6007   17.7401   23.9181 H   0  0  0  0  0  0  0  0  0  0  0  0
   21.4416   18.5349   22.3573 H   0  0  0  0  0  0  0  0  0  0  0  0
   19.5488   17.8427   23.1839 C   0  0  0  0  0  0  0  0  0  0  0  0
   19.1829   16.9933   23.7749 H   0  0  0  0  0  0  0  0  0  0  0  0
   19.0227   17.7983   22.2205 H   0  0  0  0  0  0  0  0  0  0  0  0
   19.1606   19.1441   23.9284 C   0  0  0  0  0  0  0  0  0  0  0  0
   18.0897   19.0940   24.1646 H   0  0  0  0  0  0  0  0  0  0  0  0
   19.6892   19.1781   24.8902 H   0  0  0  0  0  0  0  0  0  0  0  0
   19.4505   20.4334   23.1121 C   0  0  0  0  0  0  0  0  0  0  0  0
   19.0104   20.3346   22.1112 H   0  0  0  0  0  0  0  0  0  0  0  0
   20.5315   20.5402   22.9598 H   0  0  0  0  0  0  0  0  0  0  0  0
   18.9225   21.7389   23.7525 C   0  0  2  0  0  0  0  0  0  0  0  0
   19.1839   22.5605   23.0785 H   0  0  0  0  0  0  0  0  0  0  0  0
   19.5837   22.0235   25.1123 C   0  0  0  0  0  0  0  0  0  0  0  0
   19.2894   21.2857   25.8682 H   0  0  0  0  0  0  0  0  0  0  0  0
   20.6772   22.0088   25.0246 H   0  0  0  0  0  0  0  0  0  0  0  0
   19.2927   23.0149   25.4804 H   0  0  0  0  0  0  0  0  0  0  0  0
   17.4230   21.7574   23.8682 N   0  3  0  0  0  0  0  0  0  0  0  0
   16.9746   21.6113   22.9592 H   0  0  0  0  0  0  0  0  0  0  0  0
   17.0873   22.6527   24.2349 H   0  0  0  0  0  0  0  0  0  0  0  0
   17.0900   21.0234   24.4980 H   0  0  0  0  0  0  0  0  0  0  0  0
  1  2  1  0  0  0  0
  1  3  1  0  0  0  0
  1  4  1  0  0  0  0
  1  5  1  0  0  0  0
  5  6  1  0  0  0  0
  5  7  1  0  0  0  0
  5  8  1  0  0  0  0
  8  9  1  0  0  0  0
  8 10  1  0  0  0  0
  8 11  1  0  0  0  0
 11 12  1  0  0  0  0
 11 13  1  0  0  0  0
 11 14  1  0  0  0  0
 14 15  1  0  0  0  0
 14 16  1  0  0  0  0
 14 17  1  0  0  0  0
 17 18  1  0  0  0  0
 17 19  1  0  0  0  0
 17 20  1  0  0  0  0
 20 21  1  0  0  0  0
 20 22  1  0  0  0  0
 22 23  1  0  0  0  0
 22 24  1  0  0  0  0
 22 25  1  0  0  0  0
 20 26  1  0  0  0  0
 26 27  1  0  0  0  0
 26 28  1  0  0  0  0
 26 29  1  0  0  0  0
M  END
> <VConfSearch Rank>
669

> <Conf_Id>
155

> <Delta U+W>
1.624

> <U+W>
-26.202

> <U>
25.894

> <W>
-52.096

> <W(PB)>
-54.602

> <W(SA)>
2.506

> <Valence>
4.779

> <Coulomb>
19.659

> <VdW>
1.456

> <VdW6>
-9.843

> <VdW12>
11.299

> <Bond>
0.315

> <Angle>
1.725

> <Pdih>
2.740

> <Idih>
0.000

> <Tether>
0.000

$$$$
VeraChem MOL file


 29 28  0  0  0  0  0  0  0  0999 V2000     
   17.0517   18.3322   20.5686 C   0  0  0  0  0  0  0  0  0  0  0  0
   16.6996   17.7226   21.4100 H   0  0  0  0  0  0  0  0  0  0  0  0
   16.8226   19.3836   20.7855 H   0  0  0  0  0  0  0  0  0  0  0  0
   16.4737   18.0381   19.6829 H   0  0  0  0  0  0  0  0  0  0  0  0
   18.5638   18.1334   20.3183 C   0  0  0  0  0  0  0  0  0  0  0  0
   18.8451   18.6693   19.4010 H   0  0  0  0  0  0  0  0  0  0  0  0
   18.7704   17.0707   20.1291 H   0  0  0  0  0  0  0  0  0  0  0  0
   19.4494   18.6402   21.4819 C   0  0  0  0  0  0  0  0  0  0  0  0
   20.5028   18.5542   21.1820 H   0  0  0  0  0  0  0  0  0  0  0  0
   19.2559   19.7094   21.6380 H   0  0  0  0  0  0  0  0  0  0  0  0
   19.2321   17.8587   22.8024 C   0  0  0  0  0  0  0  0  0  0  0  0
   19.2966   16.7820   22.5933 H   0  0  0  0  0  0  0  0  0  0  0  0
   18.2189   18.0395   23.1851 H   0  0  0  0  0  0  0  0  0  0  0  0
   20.2626   18.2053   23.9054 C   0  0  0  0  0  0  0  0  0  0  0  0
   20.1095   17.5078   24.7387 H   0  0  0  0  0  0  0  0  0  0  0  0
   21.2788   18.0217   23.5302 H   0  0  0  0  0  0  0  0  0  0  0  0
   20.1500   19.6641   24.4200 C   0  0  0  0  0  0  0  0  0  0  0  0
   19.1378   19.8440   24.8058 H   0  0  0  0  0  0  0  0  0  0  0  0
   20.2892   20.3517   23.5771 H   0  0  0  0  0  0  0  0  0  0  0  0
   21.1913   20.0237   25.5047 C   0  0  2  0  0  0  0  0  0  0  0  0
   22.1863   19.7794   25.1200 H   0  0  0  0  0  0  0  0  0  0  0  0
   20.9671   19.2409   26.8111 C   0  0  0  0  0  0  0  0  0  0  0  0
   19.9540   19.4009   27.2006 H   0  0  0  0  0  0  0  0  0  0  0  0
   21.1130   18.1649   26.6630 H   0  0  0  0  0  0  0  0  0  0  0  0
   21.6811   19.5607   27.5800 H   0  0  0  0  0  0  0  0  0  0  0  0
   21.1957   21.5016   25.7816 N   0  3  0  0  0  0  0  0  0  0  0  0
   21.3883   22.0437   24.9343 H   0  0  0  0  0  0  0  0  0  0  0  0
   21.9107   21.7505   26.4713 H   0  0  0  0  0  0  0  0  0  0  0  0
   20.2937   21.8157   26.1498 H   0  0  0  0  0  0  0  0  0  0  0  0
  1  2  1  0  0  0  0
  1  3  1  0  0  0  0
  1  4  1  0  0  0  0
  1  5  1  0  0  0  0
  5  6  1  0  0  0  0
  5  7  1  0  0  0  0
  5  8  1  0  0  0  0
  8  9  1  0  0  0  0
  8 10  1  0  0  0  0
  8 11  1  0  0  0  0
 11 12  1  0  0  0  0
 11 13  1  0  0  0  0
 11 14  1  0  0  0  0
 14 15  1  0  0  0  0
 14 16  1  0  0  0  0
 14 17  1  0  0  0  0
 17 18  1  0  0  0  0
 17 19  1  0  0  0  0
 17 20  1  0  0  0  0
 20 21  1  0  0  0  0
 20 22  1  0  0  0  0
 22 23  1  0  0  0  0
 22 24  1  0  0  0  0
 22 25  1  0  0  0  0
 20 26  1  0  0  0  0
 26 27  1  0  0  0  0
 26 28  1  0  0  0  0
 26 29  1  0  0  0  0
M  END
> <VConfSearch Rank>
670

> <Conf_Id>
135

> <Delta U+W>
1.581

> <U+W>
-26.245

> <U>
25.974

> <W>
-52.219

> <W(PB)>
-54.709

> <W(SA)>
2.490

> <Valence>
4.811

> <Coulomb>
19.700

> <VdW>
1.463

> <VdW6>
-9.391

> <VdW12>
10.854

> <Bond>
0.285

> <Angle>
1.671

> <Pdih>
2.855

> <Idih>
0.000

> <Tether>
0.000

$$$$
VeraChem MOL file


 29 28  0  0  0  0  0  0  0  0999 V2000     
   21.4098   21.2645   26.5646 C   0  0  0  0  0  0  0  0  0  0  0  0
   21.5129   20.2407   26.9468 H   0  0  0  0  0  0  0  0  0  0  0  0
   22.1516   21.4115   25.7699 H   0  0  0  0  0  0  0  0  0  0  0  0
   21.6592   21.9546   27.3810 H   0  0  0  0  0  0  0  0  0  0  0  0
   19.9741   21.5254   26.0554 C   0  0  0  0  0  0  0  0  0  0  0  0
   19.9040   22.5463   25.6546 H   0  0  0  0  0  0  0  0  0  0  0  0
   19.2820   21.4816   26.9079 H   0  0  0  0  0  0  0  0  0  0  0  0
   19.5093   20.5093   24.9847 C   0  0  0  0  0  0  0  0  0  0  0  0
   19.5559   19.4968   25.4069 H   0  0  0  0  0  0  0  0  0  0  0  0
   18.4524   20.7027   24.7551 H   0  0  0  0  0  0  0  0  0  0  0  0
   20.3336   20.5785   23.6745 C   0  0  0  0  0  0  0  0  0  0  0  0
   21.3704   20.2716   23.8652 H   0  0  0  0  0  0  0  0  0  0  0  0
   20.3767   21.6217   23.3326 H   0  0  0  0  0  0  0  0  0  0  0  0
   19.7473   19.7107   22.5341 C   0  0  0  0  0  0  0  0  0  0  0  0
   18.7245   20.0467   22.3179 H   0  0  0  0  0  0  0  0  0  0  0  0
   20.3333   19.8902   21.6221 H   0  0  0  0  0  0  0  0  0  0  0  0
   19.7568   18.1930   22.8509 C   0  0  0  0  0  0  0  0  0  0  0  0
   19.0689   17.9764   23.6780 H   0  0  0  0  0  0  0  0  0  0  0  0
   20.7608   17.9140   23.1969 H   0  0  0  0  0  0  0  0  0  0  0  0
   19.3922   17.3060   21.6388 C   0  0  2  0  0  0  0  0  0  0  0  0
   20.0638   17.5603   20.8130 H   0  0  0  0  0  0  0  0  0  0  0  0
   17.9420   17.5293   21.1739 C   0  0  0  0  0  0  0  0  0  0  0  0
   17.2310   17.3436   21.9886 H   0  0  0  0  0  0  0  0  0  0  0  0
   17.7922   18.5536   20.8136 H   0  0  0  0  0  0  0  0  0  0  0  0
   17.6937   16.8545   20.3454 H   0  0  0  0  0  0  0  0  0  0  0  0
   19.6237   15.8517   21.9414 N   0  3  0  0  0  0  0  0  0  0  0  0
   19.4210   15.2637   21.1277 H   0  0  0  0  0  0  0  0  0  0  0  0
   19.0265   15.5293   22.7076 H   0  0  0  0  0  0  0  0  0  0  0  0
   20.5952   15.6728   22.2117 H   0  0  0  0  0  0  0  0  0  0  0  0
  1  2  1  0  0  0  0
  1  3  1  0  0  0  0
  1  4  1  0  0  0  0
  1  5  1  0  0  0  0
  5  6  1  0  0  0  0
  5  7  1  0  0  0  0
  5  8  1  0  0  0  0
  8  9  1  0  0  0  0
  8 10  1  0  0  0  0
  8 11  1  0  0  0  0
 11 12  1  0  0  0  0
 11 13  1  0  0  0  0
 11 14  1  0  0  0  0
 14 15  1  0  0  0  0
 14 16  1  0  0  0  0
 14 17  1  0  0  0  0
 17 18  1  0  0  0  0
 17 19  1  0  0  0  0
 17 20  1  0  0  0  0
 20 21  1  0  0  0  0
 20 22  1  0  0  0  0
 22 23  1  0  0  0  0
 22 24  1  0  0  0  0
 22 25  1  0  0  0  0
 20 26  1  0  0  0  0
 26 27  1  0  0  0  0
 26 28  1  0  0  0  0
 26 29  1  0  0  0  0
M  END
> <VConfSearch Rank>
671

> <Conf_Id>
130

> <Delta U+W>
1.359

> <U+W>
-26.467

> <U>
25.687

> <W>
-52.154

> <W(PB)>
-54.643

> <W(SA)>
2.489

> <Valence>
4.682

> <Coulomb>
19.653

> <VdW>
1.352

> <VdW6>
-9.477

> <VdW12>
10.829

> <Bond>
0.274

> <Angle>
1.550

> <Pdih>
2.858

> <Idih>
0.000

> <Tether>
0.000

$$$$
VeraChem MOL file


 29 28  0  0  0  0  0  0  0  0999 V2000     
   23.1985   20.4315   25.2546 C   0  0  0  0  0  0  0  0  0  0  0  0
   24.2744   20.2563   25.3842 H   0  0  0  0  0  0  0  0  0  0  0  0
   23.0043   21.4926   25.4581 H   0  0  0  0  0  0  0  0  0  0  0  0
   22.6743   19.8341   26.0107 H   0  0  0  0  0  0  0  0  0  0  0  0
   22.7575   20.0504   23.8232 C   0  0  0  0  0  0  0  0  0  0  0  0
   22.9311   18.9782   23.6561 H   0  0  0  0  0  0  0  0  0  0  0  0
   23.3965   20.5810   23.1036 H   0  0  0  0  0  0  0  0  0  0  0  0
   21.2789   20.3944   23.5208 C   0  0  0  0  0  0  0  0  0  0  0  0
   21.1161   21.4703   23.6720 H   0  0  0  0  0  0  0  0  0  0  0  0
   21.0948   20.2035   22.4561 H   0  0  0  0  0  0  0  0  0  0  0  0
   20.2713   19.5893   24.3809 C   0  0  0  0  0  0  0  0  0  0  0  0
   20.4221   19.8415   25.4386 H   0  0  0  0  0  0  0  0  0  0  0  0
   20.4808   18.5169   24.2874 H   0  0  0  0  0  0  0  0  0  0  0  0
   18.7918   19.8872   24.0238 C   0  0  0  0  0  0  0  0  0  0  0  0
   18.1397   19.5353   24.8351 H   0  0  0  0  0  0  0  0  0  0  0  0
   18.6564   20.9772   23.9928 H   0  0  0  0  0  0  0  0  0  0  0  0
   18.3121   19.2797   22.6763 C   0  0  0  0  0  0  0  0  0  0  0  0
   19.1494   19.1624   21.9782 H   0  0  0  0  0  0  0  0  0  0  0  0
   17.6319   20.0030   22.2076 H   0  0  0  0  0  0  0  0  0  0  0  0
   17.5489   17.9401   22.8085 C   0  0  2  0  0  0  0  0  0  0  0  0
   16.6974   18.0976   23.4776 H   0  0  0  0  0  0  0  0  0  0  0  0
   18.4193   16.8158   23.3949 C   0  0  0  0  0  0  0  0  0  0  0  0
   18.6987   17.0349   24.4319 H   0  0  0  0  0  0  0  0  0  0  0  0
   17.8711   15.8657   23.4023 H   0  0  0  0  0  0  0  0  0  0  0  0
   19.3361   16.6760   22.8087 H   0  0  0  0  0  0  0  0  0  0  0  0
   16.9733   17.5147   21.4863 N   0  3  0  0  0  0  0  0  0  0  0  0
   16.3513   18.2297   21.0982 H   0  0  0  0  0  0  0  0  0  0  0  0
   16.4277   16.6528   21.5762 H   0  0  0  0  0  0  0  0  0  0  0  0
   17.7094   17.3397   20.7971 H   0  0  0  0  0  0  0  0  0  0  0  0
  1  2  1  0  0  0  0
  1  3  1  0  0  0  0
  1  4  1  0  0  0  0
  1  5  1  0  0  0  0
  5  6  1  0  0  0  0
  5  7  1  0  0  0  0
  5  8  1  0  0  0  0
  8  9  1  0  0  0  0
  8 10  1  0  0  0  0
  8 11  1  0  0  0  0
 11 12  1  0  0  0  0
 11 13  1  0  0  0  0
 11 14  1  0  0  0  0
 14 15  1  0  0  0  0
 14 16  1  0  0  0  0
 14 17  1  0  0  0  0
 17 18  1  0  0  0  0
 17 19  1  0  0  0  0
 17 20  1  0  0  0  0
 20 21  1  0  0  0  0
 20 22  1  0  0  0  0
 22 23  1  0  0  0  0
 22 24  1  0  0  0  0
 22 25  1  0  0  0  0
 20 26  1  0  0  0  0
 26 27  1  0  0  0  0
 26 28  1  0  0  0  0
 26 29  1  0  0  0  0
M  END
> <VConfSearch Rank>
672

> <Conf_Id>
157

> <Delta U+W>
4.354

> <U+W>
-23.472

> <U>
28.780

> <W>
-52.252

> <W(PB)>
-54.715

> <W(SA)>
2.462

> <Valence>
7.566

> <Coulomb>
19.822

> <VdW>
1.392

> <VdW6>
-10.248

> <VdW12>
11.641

> <Bond>
0.340

> <Angle>
2.096

> <Pdih>
5.129

> <Idih>
0.000

> <Tether>
0.000

$$$$
VeraChem MOL file


 29 28  0  0  0  0  0  0  0  0999 V2000     
   16.2553   19.1962   24.8006 C   0  0  0  0  0  0  0  0  0  0  0  0
   15.5462   19.7922   25.3895 H   0  0  0  0  0  0  0  0  0  0  0  0
   16.6799   19.8499   24.0308 H   0  0  0  0  0  0  0  0  0  0  0  0
   15.6858   18.4055   24.2949 H   0  0  0  0  0  0  0  0  0  0  0  0
   17.3445   18.5909   25.7164 C   0  0  0  0  0  0  0  0  0  0  0  0
   16.8444   17.9656   26.4693 H   0  0  0  0  0  0  0  0  0  0  0  0
   17.8579   19.3849   26.2764 H   0  0  0  0  0  0  0  0  0  0  0  0
   18.3731   17.7176   24.9528 C   0  0  0  0  0  0  0  0  0  0  0  0
   18.6467   16.8706   25.5971 H   0  0  0  0  0  0  0  0  0  0  0  0
   17.9075   17.2729   24.0626 H   0  0  0  0  0  0  0  0  0  0  0  0
   19.6843   18.4464   24.5606 C   0  0  0  0  0  0  0  0  0  0  0  0
   20.3517   17.7078   24.0982 H   0  0  0  0  0  0  0  0  0  0  0  0
   20.1944   18.7922   25.4702 H   0  0  0  0  0  0  0  0  0  0  0  0
   19.4842   19.6429   23.5981 C   0  0  0  0  0  0  0  0  0  0  0  0
   18.9005   19.3262   22.7237 H   0  0  0  0  0  0  0  0  0  0  0  0
   18.8903   20.4150   24.1036 H   0  0  0  0  0  0  0  0  0  0  0  0
   20.8162   20.2933   23.1430 C   0  0  0  0  0  0  0  0  0  0  0  0
   21.3430   20.6753   24.0276 H   0  0  0  0  0  0  0  0  0  0  0  0
   20.5900   21.1687   22.5198 H   0  0  0  0  0  0  0  0  0  0  0  0
   21.7579   19.3459   22.3660 C   0  0  2  0  0  0  0  0  0  0  0  0
   22.0004   18.4951   23.0092 H   0  0  0  0  0  0  0  0  0  0  0  0
   23.0687   20.0665   22.0132 C   0  0  0  0  0  0  0  0  0  0  0  0
   22.8846   20.9289   21.3602 H   0  0  0  0  0  0  0  0  0  0  0  0
   23.5719   20.4255   22.9197 H   0  0  0  0  0  0  0  0  0  0  0  0
   23.7581   19.3875   21.4965 H   0  0  0  0  0  0  0  0  0  0  0  0
   21.1130   18.7835   21.1292 N   0  3  0  0  0  0  0  0  0  0  0  0
   20.2588   18.2682   21.3586 H   0  0  0  0  0  0  0  0  0  0  0  0
   21.7401   18.1388   20.6396 H   0  0  0  0  0  0  0  0  0  0  0  0
   20.8596   19.5252   20.4711 H   0  0  0  0  0  0  0  0  0  0  0  0
  1  2  1  0  0  0  0
  1  3  1  0  0  0  0
  1  4  1  0  0  0  0
  1  5  1  0  0  0  0
  5  6  1  0  0  0  0
  5  7  1  0  0  0  0
  5  8  1  0  0  0  0
  8  9  1  0  0  0  0
  8 10  1  0  0  0  0
  8 11  1  0  0  0  0
 11 12  1  0  0  0  0
 11 13  1  0  0  0  0
 11 14  1  0  0  0  0
 14 15  1  0  0  0  0
 14 16  1  0  0  0  0
 14 17  1  0  0  0  0
 17 18  1  0  0  0  0
 17 19  1  0  0  0  0
 17 20  1  0  0  0  0
 20 21  1  0  0  0  0
 20 22  1  0  0  0  0
 22 23  1  0  0  0  0
 22 24  1  0  0  0  0
 22 25  1  0  0  0  0
 20 26  1  0  0  0  0
 26 27  1  0  0  0  0
 26 28  1  0  0  0  0
 26 29  1  0  0  0  0
M  END
> <VConfSearch Rank>
673

> <Conf_Id>
158

> <Delta U+W>
3.648

> <U+W>
-24.178

> <U>
28.057

> <W>
-52.235

> <W(PB)>
-54.696

> <W(SA)>
2.460

> <Valence>
6.543

> <Coulomb>
20.387

> <VdW>
1.127

> <VdW6>
-10.342

> <VdW12>
11.469

> <Bond>
0.308

> <Angle>
1.938

> <Pdih>
4.297

> <Idih>
0.000

> <Tether>
0.000

$$$$
VeraChem MOL file


 29 28  0  0  0  0  0  0  0  0999 V2000     
   22.4613   17.8804   21.1945 C   0  0  0  0  0  0  0  0  0  0  0  0
   22.9000   18.8849   21.2540 H   0  0  0  0  0  0  0  0  0  0  0  0
   22.3698   17.4837   22.2132 H   0  0  0  0  0  0  0  0  0  0  0  0
   23.1669   17.2375   20.6526 H   0  0  0  0  0  0  0  0  0  0  0  0
   21.0952   17.9126   20.4723 C   0  0  0  0  0  0  0  0  0  0  0  0
   20.6624   16.9025   20.4545 H   0  0  0  0  0  0  0  0  0  0  0  0
   21.2564   18.1965   19.4230 H   0  0  0  0  0  0  0  0  0  0  0  0
   20.0878   18.9027   21.1050 C   0  0  0  0  0  0  0  0  0  0  0  0
   20.5181   19.9137   21.1039 H   0  0  0  0  0  0  0  0  0  0  0  0
   19.1942   18.9464   20.4672 H   0  0  0  0  0  0  0  0  0  0  0  0
   19.6646   18.5174   22.5425 C   0  0  0  0  0  0  0  0  0  0  0  0
   20.5414   18.5235   23.1992 H   0  0  0  0  0  0  0  0  0  0  0  0
   19.2778   17.4890   22.5449 H   0  0  0  0  0  0  0  0  0  0  0  0
   18.5797   19.4742   23.0950 C   0  0  0  0  0  0  0  0  0  0  0  0
   18.9182   20.5176   23.0307 H   0  0  0  0  0  0  0  0  0  0  0  0
   17.6968   19.4020   22.4447 H   0  0  0  0  0  0  0  0  0  0  0  0
   18.1481   19.1428   24.5483 C   0  0  0  0  0  0  0  0  0  0  0  0
   18.2931   18.0741   24.7547 H   0  0  0  0  0  0  0  0  0  0  0  0
   17.0667   19.3176   24.6243 H   0  0  0  0  0  0  0  0  0  0  0  0
   18.8348   19.9967   25.6415 C   0  0  2  0  0  0  0  0  0  0  0  0
   18.6271   21.0502   25.4305 H   0  0  0  0  0  0  0  0  0  0  0  0
   20.3606   19.8073   25.6783 C   0  0  0  0  0  0  0  0  0  0  0  0
   20.6276   18.7495   25.7937 H   0  0  0  0  0  0  0  0  0  0  0  0
   20.8262   20.1875   24.7617 H   0  0  0  0  0  0  0  0  0  0  0  0
   20.7993   20.3628   26.5163 H   0  0  0  0  0  0  0  0  0  0  0  0
   18.2442   19.7137   26.9949 N   0  3  0  0  0  0  0  0  0  0  0  0
   17.2338   19.8802   27.0079 H   0  0  0  0  0  0  0  0  0  0  0  0
   18.6603   20.3095   27.7164 H   0  0  0  0  0  0  0  0  0  0  0  0
   18.3996   18.7415   27.2746 H   0  0  0  0  0  0  0  0  0  0  0  0
  1  2  1  0  0  0  0
  1  3  1  0  0  0  0
  1  4  1  0  0  0  0
  1  5  1  0  0  0  0
  5  6  1  0  0  0  0
  5  7  1  0  0  0  0
  5  8  1  0  0  0  0
  8  9  1  0  0  0  0
  8 10  1  0  0  0  0
  8 11  1  0  0  0  0
 11 12  1  0  0  0  0
 11 13  1  0  0  0  0
 11 14  1  0  0  0  0
 14 15  1  0  0  0  0
 14 16  1  0  0  0  0
 14 17  1  0  0  0  0
 17 18  1  0  0  0  0
 17 19  1  0  0  0  0
 17 20  1  0  0  0  0
 20 21  1  0  0  0  0
 20 22  1  0  0  0  0
 22 23  1  0  0  0  0
 22 24  1  0  0  0  0
 22 25  1  0  0  0  0
 20 26  1  0  0  0  0
 26 27  1  0  0  0  0
 26 28  1  0  0  0  0
 26 29  1  0  0  0  0
M  END
> <VConfSearch Rank>
674

> <Conf_Id>
156

> <Delta U+W>
3.393

> <U+W>
-24.433

> <U>
27.713

> <W>
-52.146

> <W(PB)>
-54.603

> <W(SA)>
2.458

> <Valence>
6.758

> <Coulomb>
19.720

> <VdW>
1.235

> <VdW6>
-9.782

> <VdW12>
11.017

> <Bond>
0.287

> <Angle>
1.880

> <Pdih>
4.591

> <Idih>
0.000

> <Tether>
0.000

$$$$
VeraChem MOL file


 29 28  0  0  0  0  0  0  0  0999 V2000     
   23.2263   17.5507   22.8273 C   0  0  0  0  0  0  0  0  0  0  0  0
   23.6406   18.5512   23.0078 H   0  0  0  0  0  0  0  0  0  0  0  0
   23.7459   16.8415   23.4848 H   0  0  0  0  0  0  0  0  0  0  0  0
   23.4516   17.2747   21.7890 H   0  0  0  0  0  0  0  0  0  0  0  0
   21.7038   17.5279   23.0790 C   0  0  0  0  0  0  0  0  0  0  0  0
   21.3131   16.5239   22.8624 H   0  0  0  0  0  0  0  0  0  0  0  0
   21.2169   18.2182   22.3776 H   0  0  0  0  0  0  0  0  0  0  0  0
   21.3609   17.9183   24.5358 C   0  0  0  0  0  0  0  0  0  0  0  0
   21.9186   17.2646   25.2204 H   0  0  0  0  0  0  0  0  0  0  0  0
   21.7144   18.9374   24.7405 H   0  0  0  0  0  0  0  0  0  0  0  0
   19.8517   17.8006   24.8727 C   0  0  0  0  0  0  0  0  0  0  0  0
   19.7039   18.0719   25.9271 H   0  0  0  0  0  0  0  0  0  0  0  0
   19.5517   16.7469   24.7898 H   0  0  0  0  0  0  0  0  0  0  0  0
   18.9022   18.6571   23.9954 C   0  0  0  0  0  0  0  0  0  0  0  0
   18.9509   18.3124   22.9549 H   0  0  0  0  0  0  0  0  0  0  0  0
   17.8748   18.4653   24.3302 H   0  0  0  0  0  0  0  0  0  0  0  0
   19.1980   20.1800   24.0716 C   0  0  0  0  0  0  0  0  0  0  0  0
   20.2149   20.3747   23.7095 H   0  0  0  0  0  0  0  0  0  0  0  0
   19.1826   20.5011   25.1214 H   0  0  0  0  0  0  0  0  0  0  0  0
   18.2276   21.0728   23.2626 C   0  0  2  0  0  0  0  0  0  0  0  0
   18.5795   22.1046   23.3594 H   0  0  0  0  0  0  0  0  0  0  0  0
   16.7921   21.0198   23.8140 C   0  0  0  0  0  0  0  0  0  0  0  0
   16.1626   21.7668   23.3150 H   0  0  0  0  0  0  0  0  0  0  0  0
   16.3319   20.0372   23.6570 H   0  0  0  0  0  0  0  0  0  0  0  0
   16.7788   21.2387   24.8889 H   0  0  0  0  0  0  0  0  0  0  0  0
   18.2519   20.7604   21.7917 N   0  3  0  0  0  0  0  0  0  0  0  0
   19.1973   20.8405   21.4066 H   0  0  0  0  0  0  0  0  0  0  0  0
   17.6508   21.3998   21.2640 H   0  0  0  0  0  0  0  0  0  0  0  0
   17.9230   19.8090   21.6097 H   0  0  0  0  0  0  0  0  0  0  0  0
  1  2  1  0  0  0  0
  1  3  1  0  0  0  0
  1  4  1  0  0  0  0
  1  5  1  0  0  0  0
  5  6  1  0  0  0  0
  5  7  1  0  0  0  0
  5  8  1  0  0  0  0
  8  9  1  0  0  0  0
  8 10  1  0  0  0  0
  8 11  1  0  0  0  0
 11 12  1  0  0  0  0
 11 13  1  0  0  0  0
 11 14  1  0  0  0  0
 14 15  1  0  0  0  0
 14 16  1  0  0  0  0
 14 17  1  0  0  0  0
 17 18  1  0  0  0  0
 17 19  1  0  0  0  0
 17 20  1  0  0  0  0
 20 21  1  0  0  0  0
 20 22  1  0  0  0  0
 22 23  1  0  0  0  0
 22 24  1  0  0  0  0
 22 25  1  0  0  0  0
 20 26  1  0  0  0  0
 26 27  1  0  0  0  0
 26 28  1  0  0  0  0
 26 29  1  0  0  0  0
M  END
> <VConfSearch Rank>
675

> <Conf_Id>
78

> <Delta U+W>
1.477

> <U+W>
-26.349

> <U>
26.385

> <W>
-52.734

> <W(PB)>
-55.179

> <W(SA)>
2.445

> <Valence>
4.726

> <Coulomb>
20.482

> <VdW>
1.177

> <VdW6>
-10.349

> <VdW12>
11.526

> <Bond>
0.319

> <Angle>
1.933

> <Pdih>
2.474

> <Idih>
0.000

> <Tether>
0.000

$$$$
VeraChem MOL file


 29 28  0  0  0  0  0  0  0  0999 V2000     
   21.5338   16.1786   21.9408 C   0  0  0  0  0  0  0  0  0  0  0  0
   21.4318   16.2597   20.8508 H   0  0  0  0  0  0  0  0  0  0  0  0
   22.0064   17.0978   22.3039 H   0  0  0  0  0  0  0  0  0  0  0  0
   22.2188   15.3468   22.1500 H   0  0  0  0  0  0  0  0  0  0  0  0
   20.1601   15.9283   22.6055 C   0  0  0  0  0  0  0  0  0  0  0  0
   20.2812   15.7708   23.6863 H   0  0  0  0  0  0  0  0  0  0  0  0
   19.7575   14.9867   22.2065 H   0  0  0  0  0  0  0  0  0  0  0  0
   19.1332   17.0583   22.3367 C   0  0  0  0  0  0  0  0  0  0  0  0
   19.3478   17.5464   21.3761 H   0  0  0  0  0  0  0  0  0  0  0  0
   18.1422   16.5984   22.2193 H   0  0  0  0  0  0  0  0  0  0  0  0
   19.0231   18.1209   23.4605 C   0  0  0  0  0  0  0  0  0  0  0  0
   18.7022   17.6343   24.3919 H   0  0  0  0  0  0  0  0  0  0  0  0
   18.2194   18.8160   23.1851 H   0  0  0  0  0  0  0  0  0  0  0  0
   20.3286   18.9129   23.7179 C   0  0  0  0  0  0  0  0  0  0  0  0
   21.1041   18.2223   24.0728 H   0  0  0  0  0  0  0  0  0  0  0  0
   20.7013   19.3367   22.7762 H   0  0  0  0  0  0  0  0  0  0  0  0
   20.1690   20.0304   24.7814 C   0  0  0  0  0  0  0  0  0  0  0  0
   21.1421   20.5152   24.9356 H   0  0  0  0  0  0  0  0  0  0  0  0
   19.9077   19.5620   25.7395 H   0  0  0  0  0  0  0  0  0  0  0  0
   19.1110   21.1103   24.4528 C   0  0  2  0  0  0  0  0  0  0  0  0
   18.1432   20.6183   24.3200 H   0  0  0  0  0  0  0  0  0  0  0  0
   19.4479   21.8780   23.1622 C   0  0  0  0  0  0  0  0  0  0  0  0
   18.7118   22.6706   22.9804 H   0  0  0  0  0  0  0  0  0  0  0  0
   20.4401   22.3422   23.2243 H   0  0  0  0  0  0  0  0  0  0  0  0
   19.4322   21.2145   22.2897 H   0  0  0  0  0  0  0  0  0  0  0  0
   18.9413   22.0677   25.5994 N   0  3  0  0  0  0  0  0  0  0  0  0
   19.8070   22.5794   25.7904 H   0  0  0  0  0  0  0  0  0  0  0  0
   18.6749   21.5814   26.4605 H   0  0  0  0  0  0  0  0  0  0  0  0
   18.2136   22.7610   25.4034 H   0  0  0  0  0  0  0  0  0  0  0  0
  1  2  1  0  0  0  0
  1  3  1  0  0  0  0
  1  4  1  0  0  0  0
  1  5  1  0  0  0  0
  5  6  1  0  0  0  0
  5  7  1  0  0  0  0
  5  8  1  0  0  0  0
  8  9  1  0  0  0  0
  8 10  1  0  0  0  0
  8 11  1  0  0  0  0
 11 12  1  0  0  0  0
 11 13  1  0  0  0  0
 11 14  1  0  0  0  0
 14 15  1  0  0  0  0
 14 16  1  0  0  0  0
 14 17  1  0  0  0  0
 17 18  1  0  0  0  0
 17 19  1  0  0  0  0
 17 20  1  0  0  0  0
 20 21  1  0  0  0  0
 20 22  1  0  0  0  0
 22 23  1  0  0  0  0
 22 24  1  0  0  0  0
 22 25  1  0  0  0  0
 20 26  1  0  0  0  0
 26 27  1  0  0  0  0
 26 28  1  0  0  0  0
 26 29  1  0  0  0  0
M  END
> <VConfSearch Rank>
676

> <Conf_Id>
145

> <Delta U+W>
3.784

> <U+W>
-24.042

> <U>
28.220

> <W>
-52.262

> <W(PB)>
-54.724

> <W(SA)>
2.462

> <Valence>
7.040

> <Coulomb>
19.984

> <VdW>
1.197

> <VdW6>
-10.566

> <VdW12>
11.763

> <Bond>
0.320

> <Angle>
2.280

> <Pdih>
4.439

> <Idih>
0.000

> <Tether>
0.000

$$$$
VeraChem MOL file


 29 28  0  0  0  0  0  0  0  0999 V2000     
   18.1092   16.8614   26.2545 C   0  0  0  0  0  0  0  0  0  0  0  0
   18.6080   16.5202   27.1710 H   0  0  0  0  0  0  0  0  0  0  0  0
   17.5998   17.8086   26.4747 H   0  0  0  0  0  0  0  0  0  0  0  0
   17.3435   16.1200   25.9917 H   0  0  0  0  0  0  0  0  0  0  0  0
   19.1214   17.0314   25.1021 C   0  0  0  0  0  0  0  0  0  0  0  0
   18.5849   17.3299   24.1935 H   0  0  0  0  0  0  0  0  0  0  0  0
   19.5877   16.0605   24.8839 H   0  0  0  0  0  0  0  0  0  0  0  0
   20.2187   18.0643   25.4551 C   0  0  0  0  0  0  0  0  0  0  0  0
   19.7655   19.0229   25.7427 H   0  0  0  0  0  0  0  0  0  0  0  0
   20.7529   17.7035   26.3449 H   0  0  0  0  0  0  0  0  0  0  0  0
   21.2502   18.2810   24.3173 C   0  0  0  0  0  0  0  0  0  0  0  0
   21.3352   17.3752   23.7013 H   0  0  0  0  0  0  0  0  0  0  0  0
   22.2395   18.4201   24.7750 H   0  0  0  0  0  0  0  0  0  0  0  0
   20.9758   19.5137   23.4176 C   0  0  0  0  0  0  0  0  0  0  0  0
   21.0029   20.4205   24.0362 H   0  0  0  0  0  0  0  0  0  0  0  0
   21.8082   19.6004   22.7077 H   0  0  0  0  0  0  0  0  0  0  0  0
   19.6331   19.4468   22.6420 C   0  0  0  0  0  0  0  0  0  0  0  0
   18.8023   19.4505   23.3579 H   0  0  0  0  0  0  0  0  0  0  0  0
   19.5707   18.4938   22.1004 H   0  0  0  0  0  0  0  0  0  0  0  0
   19.3991   20.6047   21.6431 C   0  0  2  0  0  0  0  0  0  0  0  0
   18.3948   20.4761   21.2275 H   0  0  0  0  0  0  0  0  0  0  0  0
   20.3928   20.5695   20.4686 C   0  0  0  0  0  0  0  0  0  0  0  0
   20.1132   21.3094   19.7087 H   0  0  0  0  0  0  0  0  0  0  0  0
   21.4154   20.7948   20.7931 H   0  0  0  0  0  0  0  0  0  0  0  0
   20.3934   19.5835   19.9876 H   0  0  0  0  0  0  0  0  0  0  0  0
   19.4038   21.9510   22.3132 N   0  3  0  0  0  0  0  0  0  0  0  0
   20.3183   22.1576   22.7227 H   0  0  0  0  0  0  0  0  0  0  0  0
   18.7105   21.9984   23.0653 H   0  0  0  0  0  0  0  0  0  0  0  0
   19.1877   22.7002   21.6493 H   0  0  0  0  0  0  0  0  0  0  0  0
  1  2  1  0  0  0  0
  1  3  1  0  0  0  0
  1  4  1  0  0  0  0
  1  5  1  0  0  0  0
  5  6  1  0  0  0  0
  5  7  1  0  0  0  0
  5  8  1  0  0  0  0
  8  9  1  0  0  0  0
  8 10  1  0  0  0  0
  8 11  1  0  0  0  0
 11 12  1  0  0  0  0
 11 13  1  0  0  0  0
 11 14  1  0  0  0  0
 14 15  1  0  0  0  0
 14 16  1  0  0  0  0
 14 17  1  0  0  0  0
 17 18  1  0  0  0  0
 17 19  1  0  0  0  0
 17 20  1  0  0  0  0
 20 21  1  0  0  0  0
 20 22  1  0  0  0  0
 22 23  1  0  0  0  0
 22 24  1  0  0  0  0
 22 25  1  0  0  0  0
 20 26  1  0  0  0  0
 26 27  1  0  0  0  0
 26 28  1  0  0  0  0
 26 29  1  0  0  0  0
M  END
> <VConfSearch Rank>
677

> <Conf_Id>
71

> <Delta U+W>
3.542

> <U+W>
-24.284

> <U>
28.217

> <W>
-52.501

> <W(PB)>
-54.947

> <W(SA)>
2.446

> <Valence>
6.821

> <Coulomb>
20.147

> <VdW>
1.249

> <VdW6>
-10.237

> <VdW12>
11.486

> <Bond>
0.317

> <Angle>
1.990

> <Pdih>
4.515

> <Idih>
0.000

> <Tether>
0.000

$$$$
VeraChem MOL file


 29 28  0  0  0  0  0  0  0  0999 V2000     
   17.3953   17.3631   26.0805 C   0  0  0  0  0  0  0  0  0  0  0  0
   16.8136   17.2146   25.1614 H   0  0  0  0  0  0  0  0  0  0  0  0
   17.5750   16.3797   26.5342 H   0  0  0  0  0  0  0  0  0  0  0  0
   16.7814   17.9485   26.7772 H   0  0  0  0  0  0  0  0  0  0  0  0
   18.7247   18.0885   25.7836 C   0  0  0  0  0  0  0  0  0  0  0  0
   19.2660   18.2518   26.7260 H   0  0  0  0  0  0  0  0  0  0  0  0
   18.5075   19.0819   25.3733 H   0  0  0  0  0  0  0  0  0  0  0  0
   19.6126   17.2755   24.8110 C   0  0  0  0  0  0  0  0  0  0  0  0
   19.8288   16.3046   25.2780 H   0  0  0  0  0  0  0  0  0  0  0  0
   19.0629   17.0507   23.8867 H   0  0  0  0  0  0  0  0  0  0  0  0
   20.9590   17.9690   24.4763 C   0  0  0  0  0  0  0  0  0  0  0  0
   21.7301   17.1913   24.3861 H   0  0  0  0  0  0  0  0  0  0  0  0
   21.2789   18.6060   25.3123 H   0  0  0  0  0  0  0  0  0  0  0  0
   20.9599   18.7806   23.1552 C   0  0  0  0  0  0  0  0  0  0  0  0
   21.9796   19.1503   22.9863 H   0  0  0  0  0  0  0  0  0  0  0  0
   20.7367   18.1020   22.3212 H   0  0  0  0  0  0  0  0  0  0  0  0
   19.9671   19.9732   23.1425 C   0  0  0  0  0  0  0  0  0  0  0  0
   20.1059   20.5706   24.0529 H   0  0  0  0  0  0  0  0  0  0  0  0
   18.9393   19.5911   23.1760 H   0  0  0  0  0  0  0  0  0  0  0  0
   20.0923   20.9095   21.9174 C   0  0  2  0  0  0  0  0  0  0  0  0
   19.3431   21.6988   22.0336 H   0  0  0  0  0  0  0  0  0  0  0  0
   19.7958   20.1762   20.5977 C   0  0  0  0  0  0  0  0  0  0  0  0
   18.8237   19.6698   20.6431 H   0  0  0  0  0  0  0  0  0  0  0  0
   19.7621   20.8870   19.7630 H   0  0  0  0  0  0  0  0  0  0  0  0
   20.5635   19.4273   20.3693 H   0  0  0  0  0  0  0  0  0  0  0  0
   21.4240   21.6060   21.8595 N   0  3  0  0  0  0  0  0  0  0  0  0
   21.6101   22.1321   22.7182 H   0  0  0  0  0  0  0  0  0  0  0  0
   21.4661   22.2681   21.0795 H   0  0  0  0  0  0  0  0  0  0  0  0
   22.1880   20.9371   21.7359 H   0  0  0  0  0  0  0  0  0  0  0  0
  1  2  1  0  0  0  0
  1  3  1  0  0  0  0
  1  4  1  0  0  0  0
  1  5  1  0  0  0  0
  5  6  1  0  0  0  0
  5  7  1  0  0  0  0
  5  8  1  0  0  0  0
  8  9  1  0  0  0  0
  8 10  1  0  0  0  0
  8 11  1  0  0  0  0
 11 12  1  0  0  0  0
 11 13  1  0  0  0  0
 11 14  1  0  0  0  0
 14 15  1  0  0  0  0
 14 16  1  0  0  0  0
 14 17  1  0  0  0  0
 17 18  1  0  0  0  0
 17 19  1  0  0  0  0
 17 20  1  0  0  0  0
 20 21  1  0  0  0  0
 20 22  1  0  0  0  0
 22 23  1  0  0  0  0
 22 24  1  0  0  0  0
 22 25  1  0  0  0  0
 20 26  1  0  0  0  0
 26 27  1  0  0  0  0
 26 28  1  0  0  0  0
 26 29  1  0  0  0  0
M  END
> <VConfSearch Rank>
678

> <Conf_Id>
163

> <Delta U+W>
3.309

> <U+W>
-24.517

> <U>
27.916

> <W>
-52.433

> <W(PB)>
-54.866

> <W(SA)>
2.433

> <Valence>
6.693

> <Coulomb>
20.015

> <VdW>
1.208

> <VdW6>
-10.294

> <VdW12>
11.503

> <Bond>
0.312

> <Angle>
1.939

> <Pdih>
4.441

> <Idih>
0.000

> <Tether>
0.000

$$$$
VeraChem MOL file


 29 28  0  0  0  0  0  0  0  0999 V2000     
   22.0858   19.6960   20.2904 C   0  0  0  0  0  0  0  0  0  0  0  0
   21.9829   20.7688   20.0819 H   0  0  0  0  0  0  0  0  0  0  0  0
   22.8440   19.5684   21.0728 H   0  0  0  0  0  0  0  0  0  0  0  0
   22.4663   19.2125   19.3814 H   0  0  0  0  0  0  0  0  0  0  0  0
   20.7310   19.0779   20.7043 C   0  0  0  0  0  0  0  0  0  0  0  0
   20.8668   18.0135   20.9416 H   0  0  0  0  0  0  0  0  0  0  0  0
   20.0488   19.1161   19.8435 H   0  0  0  0  0  0  0  0  0  0  0  0
   20.0615   19.7996   21.8987 C   0  0  0  0  0  0  0  0  0  0  0  0
   19.9242   20.8621   21.6554 H   0  0  0  0  0  0  0  0  0  0  0  0
   19.0564   19.3781   22.0279 H   0  0  0  0  0  0  0  0  0  0  0  0
   20.8543   19.6645   23.2235 C   0  0  0  0  0  0  0  0  0  0  0  0
   21.8592   20.0855   23.0915 H   0  0  0  0  0  0  0  0  0  0  0  0
   20.9995   18.6023   23.4602 H   0  0  0  0  0  0  0  0  0  0  0  0
   20.1882   20.3919   24.4205 C   0  0  0  0  0  0  0  0  0  0  0  0
   20.8396   20.2962   25.2995 H   0  0  0  0  0  0  0  0  0  0  0  0
   20.1416   21.4679   24.2034 H   0  0  0  0  0  0  0  0  0  0  0  0
   18.7630   19.8943   24.7820 C   0  0  0  0  0  0  0  0  0  0  0  0
   18.0689   20.1728   23.9789 H   0  0  0  0  0  0  0  0  0  0  0  0
   18.4154   20.4292   25.6758 H   0  0  0  0  0  0  0  0  0  0  0  0
   18.6695   18.3725   25.0291 C   0  0  2  0  0  0  0  0  0  0  0  0
   19.0158   17.8560   24.1289 H   0  0  0  0  0  0  0  0  0  0  0  0
   17.2120   17.9600   25.2880 C   0  0  0  0  0  0  0  0  0  0  0  0
   17.1346   16.8747   25.4271 H   0  0  0  0  0  0  0  0  0  0  0  0
   16.8144   18.4491   26.1861 H   0  0  0  0  0  0  0  0  0  0  0  0
   16.5732   18.2332   24.4388 H   0  0  0  0  0  0  0  0  0  0  0  0
   19.5568   17.9219   26.1567 N   0  3  0  0  0  0  0  0  0  0  0  0
   20.5349   18.1660   25.9788 H   0  0  0  0  0  0  0  0  0  0  0  0
   19.5104   16.9075   26.2883 H   0  0  0  0  0  0  0  0  0  0  0  0
   19.2856   18.3593   27.0413 H   0  0  0  0  0  0  0  0  0  0  0  0
  1  2  1  0  0  0  0
  1  3  1  0  0  0  0
  1  4  1  0  0  0  0
  1  5  1  0  0  0  0
  5  6  1  0  0  0  0
  5  7  1  0  0  0  0
  5  8  1  0  0  0  0
  8  9  1  0  0  0  0
  8 10  1  0  0  0  0
  8 11  1  0  0  0  0
 11 12  1  0  0  0  0
 11 13  1  0  0  0  0
 11 14  1  0  0  0  0
 14 15  1  0  0  0  0
 14 16  1  0  0  0  0
 14 17  1  0  0  0  0
 17 18  1  0  0  0  0
 17 19  1  0  0  0  0
 17 20  1  0  0  0  0
 20 21  1  0  0  0  0
 20 22  1  0  0  0  0
 22 23  1  0  0  0  0
 22 24  1  0  0  0  0
 22 25  1  0  0  0  0
 20 26  1  0  0  0  0
 26 27  1  0  0  0  0
 26 28  1  0  0  0  0
 26 29  1  0  0  0  0
M  END
> <VConfSearch Rank>
679

> <Conf_Id>
173

> <Delta U+W>
1.363

> <U+W>
-26.462

> <U>
25.816

> <W>
-52.279

> <W(PB)>
-54.727

> <W(SA)>
2.449

> <Valence>
4.504

> <Coulomb>
20.342

> <VdW>
0.971

> <VdW6>
-10.532

> <VdW12>
11.503

> <Bond>
0.307

> <Angle>
1.715

> <Pdih>
2.481

> <Idih>
0.000

> <Tether>
0.000

$$$$
VeraChem MOL file


 29 28  0  0  0  0  0  0  0  0999 V2000     
   17.7384   16.3101   21.7250 C   0  0  0  0  0  0  0  0  0  0  0  0
   16.9918   16.1306   22.5096 H   0  0  0  0  0  0  0  0  0  0  0  0
   17.2078   16.4573   20.7752 H   0  0  0  0  0  0  0  0  0  0  0  0
   18.3528   15.4054   21.6308 H   0  0  0  0  0  0  0  0  0  0  0  0
   18.6170   17.5324   22.0655 C   0  0  0  0  0  0  0  0  0  0  0  0
   19.3700   17.6707   21.2772 H   0  0  0  0  0  0  0  0  0  0  0  0
   19.1574   17.3300   22.9996 H   0  0  0  0  0  0  0  0  0  0  0  0
   17.7722   18.8182   22.2140 C   0  0  0  0  0  0  0  0  0  0  0  0
   17.1479   18.9404   21.3181 H   0  0  0  0  0  0  0  0  0  0  0  0
   17.0769   18.7017   23.0567 H   0  0  0  0  0  0  0  0  0  0  0  0
   18.6032   20.1130   22.4078 C   0  0  0  0  0  0  0  0  0  0  0  0
   17.8972   20.9534   22.4602 H   0  0  0  0  0  0  0  0  0  0  0  0
   19.2210   20.3016   21.5191 H   0  0  0  0  0  0  0  0  0  0  0  0
   19.4777   20.1352   23.6885 C   0  0  0  0  0  0  0  0  0  0  0  0
   19.4707   21.1574   24.0893 H   0  0  0  0  0  0  0  0  0  0  0  0
   19.0169   19.5027   24.4581 H   0  0  0  0  0  0  0  0  0  0  0  0
   20.9513   19.7159   23.4284 C   0  0  0  0  0  0  0  0  0  0  0  0
   21.3921   20.4036   22.6949 H   0  0  0  0  0  0  0  0  0  0  0  0
   20.9885   18.7245   22.9633 H   0  0  0  0  0  0  0  0  0  0  0  0
   21.8544   19.7015   24.6841 C   0  0  2  0  0  0  0  0  0  0  0  0
   22.8676   19.4541   24.3526 H   0  0  0  0  0  0  0  0  0  0  0  0
   21.4211   18.6243   25.6939 C   0  0  0  0  0  0  0  0  0  0  0  0
   21.3487   17.6424   25.2099 H   0  0  0  0  0  0  0  0  0  0  0  0
   22.1554   18.5417   26.5045 H   0  0  0  0  0  0  0  0  0  0  0  0
   20.4497   18.8573   26.1456 H   0  0  0  0  0  0  0  0  0  0  0  0
   21.9489   21.0507   25.3416 N   0  3  0  0  0  0  0  0  0  0  0  0
   22.2801   21.7649   24.6868 H   0  0  0  0  0  0  0  0  0  0  0  0
   22.5980   21.0363   26.1335 H   0  0  0  0  0  0  0  0  0  0  0  0
   21.0387   21.3549   25.6959 H   0  0  0  0  0  0  0  0  0  0  0  0
  1  2  1  0  0  0  0
  1  3  1  0  0  0  0
  1  4  1  0  0  0  0
  1  5  1  0  0  0  0
  5  6  1  0  0  0  0
  5  7  1  0  0  0  0
  5  8  1  0  0  0  0
  8  9  1  0  0  0  0
  8 10  1  0  0  0  0
  8 11  1  0  0  0  0
 11 12  1  0  0  0  0
 11 13  1  0  0  0  0
 11 14  1  0  0  0  0
 14 15  1  0  0  0  0
 14 16  1  0  0  0  0
 14 17  1  0  0  0  0
 17 18  1  0  0  0  0
 17 19  1  0  0  0  0
 17 20  1  0  0  0  0
 20 21  1  0  0  0  0
 20 22  1  0  0  0  0
 22 23  1  0  0  0  0
 22 24  1  0  0  0  0
 22 25  1  0  0  0  0
 20 26  1  0  0  0  0
 26 27  1  0  0  0  0
 26 28  1  0  0  0  0
 26 29  1  0  0  0  0
M  END
> <VConfSearch Rank>
680

> <Conf_Id>
117

> <Delta U+W>
3.377

> <U+W>
-24.449

> <U>
27.947

> <W>
-52.396

> <W(PB)>
-54.842

> <W(SA)>
2.447

> <Valence>
6.731

> <Coulomb>
20.067

> <VdW>
1.149

> <VdW6>
-10.427

> <VdW12>
11.575

> <Bond>
0.324

> <Angle>
1.943

> <Pdih>
4.465

> <Idih>
0.000

> <Tether>
0.000

$$$$
VeraChem MOL file


 29 28  0  0  0  0  0  0  0  0999 V2000     
   18.7054   17.4171   27.9066 C   0  0  0  0  0  0  0  0  0  0  0  0
   19.5419   16.7062   27.8937 H   0  0  0  0  0  0  0  0  0  0  0  0
   19.0300   18.3174   28.4445 H   0  0  0  0  0  0  0  0  0  0  0  0
   17.8848   16.9617   28.4760 H   0  0  0  0  0  0  0  0  0  0  0  0
   18.2485   17.7618   26.4734 C   0  0  0  0  0  0  0  0  0  0  0  0
   17.3905   18.4471   26.5192 H   0  0  0  0  0  0  0  0  0  0  0  0
   17.8984   16.8483   25.9726 H   0  0  0  0  0  0  0  0  0  0  0  0
   19.3860   18.4048   25.6496 C   0  0  0  0  0  0  0  0  0  0  0  0
   19.7342   19.3162   26.1551 H   0  0  0  0  0  0  0  0  0  0  0  0
   20.2421   17.7172   25.6087 H   0  0  0  0  0  0  0  0  0  0  0  0
   18.9322   18.7516   24.2137 C   0  0  0  0  0  0  0  0  0  0  0  0
   18.0752   19.4381   24.2563 H   0  0  0  0  0  0  0  0  0  0  0  0
   18.5844   17.8396   23.7088 H   0  0  0  0  0  0  0  0  0  0  0  0
   20.0703   19.3955   23.3901 C   0  0  0  0  0  0  0  0  0  0  0  0
   20.4150   20.3093   23.8940 H   0  0  0  0  0  0  0  0  0  0  0  0
   20.9248   18.7065   23.3577 H   0  0  0  0  0  0  0  0  0  0  0  0
   19.6133   19.7406   21.9519 C   0  0  0  0  0  0  0  0  0  0  0  0
   18.7261   20.3855   22.0067 H   0  0  0  0  0  0  0  0  0  0  0  0
   19.3037   18.8250   21.4306 H   0  0  0  0  0  0  0  0  0  0  0  0
   20.7031   20.4627   21.1305 C   0  0  2  0  0  0  0  0  0  0  0  0
   21.0116   21.3569   21.6809 H   0  0  0  0  0  0  0  0  0  0  0  0
   20.1421   20.9036   19.7692 C   0  0  0  0  0  0  0  0  0  0  0  0
   20.9007   21.4495   19.1948 H   0  0  0  0  0  0  0  0  0  0  0  0
   19.8189   20.0399   19.1745 H   0  0  0  0  0  0  0  0  0  0  0  0
   19.2804   21.5701   19.8999 H   0  0  0  0  0  0  0  0  0  0  0  0
   21.9363   19.6215   20.9447 N   0  3  0  0  0  0  0  0  0  0  0  0
   22.3471   19.3569   21.8441 H   0  0  0  0  0  0  0  0  0  0  0  0
   22.6551   20.1231   20.4152 H   0  0  0  0  0  0  0  0  0  0  0  0
   21.7261   18.7589   20.4355 H   0  0  0  0  0  0  0  0  0  0  0  0
  1  2  1  0  0  0  0
  1  3  1  0  0  0  0
  1  4  1  0  0  0  0
  1  5  1  0  0  0  0
  5  6  1  0  0  0  0
  5  7  1  0  0  0  0
  5  8  1  0  0  0  0
  8  9  1  0  0  0  0
  8 10  1  0  0  0  0
  8 11  1  0  0  0  0
 11 12  1  0  0  0  0
 11 13  1  0  0  0  0
 11 14  1  0  0  0  0
 14 15  1  0  0  0  0
 14 16  1  0  0  0  0
 14 17  1  0  0  0  0
 17 18  1  0  0  0  0
 17 19  1  0  0  0  0
 17 20  1  0  0  0  0
 20 21  1  0  0  0  0
 20 22  1  0  0  0  0
 22 23  1  0  0  0  0
 22 24  1  0  0  0  0
 22 25  1  0  0  0  0
 20 26  1  0  0  0  0
 26 27  1  0  0  0  0
 26 28  1  0  0  0  0
 26 29  1  0  0  0  0
M  END
> <VConfSearch Rank>
681

> <Conf_Id>
164

> <Delta U+W>
0.000

> <U+W>
-27.826

> <U>
23.963

> <W>
-51.789

> <W(PB)>
-54.342

> <W(SA)>
2.554

> <Valence>
3.166

> <Coulomb>
19.734

> <VdW>
1.062

> <VdW6>
-7.938

> <VdW12>
9.001

> <Bond>
0.188

> <Angle>
0.880

> <Pdih>
2.098

> <Idih>
0.000

> <Tether>
0.000

$$$$
VeraChem MOL file


 29 28  0  0  0  0  0  0  0  0999 V2000     
   19.6499   23.6693   21.8994 C   0  0  0  0  0  0  0  0  0  0  0  0
   20.7106   23.7105   21.6192 H   0  0  0  0  0  0  0  0  0  0  0  0
   19.0706   23.3987   21.0070 H   0  0  0  0  0  0  0  0  0  0  0  0
   19.3433   24.6773   22.2075 H   0  0  0  0  0  0  0  0  0  0  0  0
   19.4166   22.6563   23.0401 C   0  0  0  0  0  0  0  0  0  0  0  0
   18.3542   22.6620   23.3212 H   0  0  0  0  0  0  0  0  0  0  0  0
   19.9815   22.9714   23.9287 H   0  0  0  0  0  0  0  0  0  0  0  0
   19.8405   21.2280   22.6321 C   0  0  0  0  0  0  0  0  0  0  0  0
   19.2751   20.9185   21.7422 H   0  0  0  0  0  0  0  0  0  0  0  0
   20.9025   21.2278   22.3500 H   0  0  0  0  0  0  0  0  0  0  0  0
   19.6083   20.2107   23.7720 C   0  0  0  0  0  0  0  0  0  0  0  0
   18.5461   20.2113   24.0533 H   0  0  0  0  0  0  0  0  0  0  0  0
   20.1732   20.5223   24.6614 H   0  0  0  0  0  0  0  0  0  0  0  0
   20.0330   18.7819   23.3634 C   0  0  0  0  0  0  0  0  0  0  0  0
   19.4694   18.4840   22.4696 H   0  0  0  0  0  0  0  0  0  0  0  0
   21.0965   18.7806   23.0870 H   0  0  0  0  0  0  0  0  0  0  0  0
   19.7949   17.7638   24.5056 C   0  0  0  0  0  0  0  0  0  0  0  0
   18.7233   17.7143   24.7403 H   0  0  0  0  0  0  0  0  0  0  0  0
   20.2951   18.1316   25.4113 H   0  0  0  0  0  0  0  0  0  0  0  0
   20.3257   16.3453   24.1964 C   0  0  2  0  0  0  0  0  0  0  0  0
   21.3828   16.4258   23.9252 H   0  0  0  0  0  0  0  0  0  0  0  0
   19.5717   15.6851   23.0281 C   0  0  0  0  0  0  0  0  0  0  0  0
   18.4936   15.6394   23.2268 H   0  0  0  0  0  0  0  0  0  0  0  0
   19.7261   16.2344   22.0922 H   0  0  0  0  0  0  0  0  0  0  0  0
   19.9312   14.6615   22.8657 H   0  0  0  0  0  0  0  0  0  0  0  0
   20.2664   15.4671   25.4152 N   0  3  0  0  0  0  0  0  0  0  0  0
   20.6536   14.5381   25.2260 H   0  0  0  0  0  0  0  0  0  0  0  0
   19.3032   15.3370   25.7361 H   0  0  0  0  0  0  0  0  0  0  0  0
   20.7990   15.8661   26.1938 H   0  0  0  0  0  0  0  0  0  0  0  0
  1  2  1  0  0  0  0
  1  3  1  0  0  0  0
  1  4  1  0  0  0  0
  1  5  1  0  0  0  0
  5  6  1  0  0  0  0
  5  7  1  0  0  0  0
  5  8  1  0  0  0  0
  8  9  1  0  0  0  0
  8 10  1  0  0  0  0
  8 11  1  0  0  0  0
 11 12  1  0  0  0  0
 11 13  1  0  0  0  0
 11 14  1  0  0  0  0
 14 15  1  0  0  0  0
 14 16  1  0  0  0  0
 14 17  1  0  0  0  0
 17 18  1  0  0  0  0
 17 19  1  0  0  0  0
 17 20  1  0  0  0  0
 20 21  1  0  0  0  0
 20 22  1  0  0  0  0
 22 23  1  0  0  0  0
 22 24  1  0  0  0  0
 22 25  1  0  0  0  0
 20 26  1  0  0  0  0
 26 27  1  0  0  0  0
 26 28  1  0  0  0  0
 26 29  1  0  0  0  0
M  END
> <VConfSearch Rank>
682

> <Conf_Id>
58

> <Delta U+W>
0.412

> <U+W>
-27.414

> <U>
24.279

> <W>
-51.694

> <W(PB)>
-54.271

> <W(SA)>
2.577

> <Valence>
3.709

> <Coulomb>
19.380

> <VdW>
1.191

> <VdW6>
-8.093

> <VdW12>
9.284

> <Bond>
0.200

> <Angle>
1.161

> <Pdih>
2.348

> <Idih>
0.000

> <Tether>
0.000

$$$$
VeraChem MOL file


 29 28  0  0  0  0  0  0  0  0999 V2000     
   23.8865   18.6542   25.6245 C   0  0  0  0  0  0  0  0  0  0  0  0
   24.3940   19.2899   24.8872 H   0  0  0  0  0  0  0  0  0  0  0  0
   23.5771   19.2870   26.4665 H   0  0  0  0  0  0  0  0  0  0  0  0
   24.6164   17.9257   26.0007 H   0  0  0  0  0  0  0  0  0  0  0  0
   22.6739   17.9357   24.9959 C   0  0  0  0  0  0  0  0  0  0  0  0
   22.2077   17.2824   25.7467 H   0  0  0  0  0  0  0  0  0  0  0  0
   23.0183   17.2853   24.1796 H   0  0  0  0  0  0  0  0  0  0  0  0
   21.6302   18.9393   24.4579 C   0  0  0  0  0  0  0  0  0  0  0  0
   21.2905   19.5885   25.2768 H   0  0  0  0  0  0  0  0  0  0  0  0
   22.1014   19.5916   23.7096 H   0  0  0  0  0  0  0  0  0  0  0  0
   20.4145   18.2234   23.8273 C   0  0  0  0  0  0  0  0  0  0  0  0
   19.9446   17.5710   24.5763 H   0  0  0  0  0  0  0  0  0  0  0  0
   20.7554   17.5742   23.0089 H   0  0  0  0  0  0  0  0  0  0  0  0
   19.3706   19.2278   23.2890 C   0  0  0  0  0  0  0  0  0  0  0  0
   19.0354   19.8740   24.1110 H   0  0  0  0  0  0  0  0  0  0  0  0
   19.8505   19.8777   22.5456 H   0  0  0  0  0  0  0  0  0  0  0  0
   18.1549   18.5033   22.6546 C   0  0  0  0  0  0  0  0  0  0  0  0
   17.7160   17.8205   23.3940 H   0  0  0  0  0  0  0  0  0  0  0  0
   18.5012   17.8699   21.8271 H   0  0  0  0  0  0  0  0  0  0  0  0
   17.0393   19.4385   22.1310 C   0  0  2  0  0  0  0  0  0  0  0  0
   16.2380   18.8026   21.7420 H   0  0  0  0  0  0  0  0  0  0  0  0
   17.5266   20.3310   20.9764 C   0  0  0  0  0  0  0  0  0  0  0  0
   16.6860   20.8815   20.5364 H   0  0  0  0  0  0  0  0  0  0  0  0
   18.2666   21.0656   21.3157 H   0  0  0  0  0  0  0  0  0  0  0  0
   17.9809   19.7267   20.1814 H   0  0  0  0  0  0  0  0  0  0  0  0
   16.4217   20.2639   23.2259 N   0  3  0  0  0  0  0  0  0  0  0  0
   16.0544   19.6746   23.9786 H   0  0  0  0  0  0  0  0  0  0  0  0
   15.6448   20.8308   22.8741 H   0  0  0  0  0  0  0  0  0  0  0  0
   17.1053   20.9027   23.6397 H   0  0  0  0  0  0  0  0  0  0  0  0
  1  2  1  0  0  0  0
  1  3  1  0  0  0  0
  1  4  1  0  0  0  0
  1  5  1  0  0  0  0
  5  6  1  0  0  0  0
  5  7  1  0  0  0  0
  5  8  1  0  0  0  0
  8  9  1  0  0  0  0
  8 10  1  0  0  0  0
  8 11  1  0  0  0  0
 11 12  1  0  0  0  0
 11 13  1  0  0  0  0
 11 14  1  0  0  0  0
 14 15  1  0  0  0  0
 14 16  1  0  0  0  0
 14 17  1  0  0  0  0
 17 18  1  0  0  0  0
 17 19  1  0  0  0  0
 17 20  1  0  0  0  0
 20 21  1  0  0  0  0
 20 22  1  0  0  0  0
 22 23  1  0  0  0  0
 22 24  1  0  0  0  0
 22 25  1  0  0  0  0
 20 26  1  0  0  0  0
 26 27  1  0  0  0  0
 26 28  1  0  0  0  0
 26 29  1  0  0  0  0
M  END
> <VConfSearch Rank>
683

> <Conf_Id>
137

> <Delta U+W>
0.280

> <U+W>
-27.546

> <U>
24.513

> <W>
-52.059

> <W(PB)>
-54.556

> <W(SA)>
2.497

> <Valence>
3.677

> <Coulomb>
19.662

> <VdW>
1.174

> <VdW6>
-8.569

> <VdW12>
9.743

> <Bond>
0.224

> <Angle>
1.211

> <Pdih>
2.243

> <Idih>
0.000

> <Tether>
0.000

$$$$
VeraChem MOL file


 29 28  0  0  0  0  0  0  0  0999 V2000     
   22.3015   21.6788   26.1690 C   0  0  0  0  0  0  0  0  0  0  0  0
   21.3238   22.0113   26.5416 H   0  0  0  0  0  0  0  0  0  0  0  0
   22.6369   20.8387   26.7911 H   0  0  0  0  0  0  0  0  0  0  0  0
   23.0124   22.5040   26.3051 H   0  0  0  0  0  0  0  0  0  0  0  0
   22.2191   21.2700   24.6830 C   0  0  0  0  0  0  0  0  0  0  0  0
   23.2177   20.9762   24.3304 H   0  0  0  0  0  0  0  0  0  0  0  0
   21.9133   22.1382   24.0824 H   0  0  0  0  0  0  0  0  0  0  0  0
   21.2248   20.1084   24.4635 C   0  0  0  0  0  0  0  0  0  0  0  0
   21.5362   19.2425   25.0640 H   0  0  0  0  0  0  0  0  0  0  0  0
   20.2356   20.4122   24.8293 H   0  0  0  0  0  0  0  0  0  0  0  0
   21.1387   19.7011   22.9727 C   0  0  0  0  0  0  0  0  0  0  0  0
   22.1512   19.4844   22.6049 H   0  0  0  0  0  0  0  0  0  0  0  0
   20.7696   20.5474   22.3771 H   0  0  0  0  0  0  0  0  0  0  0  0
   20.2506   18.4585   22.7158 C   0  0  0  0  0  0  0  0  0  0  0  0
   20.3779   18.1673   21.6653 H   0  0  0  0  0  0  0  0  0  0  0  0
   20.6157   17.6148   23.3176 H   0  0  0  0  0  0  0  0  0  0  0  0
   18.7469   18.6996   23.0097 C   0  0  0  0  0  0  0  0  0  0  0  0
   18.3794   19.5359   22.4004 H   0  0  0  0  0  0  0  0  0  0  0  0
   18.6315   19.0026   24.0572 H   0  0  0  0  0  0  0  0  0  0  0  0
   17.8593   17.4557   22.7741 C   0  0  2  0  0  0  0  0  0  0  0  0
   18.2802   16.6208   23.3428 H   0  0  0  0  0  0  0  0  0  0  0  0
   17.7995   17.0543   21.2892 C   0  0  0  0  0  0  0  0  0  0  0  0
   17.4466   17.8862   20.6671 H   0  0  0  0  0  0  0  0  0  0  0  0
   18.7823   16.7407   20.9194 H   0  0  0  0  0  0  0  0  0  0  0  0
   17.1157   16.2087   21.1453 H   0  0  0  0  0  0  0  0  0  0  0  0
   16.4703   17.6734   23.3072 N   0  3  0  0  0  0  0  0  0  0  0  0
   16.4804   17.8978   24.3063 H   0  0  0  0  0  0  0  0  0  0  0  0
   15.8894   16.8384   23.1886 H   0  0  0  0  0  0  0  0  0  0  0  0
   16.0006   18.4435   22.8233 H   0  0  0  0  0  0  0  0  0  0  0  0
  1  2  1  0  0  0  0
  1  3  1  0  0  0  0
  1  4  1  0  0  0  0
  1  5  1  0  0  0  0
  5  6  1  0  0  0  0
  5  7  1  0  0  0  0
  5  8  1  0  0  0  0
  8  9  1  0  0  0  0
  8 10  1  0  0  0  0
  8 11  1  0  0  0  0
 11 12  1  0  0  0  0
 11 13  1  0  0  0  0
 11 14  1  0  0  0  0
 14 15  1  0  0  0  0
 14 16  1  0  0  0  0
 14 17  1  0  0  0  0
 17 18  1  0  0  0  0
 17 19  1  0  0  0  0
 17 20  1  0  0  0  0
 20 21  1  0  0  0  0
 20 22  1  0  0  0  0
 22 23  1  0  0  0  0
 22 24  1  0  0  0  0
 22 25  1  0  0  0  0
 20 26  1  0  0  0  0
 26 27  1  0  0  0  0
 26 28  1  0  0  0  0
 26 29  1  0  0  0  0
M  END
> <VConfSearch Rank>
684

> <Conf_Id>
40

> <Delta U+W>
1.128

> <U+W>
-26.698

> <U>
25.442

> <W>
-52.140

> <W(PB)>
-54.658

> <W(SA)>
2.519

> <Valence>
4.343

> <Coulomb>
19.740

> <VdW>
1.360

> <VdW6>
-8.739

> <VdW12>
10.099

> <Bond>
0.251

> <Angle>
1.483

> <Pdih>
2.608

> <Idih>
0.000

> <Tether>
0.000

$$$$
VeraChem MOL file


 29 28  0  0  0  0  0  0  0  0999 V2000     
   18.5438   18.0433   27.5568 C   0  0  0  0  0  0  0  0  0  0  0  0
   18.0786   19.0294   27.4368 H   0  0  0  0  0  0  0  0  0  0  0  0
   17.8342   17.2824   27.2066 H   0  0  0  0  0  0  0  0  0  0  0  0
   18.7037   17.8837   28.6310 H   0  0  0  0  0  0  0  0  0  0  0  0
   19.8832   17.9484   26.7914 C   0  0  0  0  0  0  0  0  0  0  0  0
   20.3683   16.9962   27.0477 H   0  0  0  0  0  0  0  0  0  0  0  0
   20.5627   18.7413   27.1343 H   0  0  0  0  0  0  0  0  0  0  0  0
   19.7235   18.0242   25.2536 C   0  0  0  0  0  0  0  0  0  0  0  0
   20.7001   17.8091   24.8021 H   0  0  0  0  0  0  0  0  0  0  0  0
   19.0436   17.2298   24.9164 H   0  0  0  0  0  0  0  0  0  0  0  0
   19.2109   19.3992   24.7540 C   0  0  0  0  0  0  0  0  0  0  0  0
   19.8935   20.1933   25.0861 H   0  0  0  0  0  0  0  0  0  0  0  0
   18.2391   19.6142   25.2166 H   0  0  0  0  0  0  0  0  0  0  0  0
   19.0334   19.4758   23.2173 C   0  0  0  0  0  0  0  0  0  0  0  0
   18.3660   18.6691   22.8839 H   0  0  0  0  0  0  0  0  0  0  0  0
   18.5199   20.4176   22.9835 H   0  0  0  0  0  0  0  0  0  0  0  0
   20.3693   19.4082   22.4328 C   0  0  0  0  0  0  0  0  0  0  0  0
   20.8681   18.4548   22.6451 H   0  0  0  0  0  0  0  0  0  0  0  0
   21.0448   20.2013   22.7799 H   0  0  0  0  0  0  0  0  0  0  0  0
   20.1762   19.5238   20.9050 C   0  0  2  0  0  0  0  0  0  0  0  0
   19.4719   18.7482   20.5886 H   0  0  0  0  0  0  0  0  0  0  0  0
   21.5104   19.2893   20.1786 C   0  0  0  0  0  0  0  0  0  0  0  0
   21.3739   19.3354   19.0911 H   0  0  0  0  0  0  0  0  0  0  0  0
   22.2547   20.0440   20.4622 H   0  0  0  0  0  0  0  0  0  0  0  0
   21.9178   18.2998   20.4208 H   0  0  0  0  0  0  0  0  0  0  0  0
   19.5807   20.8434   20.4959 N   0  3  0  0  0  0  0  0  0  0  0  0
   20.1856   21.6244   20.7636 H   0  0  0  0  0  0  0  0  0  0  0  0
   18.6687   20.9945   20.9351 H   0  0  0  0  0  0  0  0  0  0  0  0
   19.4446   20.8941   19.4822 H   0  0  0  0  0  0  0  0  0  0  0  0
  1  2  1  0  0  0  0
  1  3  1  0  0  0  0
  1  4  1  0  0  0  0
  1  5  1  0  0  0  0
  5  6  1  0  0  0  0
  5  7  1  0  0  0  0
  5  8  1  0  0  0  0
  8  9  1  0  0  0  0
  8 10  1  0  0  0  0
  8 11  1  0  0  0  0
 11 12  1  0  0  0  0
 11 13  1  0  0  0  0
 11 14  1  0  0  0  0
 14 15  1  0  0  0  0
 14 16  1  0  0  0  0
 14 17  1  0  0  0  0
 17 18  1  0  0  0  0
 17 19  1  0  0  0  0
 17 20  1  0  0  0  0
 20 21  1  0  0  0  0
 20 22  1  0  0  0  0
 22 23  1  0  0  0  0
 22 24  1  0  0  0  0
 22 25  1  0  0  0  0
 20 26  1  0  0  0  0
 26 27  1  0  0  0  0
 26 28  1  0  0  0  0
 26 29  1  0  0  0  0
M  END
> <VConfSearch Rank>
685

> <Conf_Id>
134

> <Delta U+W>
1.228

> <U+W>
-26.598

> <U>
25.451

> <W>
-52.048

> <W(PB)>
-54.539

> <W(SA)>
2.490

> <Valence>
4.319

> <Coulomb>
19.732

> <VdW>
1.400

> <VdW6>
-9.173

> <VdW12>
10.573

> <Bond>
0.281

> <Angle>
1.459

> <Pdih>
2.580

> <Idih>
0.000

> <Tether>
0.000

$$$$
VeraChem MOL file


 29 28  0  0  0  0  0  0  0  0999 V2000     
   17.2835   20.0401   26.9052 C   0  0  0  0  0  0  0  0  0  0  0  0
   18.2623   20.0549   27.4001 H   0  0  0  0  0  0  0  0  0  0  0  0
   17.0849   21.0425   26.5041 H   0  0  0  0  0  0  0  0  0  0  0  0
   16.5289   19.8310   27.6745 H   0  0  0  0  0  0  0  0  0  0  0  0
   17.2263   18.9732   25.7883 C   0  0  0  0  0  0  0  0  0  0  0  0
   16.1948   18.9097   25.4145 H   0  0  0  0  0  0  0  0  0  0  0  0
   17.4625   17.9852   26.2076 H   0  0  0  0  0  0  0  0  0  0  0  0
   18.1670   19.2749   24.5966 C   0  0  0  0  0  0  0  0  0  0  0  0
   17.9560   18.5442   23.8054 H   0  0  0  0  0  0  0  0  0  0  0  0
   17.9255   20.2623   24.1799 H   0  0  0  0  0  0  0  0  0  0  0  0
   19.6706   19.2168   24.9678 C   0  0  0  0  0  0  0  0  0  0  0  0
   19.9122   18.2288   25.3831 H   0  0  0  0  0  0  0  0  0  0  0  0
   19.8794   19.9451   25.7620 H   0  0  0  0  0  0  0  0  0  0  0  0
   20.6123   19.5246   23.7775 C   0  0  0  0  0  0  0  0  0  0  0  0
   20.3733   20.5198   23.3799 H   0  0  0  0  0  0  0  0  0  0  0  0
   21.6428   19.5797   24.1550 H   0  0  0  0  0  0  0  0  0  0  0  0
   20.5468   18.4657   22.6467 C   0  0  0  0  0  0  0  0  0  0  0  0
   19.5654   18.4959   22.1569 H   0  0  0  0  0  0  0  0  0  0  0  0
   20.6436   17.4680   23.0949 H   0  0  0  0  0  0  0  0  0  0  0  0
   21.6525   18.6326   21.5798 C   0  0  2  0  0  0  0  0  0  0  0  0
   22.6219   18.6349   22.0876 H   0  0  0  0  0  0  0  0  0  0  0  0
   21.5085   19.9511   20.7987 C   0  0  0  0  0  0  0  0  0  0  0  0
   20.5249   20.0220   20.3179 H   0  0  0  0  0  0  0  0  0  0  0  0
   21.6332   20.8193   21.4561 H   0  0  0  0  0  0  0  0  0  0  0  0
   22.2751   20.0230   20.0174 H   0  0  0  0  0  0  0  0  0  0  0  0
   21.6730   17.4656   20.6321 N   0  3  0  0  0  0  0  0  0  0  0  0
   21.8114   16.5800   21.1275 H   0  0  0  0  0  0  0  0  0  0  0  0
   22.4297   17.5531   19.9477 H   0  0  0  0  0  0  0  0  0  0  0  0
   20.7957   17.3924   20.1098 H   0  0  0  0  0  0  0  0  0  0  0  0
  1  2  1  0  0  0  0
  1  3  1  0  0  0  0
  1  4  1  0  0  0  0
  1  5  1  0  0  0  0
  5  6  1  0  0  0  0
  5  7  1  0  0  0  0
  5  8  1  0  0  0  0
  8  9  1  0  0  0  0
  8 10  1  0  0  0  0
  8 11  1  0  0  0  0
 11 12  1  0  0  0  0
 11 13  1  0  0  0  0
 11 14  1  0  0  0  0
 14 15  1  0  0  0  0
 14 16  1  0  0  0  0
 14 17  1  0  0  0  0
 17 18  1  0  0  0  0
 17 19  1  0  0  0  0
 17 20  1  0  0  0  0
 20 21  1  0  0  0  0
 20 22  1  0  0  0  0
 22 23  1  0  0  0  0
 22 24  1  0  0  0  0
 22 25  1  0  0  0  0
 20 26  1  0  0  0  0
 26 27  1  0  0  0  0
 26 28  1  0  0  0  0
 26 29  1  0  0  0  0
M  END
> <VConfSearch Rank>
686

> <Conf_Id>
73

> <Delta U+W>
1.580

> <U+W>
-26.246

> <U>
25.821

> <W>
-52.067

> <W(PB)>
-54.581

> <W(SA)>
2.514

> <Valence>
4.779

> <Coulomb>
19.614

> <VdW>
1.428

> <VdW6>
-9.390

> <VdW12>
10.818

> <Bond>
0.283

> <Angle>
1.640

> <Pdih>
2.856

> <Idih>
0.000

> <Tether>
0.000

$$$$
VeraChem MOL file


 29 28  0  0  0  0  0  0  0  0999 V2000     
   19.2194   16.6830   19.8030 C   0  0  0  0  0  0  0  0  0  0  0  0
   20.3124   16.5959   19.8576 H   0  0  0  0  0  0  0  0  0  0  0  0
   18.8345   15.7866   19.2999 H   0  0  0  0  0  0  0  0  0  0  0  0
   18.9764   17.5515   19.1771 H   0  0  0  0  0  0  0  0  0  0  0  0
   18.6033   16.8245   21.2110 C   0  0  0  0  0  0  0  0  0  0  0  0
   18.8351   15.9276   21.8024 H   0  0  0  0  0  0  0  0  0  0  0  0
   17.5086   16.8742   21.1261 H   0  0  0  0  0  0  0  0  0  0  0  0
   19.1281   18.0803   21.9415 C   0  0  0  0  0  0  0  0  0  0  0  0
   20.2220   18.0218   22.0100 H   0  0  0  0  0  0  0  0  0  0  0  0
   18.8916   18.9741   21.3479 H   0  0  0  0  0  0  0  0  0  0  0  0
   18.5142   18.2200   23.3554 C   0  0  0  0  0  0  0  0  0  0  0  0
   18.7986   17.3552   23.9706 H   0  0  0  0  0  0  0  0  0  0  0  0
   17.4189   18.1917   23.2722 H   0  0  0  0  0  0  0  0  0  0  0  0
   18.9148   19.5279   24.0816 C   0  0  0  0  0  0  0  0  0  0  0  0
   18.6271   20.3921   23.4668 H   0  0  0  0  0  0  0  0  0  0  0  0
   18.3258   19.5962   25.0056 H   0  0  0  0  0  0  0  0  0  0  0  0
   20.4251   19.6090   24.4228 C   0  0  0  0  0  0  0  0  0  0  0  0
   21.0094   19.5665   23.4954 H   0  0  0  0  0  0  0  0  0  0  0  0
   20.7187   18.7358   25.0204 H   0  0  0  0  0  0  0  0  0  0  0  0
   20.8033   20.9034   25.1753 C   0  0  2  0  0  0  0  0  0  0  0  0
   20.4687   21.7574   24.5785 H   0  0  0  0  0  0  0  0  0  0  0  0
   22.3285   20.9986   25.3412 C   0  0  0  0  0  0  0  0  0  0  0  0
   22.8287   20.9851   24.3648 H   0  0  0  0  0  0  0  0  0  0  0  0
   22.6068   21.9329   25.8443 H   0  0  0  0  0  0  0  0  0  0  0  0
   22.7162   20.1616   25.9354 H   0  0  0  0  0  0  0  0  0  0  0  0
   20.1219   21.0146   26.5119 N   0  3  0  0  0  0  0  0  0  0  0  0
   20.3714   21.8866   26.9874 H   0  0  0  0  0  0  0  0  0  0  0  0
   20.3846   20.2422   27.1299 H   0  0  0  0  0  0  0  0  0  0  0  0
   19.1031   20.9996   26.4148 H   0  0  0  0  0  0  0  0  0  0  0  0
  1  2  1  0  0  0  0
  1  3  1  0  0  0  0
  1  4  1  0  0  0  0
  1  5  1  0  0  0  0
  5  6  1  0  0  0  0
  5  7  1  0  0  0  0
  5  8  1  0  0  0  0
  8  9  1  0  0  0  0
  8 10  1  0  0  0  0
  8 11  1  0  0  0  0
 11 12  1  0  0  0  0
 11 13  1  0  0  0  0
 11 14  1  0  0  0  0
 14 15  1  0  0  0  0
 14 16  1  0  0  0  0
 14 17  1  0  0  0  0
 17 18  1  0  0  0  0
 17 19  1  0  0  0  0
 17 20  1  0  0  0  0
 20 21  1  0  0  0  0
 20 22  1  0  0  0  0
 22 23  1  0  0  0  0
 22 24  1  0  0  0  0
 22 25  1  0  0  0  0
 20 26  1  0  0  0  0
 26 27  1  0  0  0  0
 26 28  1  0  0  0  0
 26 29  1  0  0  0  0
M  END
> <VConfSearch Rank>
687

> <Conf_Id>
111

> <Delta U+W>
0.580

> <U+W>
-27.246

> <U>
24.710

> <W>
-51.957

> <W(PB)>
-54.511

> <W(SA)>
2.555

> <Valence>
3.735

> <Coulomb>
19.760

> <VdW>
1.216

> <VdW6>
-8.624

> <VdW12>
9.840

> <Bond>
0.236

> <Angle>
1.168

> <Pdih>
2.330

> <Idih>
0.000

> <Tether>
0.000

$$$$
VeraChem MOL file


 29 28  0  0  0  0  0  0  0  0999 V2000     
   21.8834   18.5198   19.7626 C   0  0  0  0  0  0  0  0  0  0  0  0
   22.6128   17.8496   20.2360 H   0  0  0  0  0  0  0  0  0  0  0  0
   20.9866   17.9341   19.5219 H   0  0  0  0  0  0  0  0  0  0  0  0
   22.3162   18.8766   18.8190 H   0  0  0  0  0  0  0  0  0  0  0  0
   21.5392   19.7067   20.6872 C   0  0  0  0  0  0  0  0  0  0  0  0
   20.8342   20.3759   20.1745 H   0  0  0  0  0  0  0  0  0  0  0  0
   22.4485   20.2926   20.8815 H   0  0  0  0  0  0  0  0  0  0  0  0
   20.9284   19.2317   22.0241 C   0  0  0  0  0  0  0  0  0  0  0  0
   20.0269   18.6408   21.8159 H   0  0  0  0  0  0  0  0  0  0  0  0
   21.6374   18.5647   22.5337 H   0  0  0  0  0  0  0  0  0  0  0  0
   20.5792   20.4211   22.9505 C   0  0  0  0  0  0  0  0  0  0  0  0
   19.8309   21.0622   22.4643 H   0  0  0  0  0  0  0  0  0  0  0  0
   21.4747   21.0427   23.0882 H   0  0  0  0  0  0  0  0  0  0  0  0
   20.0642   19.9871   24.3447 C   0  0  0  0  0  0  0  0  0  0  0  0
   20.8318   19.3736   24.8347 H   0  0  0  0  0  0  0  0  0  0  0  0
   19.9400   20.8851   24.9656 H   0  0  0  0  0  0  0  0  0  0  0  0
   18.7181   19.2193   24.2924 C   0  0  0  0  0  0  0  0  0  0  0  0
   18.8553   18.2511   23.7945 H   0  0  0  0  0  0  0  0  0  0  0  0
   18.0122   19.7917   23.6762 H   0  0  0  0  0  0  0  0  0  0  0  0
   18.0821   18.9916   25.6824 C   0  0  2  0  0  0  0  0  0  0  0  0
   17.9850   19.9621   26.1786 H   0  0  0  0  0  0  0  0  0  0  0  0
   18.9432   18.0747   26.5696 C   0  0  0  0  0  0  0  0  0  0  0  0
   19.1190   17.1058   26.0860 H   0  0  0  0  0  0  0  0  0  0  0  0
   19.9154   18.5310   26.7888 H   0  0  0  0  0  0  0  0  0  0  0  0
   18.4473   17.8904   27.5306 H   0  0  0  0  0  0  0  0  0  0  0  0
   16.6899   18.4377   25.5582 N   0  3  0  0  0  0  0  0  0  0  0  0
   16.0865   19.0547   25.0067 H   0  0  0  0  0  0  0  0  0  0  0  0
   16.2501   18.3226   26.4758 H   0  0  0  0  0  0  0  0  0  0  0  0
   16.6913   17.5210   25.1029 H   0  0  0  0  0  0  0  0  0  0  0  0
  1  2  1  0  0  0  0
  1  3  1  0  0  0  0
  1  4  1  0  0  0  0
  1  5  1  0  0  0  0
  5  6  1  0  0  0  0
  5  7  1  0  0  0  0
  5  8  1  0  0  0  0
  8  9  1  0  0  0  0
  8 10  1  0  0  0  0
  8 11  1  0  0  0  0
 11 12  1  0  0  0  0
 11 13  1  0  0  0  0
 11 14  1  0  0  0  0
 14 15  1  0  0  0  0
 14 16  1  0  0  0  0
 14 17  1  0  0  0  0
 17 18  1  0  0  0  0
 17 19  1  0  0  0  0
 17 20  1  0  0  0  0
 20 21  1  0  0  0  0
 20 22  1  0  0  0  0
 22 23  1  0  0  0  0
 22 24  1  0  0  0  0
 22 25  1  0  0  0  0
 20 26  1  0  0  0  0
 26 27  1  0  0  0  0
 26 28  1  0  0  0  0
 26 29  1  0  0  0  0
M  END
> <VConfSearch Rank>
688

> <Conf_Id>
39

> <Delta U+W>
0.965

> <U+W>
-26.861

> <U>
25.129

> <W>
-51.990

> <W(PB)>
-54.526

> <W(SA)>
2.536

> <Valence>
4.206

> <Coulomb>
19.678

> <VdW>
1.245

> <VdW6>
-8.834

> <VdW12>
10.079

> <Bond>
0.240

> <Angle>
1.353

> <Pdih>
2.613

> <Idih>
0.000

> <Tether>
0.000

$$$$
VeraChem MOL file


 29 28  0  0  0  0  0  0  0  0999 V2000     
   21.9235   21.5496   26.2102 C   0  0  0  0  0  0  0  0  0  0  0  0
   22.4757   21.9999   25.3752 H   0  0  0  0  0  0  0  0  0  0  0  0
   20.9204   21.9925   26.2386 H   0  0  0  0  0  0  0  0  0  0  0  0
   22.4338   21.8310   27.1405 H   0  0  0  0  0  0  0  0  0  0  0  0
   21.8631   20.0114   26.0713 C   0  0  0  0  0  0  0  0  0  0  0  0
   21.2764   19.5877   26.8983 H   0  0  0  0  0  0  0  0  0  0  0  0
   22.8799   19.6081   26.1778 H   0  0  0  0  0  0  0  0  0  0  0  0
   21.2812   19.5352   24.7183 C   0  0  0  0  0  0  0  0  0  0  0  0
   21.8716   19.9607   23.8953 H   0  0  0  0  0  0  0  0  0  0  0  0
   21.4076   18.4467   24.6605 H   0  0  0  0  0  0  0  0  0  0  0  0
   19.7852   19.8944   24.5300 C   0  0  0  0  0  0  0  0  0  0  0  0
   19.6607   20.9829   24.5965 H   0  0  0  0  0  0  0  0  0  0  0  0
   19.1942   19.4651   25.3505 H   0  0  0  0  0  0  0  0  0  0  0  0
   19.2031   19.4300   23.1720 C   0  0  0  0  0  0  0  0  0  0  0  0
   18.1926   19.8478   23.0747 H   0  0  0  0  0  0  0  0  0  0  0  0
   19.7986   19.8659   22.3589 H   0  0  0  0  0  0  0  0  0  0  0  0
   19.1409   17.8853   23.0217 C   0  0  0  0  0  0  0  0  0  0  0  0
   18.6416   17.4561   23.9001 H   0  0  0  0  0  0  0  0  0  0  0  0
   20.1571   17.4723   23.0175 H   0  0  0  0  0  0  0  0  0  0  0  0
   18.4123   17.3861   21.7516 C   0  0  2  0  0  0  0  0  0  0  0  0
   18.4333   16.2921   21.7736 H   0  0  0  0  0  0  0  0  0  0  0  0
   19.1209   17.8398   20.4635 C   0  0  0  0  0  0  0  0  0  0  0  0
   19.0578   18.9260   20.3276 H   0  0  0  0  0  0  0  0  0  0  0  0
   20.1806   17.5561   20.4810 H   0  0  0  0  0  0  0  0  0  0  0  0
   18.6639   17.3651   19.5866 H   0  0  0  0  0  0  0  0  0  0  0  0
   16.9592   17.7735   21.7322 N   0  3  0  0  0  0  0  0  0  0  0  0
   16.4701   17.4377   22.5669 H   0  0  0  0  0  0  0  0  0  0  0  0
   16.4785   17.3817   20.9173 H   0  0  0  0  0  0  0  0  0  0  0  0
   16.8461   18.7895   21.6962 H   0  0  0  0  0  0  0  0  0  0  0  0
  1  2  1  0  0  0  0
  1  3  1  0  0  0  0
  1  4  1  0  0  0  0
  1  5  1  0  0  0  0
  5  6  1  0  0  0  0
  5  7  1  0  0  0  0
  5  8  1  0  0  0  0
  8  9  1  0  0  0  0
  8 10  1  0  0  0  0
  8 11  1  0  0  0  0
 11 12  1  0  0  0  0
 11 13  1  0  0  0  0
 11 14  1  0  0  0  0
 14 15  1  0  0  0  0
 14 16  1  0  0  0  0
 14 17  1  0  0  0  0
 17 18  1  0  0  0  0
 17 19  1  0  0  0  0
 17 20  1  0  0  0  0
 20 21  1  0  0  0  0
 20 22  1  0  0  0  0
 22 23  1  0  0  0  0
 22 24  1  0  0  0  0
 22 25  1  0  0  0  0
 20 26  1  0  0  0  0
 26 27  1  0  0  0  0
 26 28  1  0  0  0  0
 26 29  1  0  0  0  0
M  END
> <VConfSearch Rank>
689

> <Conf_Id>
155

> <Delta U+W>
1.624

> <U+W>
-26.202

> <U>
25.894

> <W>
-52.096

> <W(PB)>
-54.602

> <W(SA)>
2.506

> <Valence>
4.779

> <Coulomb>
19.659

> <VdW>
1.456

> <VdW6>
-9.843

> <VdW12>
11.299

> <Bond>
0.315

> <Angle>
1.725

> <Pdih>
2.740

> <Idih>
0.000

> <Tether>
0.000

$$$$
VeraChem MOL file


 29 28  0  0  0  0  0  0  0  0999 V2000     
   19.1413   21.4080   20.2348 C   0  0  0  0  0  0  0  0  0  0  0  0
   18.7226   22.0033   21.0557 H   0  0  0  0  0  0  0  0  0  0  0  0
   20.2360   21.4379   20.3113 H   0  0  0  0  0  0  0  0  0  0  0  0
   18.8567   21.8965   19.2940 H   0  0  0  0  0  0  0  0  0  0  0  0
   18.6218   19.9528   20.2676 C   0  0  0  0  0  0  0  0  0  0  0  0
   18.9731   19.4303   19.3668 H   0  0  0  0  0  0  0  0  0  0  0  0
   17.5241   19.9511   20.2155 H   0  0  0  0  0  0  0  0  0  0  0  0
   19.0883   19.1634   21.5143 C   0  0  0  0  0  0  0  0  0  0  0  0
   18.7616   18.1198   21.4092 H   0  0  0  0  0  0  0  0  0  0  0  0
   20.1857   19.1461   21.5357 H   0  0  0  0  0  0  0  0  0  0  0  0
   18.5362   19.7366   22.8442 C   0  0  0  0  0  0  0  0  0  0  0  0
   17.4501   19.8721   22.7494 H   0  0  0  0  0  0  0  0  0  0  0  0
   18.9577   20.7336   23.0288 H   0  0  0  0  0  0  0  0  0  0  0  0
   18.8110   18.8324   24.0711 C   0  0  0  0  0  0  0  0  0  0  0  0
   18.2670   19.2530   24.9264 H   0  0  0  0  0  0  0  0  0  0  0  0
   18.3872   17.8341   23.8948 H   0  0  0  0  0  0  0  0  0  0  0  0
   20.3166   18.7076   24.4221 C   0  0  0  0  0  0  0  0  0  0  0  0
   20.7373   19.7042   24.6100 H   0  0  0  0  0  0  0  0  0  0  0  0
   20.8525   18.3011   23.5560 H   0  0  0  0  0  0  0  0  0  0  0  0
   20.5997   17.7873   25.6318 C   0  0  2  0  0  0  0  0  0  0  0  0
   20.1197   16.8211   25.4480 H   0  0  0  0  0  0  0  0  0  0  0  0
   20.0459   18.3654   26.9467 C   0  0  0  0  0  0  0  0  0  0  0  0
   20.4479   19.3678   27.1399 H   0  0  0  0  0  0  0  0  0  0  0  0
   18.9522   18.4313   26.9257 H   0  0  0  0  0  0  0  0  0  0  0  0
   20.3143   17.7226   27.7942 H   0  0  0  0  0  0  0  0  0  0  0  0
   22.0712   17.5100   25.7680 N   0  3  0  0  0  0  0  0  0  0  0  0
   22.4546   17.0823   24.9201 H   0  0  0  0  0  0  0  0  0  0  0  0
   22.2606   16.8696   26.5444 H   0  0  0  0  0  0  0  0  0  0  0  0
   22.5987   18.3692   25.9451 H   0  0  0  0  0  0  0  0  0  0  0  0
  1  2  1  0  0  0  0
  1  3  1  0  0  0  0
  1  4  1  0  0  0  0
  1  5  1  0  0  0  0
  5  6  1  0  0  0  0
  5  7  1  0  0  0  0
  5  8  1  0  0  0  0
  8  9  1  0  0  0  0
  8 10  1  0  0  0  0
  8 11  1  0  0  0  0
 11 12  1  0  0  0  0
 11 13  1  0  0  0  0
 11 14  1  0  0  0  0
 14 15  1  0  0  0  0
 14 16  1  0  0  0  0
 14 17  1  0  0  0  0
 17 18  1  0  0  0  0
 17 19  1  0  0  0  0
 17 20  1  0  0  0  0
 20 21  1  0  0  0  0
 20 22  1  0  0  0  0
 22 23  1  0  0  0  0
 22 24  1  0  0  0  0
 22 25  1  0  0  0  0
 20 26  1  0  0  0  0
 26 27  1  0  0  0  0
 26 28  1  0  0  0  0
 26 29  1  0  0  0  0
M  END
> <VConfSearch Rank>
690

> <Conf_Id>
135

> <Delta U+W>
1.581

> <U+W>
-26.245

> <U>
25.974

> <W>
-52.219

> <W(PB)>
-54.709

> <W(SA)>
2.490

> <Valence>
4.811

> <Coulomb>
19.700

> <VdW>
1.463

> <VdW6>
-9.391

> <VdW12>
10.854

> <Bond>
0.285

> <Angle>
1.671

> <Pdih>
2.855

> <Idih>
0.000

> <Tether>
0.000

$$$$
VeraChem MOL file


 29 28  0  0  0  0  0  0  0  0999 V2000     
   16.7489   21.8732   23.3276 C   0  0  0  0  0  0  0  0  0  0  0  0
   16.5195   21.2486   22.4545 H   0  0  0  0  0  0  0  0  0  0  0  0
   16.4700   21.3173   24.2313 H   0  0  0  0  0  0  0  0  0  0  0  0
   16.1117   22.7657   23.2790 H   0  0  0  0  0  0  0  0  0  0  0  0
   18.2412   22.2745   23.3468 C   0  0  0  0  0  0  0  0  0  0  0  0
   18.4507   22.8760   24.2424 H   0  0  0  0  0  0  0  0  0  0  0  0
   18.4446   22.9253   22.4848 H   0  0  0  0  0  0  0  0  0  0  0  0
   19.2026   21.0630   23.2929 C   0  0  0  0  0  0  0  0  0  0  0  0
   19.0033   20.4872   22.3795 H   0  0  0  0  0  0  0  0  0  0  0  0
   20.2319   21.4374   23.2068 H   0  0  0  0  0  0  0  0  0  0  0  0
   19.1002   20.1429   24.5355 C   0  0  0  0  0  0  0  0  0  0  0  0
   18.1118   19.6661   24.5706 H   0  0  0  0  0  0  0  0  0  0  0  0
   19.1812   20.7562   25.4435 H   0  0  0  0  0  0  0  0  0  0  0  0
   20.1952   19.0492   24.5811 C   0  0  0  0  0  0  0  0  0  0  0  0
   21.1821   19.5304   24.5870 H   0  0  0  0  0  0  0  0  0  0  0  0
   20.1076   18.5069   25.5327 H   0  0  0  0  0  0  0  0  0  0  0  0
   20.1000   18.0363   23.4111 C   0  0  0  0  0  0  0  0  0  0  0  0
   20.3191   18.5378   22.4599 H   0  0  0  0  0  0  0  0  0  0  0  0
   19.0652   17.6752   23.3441 H   0  0  0  0  0  0  0  0  0  0  0  0
   21.0353   16.8164   23.5717 C   0  0  2  0  0  0  0  0  0  0  0  0
   20.8283   16.3503   24.5399 H   0  0  0  0  0  0  0  0  0  0  0  0
   22.5209   17.2170   23.5314 C   0  0  0  0  0  0  0  0  0  0  0  0
   22.7648   17.7434   22.6002 H   0  0  0  0  0  0  0  0  0  0  0  0
   22.7808   17.8691   24.3732 H   0  0  0  0  0  0  0  0  0  0  0  0
   23.1622   16.3296   23.5985 H   0  0  0  0  0  0  0  0  0  0  0  0
   20.7492   15.7722   22.5286 N   0  3  0  0  0  0  0  0  0  0  0  0
   21.3398   14.9453   22.6556 H   0  0  0  0  0  0  0  0  0  0  0  0
   20.9221   16.1290   21.5849 H   0  0  0  0  0  0  0  0  0  0  0  0
   19.7748   15.4591   22.5658 H   0  0  0  0  0  0  0  0  0  0  0  0
  1  2  1  0  0  0  0
  1  3  1  0  0  0  0
  1  4  1  0  0  0  0
  1  5  1  0  0  0  0
  5  6  1  0  0  0  0
  5  7  1  0  0  0  0
  5  8  1  0  0  0  0
  8  9  1  0  0  0  0
  8 10  1  0  0  0  0
  8 11  1  0  0  0  0
 11 12  1  0  0  0  0
 11 13  1  0  0  0  0
 11 14  1  0  0  0  0
 14 15  1  0  0  0  0
 14 16  1  0  0  0  0
 14 17  1  0  0  0  0
 17 18  1  0  0  0  0
 17 19  1  0  0  0  0
 17 20  1  0  0  0  0
 20 21  1  0  0  0  0
 20 22  1  0  0  0  0
 22 23  1  0  0  0  0
 22 24  1  0  0  0  0
 22 25  1  0  0  0  0
 20 26  1  0  0  0  0
 26 27  1  0  0  0  0
 26 28  1  0  0  0  0
 26 29  1  0  0  0  0
M  END
> <VConfSearch Rank>
691

> <Conf_Id>
130

> <Delta U+W>
1.359

> <U+W>
-26.467

> <U>
25.687

> <W>
-52.154

> <W(PB)>
-54.643

> <W(SA)>
2.489

> <Valence>
4.682

> <Coulomb>
19.653

> <VdW>
1.352

> <VdW6>
-9.477

> <VdW12>
10.829

> <Bond>
0.274

> <Angle>
1.550

> <Pdih>
2.858

> <Idih>
0.000

> <Tether>
0.000

$$$$
VeraChem MOL file


 29 28  0  0  0  0  0  0  0  0999 V2000     
   21.3051   21.9850   21.0974 C   0  0  0  0  0  0  0  0  0  0  0  0
   22.1836   22.6101   20.8914 H   0  0  0  0  0  0  0  0  0  0  0  0
   20.7015   21.9420   20.1816 H   0  0  0  0  0  0  0  0  0  0  0  0
   20.7172   22.4892   21.8742 H   0  0  0  0  0  0  0  0  0  0  0  0
   21.7407   20.5706   21.5428 C   0  0  0  0  0  0  0  0  0  0  0  0
   22.3140   20.6377   22.4779 H   0  0  0  0  0  0  0  0  0  0  0  0
   22.4277   20.1591   20.7901 H   0  0  0  0  0  0  0  0  0  0  0  0
   20.5578   19.5888   21.7236 C   0  0  0  0  0  0  0  0  0  0  0  0
   19.9996   19.5120   20.7805 H   0  0  0  0  0  0  0  0  0  0  0  0
   20.9693   18.5904   21.9179 H   0  0  0  0  0  0  0  0  0  0  0  0
   19.5932   19.9915   22.8684 C   0  0  0  0  0  0  0  0  0  0  0  0
   19.1374   20.9608   22.6280 H   0  0  0  0  0  0  0  0  0  0  0  0
   20.1615   20.1398   23.7946 H   0  0  0  0  0  0  0  0  0  0  0  0
   18.4503   18.9668   23.0902 C   0  0  0  0  0  0  0  0  0  0  0  0
   17.6510   19.4306   23.6845 H   0  0  0  0  0  0  0  0  0  0  0  0
   17.9954   18.7401   22.1160 H   0  0  0  0  0  0  0  0  0  0  0  0
   18.8893   17.6375   23.7648 C   0  0  0  0  0  0  0  0  0  0  0  0
   19.9418   17.4170   23.5501 H   0  0  0  0  0  0  0  0  0  0  0  0
   18.3140   16.8237   23.3041 H   0  0  0  0  0  0  0  0  0  0  0  0
   18.6424   17.5770   25.2912 C   0  0  2  0  0  0  0  0  0  0  0  0
   17.5788   17.7602   25.4719 H   0  0  0  0  0  0  0  0  0  0  0  0
   19.4503   18.6317   26.0660 C   0  0  0  0  0  0  0  0  0  0  0  0
   19.1205   19.6453   25.8108 H   0  0  0  0  0  0  0  0  0  0  0  0
   19.3100   18.5094   27.1471 H   0  0  0  0  0  0  0  0  0  0  0  0
   20.5227   18.5488   25.8498 H   0  0  0  0  0  0  0  0  0  0  0  0
   18.9310   16.2033   25.8300 N   0  3  0  0  0  0  0  0  0  0  0  0
   18.3683   15.4880   25.3604 H   0  0  0  0  0  0  0  0  0  0  0  0
   18.7252   16.1438   26.8314 H   0  0  0  0  0  0  0  0  0  0  0  0
   19.9154   15.9520   25.7050 H   0  0  0  0  0  0  0  0  0  0  0  0
  1  2  1  0  0  0  0
  1  3  1  0  0  0  0
  1  4  1  0  0  0  0
  1  5  1  0  0  0  0
  5  6  1  0  0  0  0
  5  7  1  0  0  0  0
  5  8  1  0  0  0  0
  8  9  1  0  0  0  0
  8 10  1  0  0  0  0
  8 11  1  0  0  0  0
 11 12  1  0  0  0  0
 11 13  1  0  0  0  0
 11 14  1  0  0  0  0
 14 15  1  0  0  0  0
 14 16  1  0  0  0  0
 14 17  1  0  0  0  0
 17 18  1  0  0  0  0
 17 19  1  0  0  0  0
 17 20  1  0  0  0  0
 20 21  1  0  0  0  0
 20 22  1  0  0  0  0
 22 23  1  0  0  0  0
 22 24  1  0  0  0  0
 22 25  1  0  0  0  0
 20 26  1  0  0  0  0
 26 27  1  0  0  0  0
 26 28  1  0  0  0  0
 26 29  1  0  0  0  0
M  END
> <VConfSearch Rank>
692

> <Conf_Id>
157

> <Delta U+W>
4.354

> <U+W>
-23.472

> <U>
28.780

> <W>
-52.252

> <W(PB)>
-54.715

> <W(SA)>
2.462

> <Valence>
7.566

> <Coulomb>
19.822

> <VdW>
1.392

> <VdW6>
-10.248

> <VdW12>
11.641

> <Bond>
0.340

> <Angle>
2.096

> <Pdih>
5.129

> <Idih>
0.000

> <Tether>
0.000

$$$$
VeraChem MOL file


 29 28  0  0  0  0  0  0  0  0999 V2000     
   18.6846   16.1717   21.5769 C   0  0  0  0  0  0  0  0  0  0  0  0
   17.8052   15.5930   21.2659 H   0  0  0  0  0  0  0  0  0  0  0  0
   18.4998   17.2207   21.3208 H   0  0  0  0  0  0  0  0  0  0  0  0
   19.5390   15.8246   20.9814 H   0  0  0  0  0  0  0  0  0  0  0  0
   18.9518   15.9794   23.0880 C   0  0  0  0  0  0  0  0  0  0  0  0
   19.1094   14.9071   23.2700 H   0  0  0  0  0  0  0  0  0  0  0  0
   18.0632   16.2572   23.6718 H   0  0  0  0  0  0  0  0  0  0  0  0
   20.1948   16.7548   23.5953 C   0  0  0  0  0  0  0  0  0  0  0  0
   20.6946   16.1386   24.3555 H   0  0  0  0  0  0  0  0  0  0  0  0
   20.9261   16.8731   22.7840 H   0  0  0  0  0  0  0  0  0  0  0  0
   19.8872   18.1309   24.2403 C   0  0  0  0  0  0  0  0  0  0  0  0
   20.8316   18.5396   24.6220 H   0  0  0  0  0  0  0  0  0  0  0  0
   19.2405   17.9855   25.1166 H   0  0  0  0  0  0  0  0  0  0  0  0
   19.2279   19.1511   23.2797 C   0  0  0  0  0  0  0  0  0  0  0  0
   19.8238   19.2399   22.3619 H   0  0  0  0  0  0  0  0  0  0  0  0
   18.2438   18.7730   22.9746 H   0  0  0  0  0  0  0  0  0  0  0  0
   19.0203   20.5488   23.9181 C   0  0  0  0  0  0  0  0  0  0  0  0
   18.3548   20.4457   24.7855 H   0  0  0  0  0  0  0  0  0  0  0  0
   18.4920   21.1921   23.2019 H   0  0  0  0  0  0  0  0  0  0  0  0
   20.3241   21.2484   24.3639 C   0  0  2  0  0  0  0  0  0  0  0  0
   20.8238   20.6122   25.1001 H   0  0  0  0  0  0  0  0  0  0  0  0
   20.0061   22.5945   25.0338 C   0  0  0  0  0  0  0  0  0  0  0  0
   19.5080   23.2782   24.3350 H   0  0  0  0  0  0  0  0  0  0  0  0
   19.3484   22.4525   25.9003 H   0  0  0  0  0  0  0  0  0  0  0  0
   20.9246   23.0781   25.3887 H   0  0  0  0  0  0  0  0  0  0  0  0
   21.2912   21.4374   23.2278 N   0  3  0  0  0  0  0  0  0  0  0  0
   21.5392   20.5412   22.7996 H   0  0  0  0  0  0  0  0  0  0  0  0
   22.1593   21.8789   23.5440 H   0  0  0  0  0  0  0  0  0  0  0  0
   20.8936   22.0309   22.4949 H   0  0  0  0  0  0  0  0  0  0  0  0
  1  2  1  0  0  0  0
  1  3  1  0  0  0  0
  1  4  1  0  0  0  0
  1  5  1  0  0  0  0
  5  6  1  0  0  0  0
  5  7  1  0  0  0  0
  5  8  1  0  0  0  0
  8  9  1  0  0  0  0
  8 10  1  0  0  0  0
  8 11  1  0  0  0  0
 11 12  1  0  0  0  0
 11 13  1  0  0  0  0
 11 14  1  0  0  0  0
 14 15  1  0  0  0  0
 14 16  1  0  0  0  0
 14 17  1  0  0  0  0
 17 18  1  0  0  0  0
 17 19  1  0  0  0  0
 17 20  1  0  0  0  0
 20 21  1  0  0  0  0
 20 22  1  0  0  0  0
 22 23  1  0  0  0  0
 22 24  1  0  0  0  0
 22 25  1  0  0  0  0
 20 26  1  0  0  0  0
 26 27  1  0  0  0  0
 26 28  1  0  0  0  0
 26 29  1  0  0  0  0
M  END
> <VConfSearch Rank>
693

> <Conf_Id>
158

> <Delta U+W>
3.648

> <U+W>
-24.178

> <U>
28.057

> <W>
-52.235

> <W(PB)>
-54.696

> <W(SA)>
2.460

> <Valence>
6.543

> <Coulomb>
20.387

> <VdW>
1.127

> <VdW6>
-10.342

> <VdW12>
11.469

> <Bond>
0.308

> <Angle>
1.938

> <Pdih>
4.297

> <Idih>
0.000

> <Tether>
0.000

$$$$
VeraChem MOL file


 29 28  0  0  0  0  0  0  0  0999 V2000     
   18.3113   18.8490   20.1347 C   0  0  0  0  0  0  0  0  0  0  0  0
   18.8880   19.7445   19.8690 H   0  0  0  0  0  0  0  0  0  0  0  0
   19.0093   18.0859   20.5008 H   0  0  0  0  0  0  0  0  0  0  0  0
   17.8512   18.4614   19.2166 H   0  0  0  0  0  0  0  0  0  0  0  0
   17.2267   19.1780   21.1855 C   0  0  0  0  0  0  0  0  0  0  0  0
   16.6859   18.2611   21.4584 H   0  0  0  0  0  0  0  0  0  0  0  0
   16.4847   19.8485   20.7299 H   0  0  0  0  0  0  0  0  0  0  0  0
   17.7890   19.8531   22.4597 C   0  0  0  0  0  0  0  0  0  0  0  0
   18.3131   20.7784   22.1831 H   0  0  0  0  0  0  0  0  0  0  0  0
   16.9456   20.1540   23.0963 H   0  0  0  0  0  0  0  0  0  0  0  0
   18.7366   18.9404   23.2740 C   0  0  0  0  0  0  0  0  0  0  0  0
   19.6090   18.6781   22.6655 H   0  0  0  0  0  0  0  0  0  0  0  0
   18.2224   17.9981   23.5080 H   0  0  0  0  0  0  0  0  0  0  0  0
   19.1906   19.6171   24.5907 C   0  0  0  0  0  0  0  0  0  0  0  0
   19.6403   20.5981   24.3837 H   0  0  0  0  0  0  0  0  0  0  0  0
   18.2971   19.8162   25.1985 H   0  0  0  0  0  0  0  0  0  0  0  0
   20.1689   18.7480   25.4247 C   0  0  0  0  0  0  0  0  0  0  0  0
   20.0002   17.6822   25.2211 H   0  0  0  0  0  0  0  0  0  0  0  0
   19.9234   18.8919   26.4852 H   0  0  0  0  0  0  0  0  0  0  0  0
   21.6659   19.0968   25.2426 C   0  0  2  0  0  0  0  0  0  0  0  0
   21.8033   20.1511   25.5015 H   0  0  0  0  0  0  0  0  0  0  0  0
   22.1575   18.8898   23.8002 C   0  0  0  0  0  0  0  0  0  0  0  0
   21.9568   17.8683   23.4541 H   0  0  0  0  0  0  0  0  0  0  0  0
   21.6712   19.5931   23.1143 H   0  0  0  0  0  0  0  0  0  0  0  0
   23.2378   19.0672   23.7303 H   0  0  0  0  0  0  0  0  0  0  0  0
   22.5209   18.3132   26.1995 N   0  3  0  0  0  0  0  0  0  0  0  0
   22.2428   18.4734   27.1720 H   0  0  0  0  0  0  0  0  0  0  0  0
   23.5079   18.5736   26.1181 H   0  0  0  0  0  0  0  0  0  0  0  0
   22.4547   17.3073   26.0221 H   0  0  0  0  0  0  0  0  0  0  0  0
  1  2  1  0  0  0  0
  1  3  1  0  0  0  0
  1  4  1  0  0  0  0
  1  5  1  0  0  0  0
  5  6  1  0  0  0  0
  5  7  1  0  0  0  0
  5  8  1  0  0  0  0
  8  9  1  0  0  0  0
  8 10  1  0  0  0  0
  8 11  1  0  0  0  0
 11 12  1  0  0  0  0
 11 13  1  0  0  0  0
 11 14  1  0  0  0  0
 14 15  1  0  0  0  0
 14 16  1  0  0  0  0
 14 17  1  0  0  0  0
 17 18  1  0  0  0  0
 17 19  1  0  0  0  0
 17 20  1  0  0  0  0
 20 21  1  0  0  0  0
 20 22  1  0  0  0  0
 22 23  1  0  0  0  0
 22 24  1  0  0  0  0
 22 25  1  0  0  0  0
 20 26  1  0  0  0  0
 26 27  1  0  0  0  0
 26 28  1  0  0  0  0
 26 29  1  0  0  0  0
M  END
> <VConfSearch Rank>
694

> <Conf_Id>
156

> <Delta U+W>
3.393

> <U+W>
-24.433

> <U>
27.713

> <W>
-52.146

> <W(PB)>
-54.603

> <W(SA)>
2.458

> <Valence>
6.758

> <Coulomb>
19.720

> <VdW>
1.235

> <VdW6>
-9.782

> <VdW12>
11.017

> <Bond>
0.287

> <Angle>
1.880

> <Pdih>
4.591

> <Idih>
0.000

> <Tether>
0.000

$$$$
VeraChem MOL file


 29 28  0  0  0  0  0  0  0  0999 V2000     
   20.6443   15.8730   21.6334 C   0  0  0  0  0  0  0  0  0  0  0  0
   21.0779   16.5234   20.8625 H   0  0  0  0  0  0  0  0  0  0  0  0
   21.4097   15.1478   21.9392 H   0  0  0  0  0  0  0  0  0  0  0  0
   19.8155   15.3159   21.1775 H   0  0  0  0  0  0  0  0  0  0  0  0
   20.1479   16.6980   22.8394 C   0  0  0  0  0  0  0  0  0  0  0  0
   19.6934   16.0251   23.5798 H   0  0  0  0  0  0  0  0  0  0  0  0
   19.3578   17.3816   22.5017 H   0  0  0  0  0  0  0  0  0  0  0  0
   21.2984   17.4962   23.4964 C   0  0  0  0  0  0  0  0  0  0  0  0
   22.1100   16.8027   23.7562 H   0  0  0  0  0  0  0  0  0  0  0  0
   21.7261   18.1986   22.7691 H   0  0  0  0  0  0  0  0  0  0  0  0
   20.8756   18.2530   24.7823 C   0  0  0  0  0  0  0  0  0  0  0  0
   21.7545   18.7690   25.1925 H   0  0  0  0  0  0  0  0  0  0  0  0
   20.5773   17.5187   25.5432 H   0  0  0  0  0  0  0  0  0  0  0  0
   19.7266   19.2796   24.6064 C   0  0  0  0  0  0  0  0  0  0  0  0
   18.8074   18.7572   24.3133 H   0  0  0  0  0  0  0  0  0  0  0  0
   19.5225   19.7236   25.5891 H   0  0  0  0  0  0  0  0  0  0  0  0
   20.0546   20.4037   23.5860 C   0  0  0  0  0  0  0  0  0  0  0  0
   20.2301   19.9621   22.5974 H   0  0  0  0  0  0  0  0  0  0  0  0
   20.9958   20.8912   23.8724 H   0  0  0  0  0  0  0  0  0  0  0  0
   18.9589   21.4851   23.4344 C   0  0  2  0  0  0  0  0  0  0  0  0
   19.2920   22.1770   22.6546 H   0  0  0  0  0  0  0  0  0  0  0  0
   18.7643   22.3008   24.7245 C   0  0  0  0  0  0  0  0  0  0  0  0
   18.0897   23.1467   24.5444 H   0  0  0  0  0  0  0  0  0  0  0  0
   18.3314   21.6939   25.5283 H   0  0  0  0  0  0  0  0  0  0  0  0
   19.7204   22.7075   25.0768 H   0  0  0  0  0  0  0  0  0  0  0  0
   17.6525   20.9148   22.9551 N   0  3  0  0  0  0  0  0  0  0  0  0
   17.7649   20.4106   22.0710 H   0  0  0  0  0  0  0  0  0  0  0  0
   16.9572   21.6509   22.8020 H   0  0  0  0  0  0  0  0  0  0  0  0
   17.2616   20.2603   23.6373 H   0  0  0  0  0  0  0  0  0  0  0  0
  1  2  1  0  0  0  0
  1  3  1  0  0  0  0
  1  4  1  0  0  0  0
  1  5  1  0  0  0  0
  5  6  1  0  0  0  0
  5  7  1  0  0  0  0
  5  8  1  0  0  0  0
  8  9  1  0  0  0  0
  8 10  1  0  0  0  0
  8 11  1  0  0  0  0
 11 12  1  0  0  0  0
 11 13  1  0  0  0  0
 11 14  1  0  0  0  0
 14 15  1  0  0  0  0
 14 16  1  0  0  0  0
 14 17  1  0  0  0  0
 17 18  1  0  0  0  0
 17 19  1  0  0  0  0
 17 20  1  0  0  0  0
 20 21  1  0  0  0  0
 20 22  1  0  0  0  0
 22 23  1  0  0  0  0
 22 24  1  0  0  0  0
 22 25  1  0  0  0  0
 20 26  1  0  0  0  0
 26 27  1  0  0  0  0
 26 28  1  0  0  0  0
 26 29  1  0  0  0  0
M  END
> <VConfSearch Rank>
695

> <Conf_Id>
78

> <Delta U+W>
1.477

> <U+W>
-26.349

> <U>
26.385

> <W>
-52.734

> <W(PB)>
-55.179

> <W(SA)>
2.445

> <Valence>
4.726

> <Coulomb>
20.482

> <VdW>
1.177

> <VdW6>
-10.349

> <VdW12>
11.526

> <Bond>
0.319

> <Angle>
1.933

> <Pdih>
2.474

> <Idih>
0.000

> <Tether>
0.000

$$$$
VeraChem MOL file


 29 28  0  0  0  0  0  0  0  0999 V2000     
   19.0278   20.5058   26.8707 C   0  0  0  0  0  0  0  0  0  0  0  0
   19.8879   20.3485   27.5345 H   0  0  0  0  0  0  0  0  0  0  0  0
   19.3777   21.0580   25.9916 H   0  0  0  0  0  0  0  0  0  0  0  0
   18.3102   21.1448   27.4016 H   0  0  0  0  0  0  0  0  0  0  0  0
   18.3727   19.1579   26.4890 C   0  0  0  0  0  0  0  0  0  0  0  0
   17.4678   19.3288   25.8893 H   0  0  0  0  0  0  0  0  0  0  0  0
   18.0340   18.6720   27.4148 H   0  0  0  0  0  0  0  0  0  0  0  0
   19.3364   18.1949   25.7491 C   0  0  0  0  0  0  0  0  0  0  0  0
   20.3743   18.3872   26.0542 H   0  0  0  0  0  0  0  0  0  0  0  0
   19.1164   17.1705   26.0803 H   0  0  0  0  0  0  0  0  0  0  0  0
   19.2231   18.2188   24.2030 C   0  0  0  0  0  0  0  0  0  0  0  0
   18.2083   17.9190   23.9074 H   0  0  0  0  0  0  0  0  0  0  0  0
   19.8978   17.4488   23.8069 H   0  0  0  0  0  0  0  0  0  0  0  0
   19.5626   19.5864   23.5608 C   0  0  0  0  0  0  0  0  0  0  0  0
   18.8323   20.3330   23.8977 H   0  0  0  0  0  0  0  0  0  0  0  0
   20.5426   19.9330   23.9140 H   0  0  0  0  0  0  0  0  0  0  0  0
   19.5309   19.5611   22.0104 C   0  0  0  0  0  0  0  0  0  0  0  0
   19.7407   20.5714   21.6348 H   0  0  0  0  0  0  0  0  0  0  0  0
   18.5085   19.3234   21.6886 H   0  0  0  0  0  0  0  0  0  0  0  0
   20.5052   18.5604   21.3449 C   0  0  2  0  0  0  0  0  0  0  0  0
   20.2748   17.5561   21.7120 H   0  0  0  0  0  0  0  0  0  0  0  0
   21.9748   18.8746   21.6765 C   0  0  0  0  0  0  0  0  0  0  0  0
   22.6459   18.1837   21.1516 H   0  0  0  0  0  0  0  0  0  0  0  0
   22.2386   19.8973   21.3795 H   0  0  0  0  0  0  0  0  0  0  0  0
   22.1720   18.7660   22.7494 H   0  0  0  0  0  0  0  0  0  0  0  0
   20.3043   18.5192   19.8556 N   0  3  0  0  0  0  0  0  0  0  0  0
   20.5054   19.4263   19.4261 H   0  0  0  0  0  0  0  0  0  0  0  0
   19.3414   18.2698   19.6118 H   0  0  0  0  0  0  0  0  0  0  0  0
   20.9189   17.8292   19.4141 H   0  0  0  0  0  0  0  0  0  0  0  0
  1  2  1  0  0  0  0
  1  3  1  0  0  0  0
  1  4  1  0  0  0  0
  1  5  1  0  0  0  0
  5  6  1  0  0  0  0
  5  7  1  0  0  0  0
  5  8  1  0  0  0  0
  8  9  1  0  0  0  0
  8 10  1  0  0  0  0
  8 11  1  0  0  0  0
 11 12  1  0  0  0  0
 11 13  1  0  0  0  0
 11 14  1  0  0  0  0
 14 15  1  0  0  0  0
 14 16  1  0  0  0  0
 14 17  1  0  0  0  0
 17 18  1  0  0  0  0
 17 19  1  0  0  0  0
 17 20  1  0  0  0  0
 20 21  1  0  0  0  0
 20 22  1  0  0  0  0
 22 23  1  0  0  0  0
 22 24  1  0  0  0  0
 22 25  1  0  0  0  0
 20 26  1  0  0  0  0
 26 27  1  0  0  0  0
 26 28  1  0  0  0  0
 26 29  1  0  0  0  0
M  END
> <VConfSearch Rank>
696

> <Conf_Id>
145

> <Delta U+W>
3.784

> <U+W>
-24.042

> <U>
28.220

> <W>
-52.262

> <W(PB)>
-54.724

> <W(SA)>
2.462

> <Valence>
7.040

> <Coulomb>
19.984

> <VdW>
1.197

> <VdW6>
-10.566

> <VdW12>
11.763

> <Bond>
0.320

> <Angle>
2.280

> <Pdih>
4.439

> <Idih>
0.000

> <Tether>
0.000

$$$$
VeraChem MOL file


 29 28  0  0  0  0  0  0  0  0999 V2000     
   22.7982   19.0672   26.0837 C   0  0  0  0  0  0  0  0  0  0  0  0
   23.7464   19.6031   25.9456 H   0  0  0  0  0  0  0  0  0  0  0  0
   22.1112   19.7237   26.6334 H   0  0  0  0  0  0  0  0  0  0  0  0
   22.9965   18.1872   26.7092 H   0  0  0  0  0  0  0  0  0  0  0  0
   22.1958   18.6467   24.7265 C   0  0  0  0  0  0  0  0  0  0  0  0
   21.2751   18.0777   24.9028 H   0  0  0  0  0  0  0  0  0  0  0  0
   22.8912   17.9644   24.2180 H   0  0  0  0  0  0  0  0  0  0  0  0
   21.9187   19.8715   23.8219 C   0  0  0  0  0  0  0  0  0  0  0  0
   21.2792   20.5970   24.3431 H   0  0  0  0  0  0  0  0  0  0  0  0
   22.8733   20.3849   23.6414 H   0  0  0  0  0  0  0  0  0  0  0  0
   21.2955   19.4975   22.4517 C   0  0  0  0  0  0  0  0  0  0  0  0
   21.6008   18.4839   22.1574 H   0  0  0  0  0  0  0  0  0  0  0  0
   21.7197   20.1660   21.6897 H   0  0  0  0  0  0  0  0  0  0  0  0
   19.7523   19.6309   22.3816 C   0  0  0  0  0  0  0  0  0  0  0  0
   19.4752   20.6763   22.5723 H   0  0  0  0  0  0  0  0  0  0  0  0
   19.4453   19.4142   21.3506 H   0  0  0  0  0  0  0  0  0  0  0  0
   18.9897   18.6985   23.3604 C   0  0  0  0  0  0  0  0  0  0  0  0
   19.2340   18.9807   24.3917 H   0  0  0  0  0  0  0  0  0  0  0  0
   19.3407   17.6664   23.2305 H   0  0  0  0  0  0  0  0  0  0  0  0
   17.4494   18.7236   23.2176 C   0  0  2  0  0  0  0  0  0  0  0  0
   17.0404   18.0874   24.0086 H   0  0  0  0  0  0  0  0  0  0  0  0
   16.9807   18.1449   21.8710 C   0  0  0  0  0  0  0  0  0  0  0  0
   15.8886   18.0427   21.8579 H   0  0  0  0  0  0  0  0  0  0  0  0
   17.2655   18.7877   21.0299 H   0  0  0  0  0  0  0  0  0  0  0  0
   17.4094   17.1490   21.7039 H   0  0  0  0  0  0  0  0  0  0  0  0
   16.8738   20.0941   23.4453 N   0  3  0  0  0  0  0  0  0  0  0  0
   17.1996   20.7550   22.7356 H   0  0  0  0  0  0  0  0  0  0  0  0
   17.1419   20.4665   24.3607 H   0  0  0  0  0  0  0  0  0  0  0  0
   15.8506   20.0812   23.4071 H   0  0  0  0  0  0  0  0  0  0  0  0
  1  2  1  0  0  0  0
  1  3  1  0  0  0  0
  1  4  1  0  0  0  0
  1  5  1  0  0  0  0
  5  6  1  0  0  0  0
  5  7  1  0  0  0  0
  5  8  1  0  0  0  0
  8  9  1  0  0  0  0
  8 10  1  0  0  0  0
  8 11  1  0  0  0  0
 11 12  1  0  0  0  0
 11 13  1  0  0  0  0
 11 14  1  0  0  0  0
 14 15  1  0  0  0  0
 14 16  1  0  0  0  0
 14 17  1  0  0  0  0
 17 18  1  0  0  0  0
 17 19  1  0  0  0  0
 17 20  1  0  0  0  0
 20 21  1  0  0  0  0
 20 22  1  0  0  0  0
 22 23  1  0  0  0  0
 22 24  1  0  0  0  0
 22 25  1  0  0  0  0
 20 26  1  0  0  0  0
 26 27  1  0  0  0  0
 26 28  1  0  0  0  0
 26 29  1  0  0  0  0
M  END
> <VConfSearch Rank>
697

> <Conf_Id>
71

> <Delta U+W>
3.542

> <U+W>
-24.284

> <U>
28.217

> <W>
-52.501

> <W(PB)>
-54.947

> <W(SA)>
2.446

> <Valence>
6.821

> <Coulomb>
20.147

> <VdW>
1.249

> <VdW6>
-10.237

> <VdW12>
11.486

> <Bond>
0.317

> <Angle>
1.990

> <Pdih>
4.515

> <Idih>
0.000

> <Tether>
0.000

$$$$
VeraChem MOL file


 29 28  0  0  0  0  0  0  0  0999 V2000     
   20.6845   16.2533   20.9426 C   0  0  0  0  0  0  0  0  0  0  0  0
   21.1871   15.8402   21.8269 H   0  0  0  0  0  0  0  0  0  0  0  0
   19.9619   15.5100   20.5813 H   0  0  0  0  0  0  0  0  0  0  0  0
   21.4414   16.3954   20.1603 H   0  0  0  0  0  0  0  0  0  0  0  0
   19.9872   17.5892   21.2753 C   0  0  0  0  0  0  0  0  0  0  0  0
   19.5241   17.9924   20.3638 H   0  0  0  0  0  0  0  0  0  0  0  0
   20.7422   18.3195   21.5900 H   0  0  0  0  0  0  0  0  0  0  0  0
   18.9069   17.4111   22.3692 C   0  0  0  0  0  0  0  0  0  0  0  0
   18.1590   16.6977   21.9963 H   0  0  0  0  0  0  0  0  0  0  0  0
   19.3423   16.9512   23.2670 H   0  0  0  0  0  0  0  0  0  0  0  0
   18.1821   18.7303   22.7433 C   0  0  0  0  0  0  0  0  0  0  0  0
   17.1287   18.4944   22.9486 H   0  0  0  0  0  0  0  0  0  0  0  0
   18.1688   19.4157   21.8847 H   0  0  0  0  0  0  0  0  0  0  0  0
   18.7499   19.4507   23.9934 C   0  0  0  0  0  0  0  0  0  0  0  0
   18.1091   20.3166   24.2047 H   0  0  0  0  0  0  0  0  0  0  0  0
   18.6595   18.7824   24.8600 H   0  0  0  0  0  0  0  0  0  0  0  0
   20.2215   19.9191   23.8420 C   0  0  0  0  0  0  0  0  0  0  0  0
   20.3314   20.4713   22.8996 H   0  0  0  0  0  0  0  0  0  0  0  0
   20.8762   19.0421   23.7657 H   0  0  0  0  0  0  0  0  0  0  0  0
   20.7419   20.8087   24.9956 C   0  0  2  0  0  0  0  0  0  0  0  0
   21.7804   21.0656   24.7650 H   0  0  0  0  0  0  0  0  0  0  0  0
   20.7334   20.0685   26.3444 C   0  0  0  0  0  0  0  0  0  0  0  0
   21.2738   19.1166   26.2700 H   0  0  0  0  0  0  0  0  0  0  0  0
   21.2268   20.6717   27.1163 H   0  0  0  0  0  0  0  0  0  0  0  0
   19.7123   19.8587   26.6848 H   0  0  0  0  0  0  0  0  0  0  0  0
   20.0027   22.1149   25.0931 N   0  3  0  0  0  0  0  0  0  0  0  0
   20.0401   22.6341   24.2112 H   0  0  0  0  0  0  0  0  0  0  0  0
   20.4009   22.7165   25.8198 H   0  0  0  0  0  0  0  0  0  0  0  0
   19.0168   21.9675   25.3227 H   0  0  0  0  0  0  0  0  0  0  0  0
  1  2  1  0  0  0  0
  1  3  1  0  0  0  0
  1  4  1  0  0  0  0
  1  5  1  0  0  0  0
  5  6  1  0  0  0  0
  5  7  1  0  0  0  0
  5  8  1  0  0  0  0
  8  9  1  0  0  0  0
  8 10  1  0  0  0  0
  8 11  1  0  0  0  0
 11 12  1  0  0  0  0
 11 13  1  0  0  0  0
 11 14  1  0  0  0  0
 14 15  1  0  0  0  0
 14 16  1  0  0  0  0
 14 17  1  0  0  0  0
 17 18  1  0  0  0  0
 17 19  1  0  0  0  0
 17 20  1  0  0  0  0
 20 21  1  0  0  0  0
 20 22  1  0  0  0  0
 22 23  1  0  0  0  0
 22 24  1  0  0  0  0
 22 25  1  0  0  0  0
 20 26  1  0  0  0  0
 26 27  1  0  0  0  0
 26 28  1  0  0  0  0
 26 29  1  0  0  0  0
M  END
> <VConfSearch Rank>
698

> <Conf_Id>
163

> <Delta U+W>
3.309

> <U+W>
-24.517

> <U>
27.916

> <W>
-52.433

> <W(PB)>
-54.866

> <W(SA)>
2.433

> <Valence>
6.693

> <Coulomb>
20.015

> <VdW>
1.208

> <VdW6>
-10.294

> <VdW12>
11.503

> <Bond>
0.312

> <Angle>
1.939

> <Pdih>
4.441

> <Idih>
0.000

> <Tether>
0.000

$$$$
VeraChem MOL file


 29 28  0  0  0  0  0  0  0  0999 V2000     
   21.3959   16.0724   25.4766 C   0  0  0  0  0  0  0  0  0  0  0  0
   20.5249   15.5887   25.9377 H   0  0  0  0  0  0  0  0  0  0  0  0
   21.4692   15.7311   24.4368 H   0  0  0  0  0  0  0  0  0  0  0  0
   22.2927   15.7203   26.0025 H   0  0  0  0  0  0  0  0  0  0  0  0
   21.2878   17.6117   25.5642 C   0  0  0  0  0  0  0  0  0  0  0  0
   22.1520   18.0725   25.0657 H   0  0  0  0  0  0  0  0  0  0  0  0
   21.3477   17.9095   26.6204 H   0  0  0  0  0  0  0  0  0  0  0  0
   19.9761   18.1743   24.9652 C   0  0  0  0  0  0  0  0  0  0  0  0
   19.1153   17.7139   25.4692 H   0  0  0  0  0  0  0  0  0  0  0  0
   19.9329   19.2468   25.1940 H   0  0  0  0  0  0  0  0  0  0  0  0
   19.8587   17.9659   23.4340 C   0  0  0  0  0  0  0  0  0  0  0  0
   19.9033   16.8929   23.2076 H   0  0  0  0  0  0  0  0  0  0  0  0
   20.7246   18.4176   22.9324 H   0  0  0  0  0  0  0  0  0  0  0  0
   18.5424   18.5237   22.8325 C   0  0  0  0  0  0  0  0  0  0  0  0
   18.5137   18.2841   21.7610 H   0  0  0  0  0  0  0  0  0  0  0  0
   17.6918   17.9892   23.2773 H   0  0  0  0  0  0  0  0  0  0  0  0
   18.3269   20.0491   23.0226 C   0  0  0  0  0  0  0  0  0  0  0  0
   18.1555   20.2596   24.0859 H   0  0  0  0  0  0  0  0  0  0  0  0
   17.4037   20.3451   22.5070 H   0  0  0  0  0  0  0  0  0  0  0  0
   19.4971   20.9200   22.5147 C   0  0  2  0  0  0  0  0  0  0  0  0
   20.4066   20.6145   23.0404 H   0  0  0  0  0  0  0  0  0  0  0  0
   19.2373   22.4020   22.8271 C   0  0  0  0  0  0  0  0  0  0  0  0
   20.0824   23.0212   22.5020 H   0  0  0  0  0  0  0  0  0  0  0  0
   18.3339   22.7625   22.3193 H   0  0  0  0  0  0  0  0  0  0  0  0
   19.1075   22.5557   23.9057 H   0  0  0  0  0  0  0  0  0  0  0  0
   19.7581   20.7250   21.0464 N   0  3  0  0  0  0  0  0  0  0  0  0
   19.9619   19.7448   20.8333 H   0  0  0  0  0  0  0  0  0  0  0  0
   20.5564   21.2827   20.7299 H   0  0  0  0  0  0  0  0  0  0  0  0
   18.9484   21.0011   20.4846 H   0  0  0  0  0  0  0  0  0  0  0  0
  1  2  1  0  0  0  0
  1  3  1  0  0  0  0
  1  4  1  0  0  0  0
  1  5  1  0  0  0  0
  5  6  1  0  0  0  0
  5  7  1  0  0  0  0
  5  8  1  0  0  0  0
  8  9  1  0  0  0  0
  8 10  1  0  0  0  0
  8 11  1  0  0  0  0
 11 12  1  0  0  0  0
 11 13  1  0  0  0  0
 11 14  1  0  0  0  0
 14 15  1  0  0  0  0
 14 16  1  0  0  0  0
 14 17  1  0  0  0  0
 17 18  1  0  0  0  0
 17 19  1  0  0  0  0
 17 20  1  0  0  0  0
 20 21  1  0  0  0  0
 20 22  1  0  0  0  0
 22 23  1  0  0  0  0
 22 24  1  0  0  0  0
 22 25  1  0  0  0  0
 20 26  1  0  0  0  0
 26 27  1  0  0  0  0
 26 28  1  0  0  0  0
 26 29  1  0  0  0  0
M  END
> <VConfSearch Rank>
699

> <Conf_Id>
173

> <Delta U+W>
1.363

> <U+W>
-26.462

> <U>
25.816

> <W>
-52.279

> <W(PB)>
-54.727

> <W(SA)>
2.449

> <Valence>
4.504

> <Coulomb>
20.342

> <VdW>
0.971

> <VdW6>
-10.532

> <VdW12>
11.503

> <Bond>
0.307

> <Angle>
1.715

> <Pdih>
2.481

> <Idih>
0.000

> <Tether>
0.000

$$$$
VeraChem MOL file


 29 28  0  0  0  0  0  0  0  0999 V2000     
   17.5984   18.1097   20.4768 C   0  0  0  0  0  0  0  0  0  0  0  0
   17.5925   17.0197   20.6076 H   0  0  0  0  0  0  0  0  0  0  0  0
   16.5613   18.4435   20.3414 H   0  0  0  0  0  0  0  0  0  0  0  0
   18.1480   18.3356   19.5538 H   0  0  0  0  0  0  0  0  0  0  0  0
   18.2537   18.8094   21.6862 C   0  0  0  0  0  0  0  0  0  0  0  0
   18.2691   19.8947   21.5149 H   0  0  0  0  0  0  0  0  0  0  0  0
   19.2974   18.4774   21.7638 H   0  0  0  0  0  0  0  0  0  0  0  0
   17.5030   18.4974   23.0009 C   0  0  0  0  0  0  0  0  0  0  0  0
   16.4365   18.7243   22.8653 H   0  0  0  0  0  0  0  0  0  0  0  0
   17.5618   17.4197   23.2069 H   0  0  0  0  0  0  0  0  0  0  0  0
   18.0147   19.2856   24.2344 C   0  0  0  0  0  0  0  0  0  0  0  0
   17.3816   19.0087   25.0888 H   0  0  0  0  0  0  0  0  0  0  0  0
   17.8561   20.3627   24.0864 H   0  0  0  0  0  0  0  0  0  0  0  0
   19.4915   19.0042   24.6153 C   0  0  0  0  0  0  0  0  0  0  0  0
   19.5690   19.0102   25.7106 H   0  0  0  0  0  0  0  0  0  0  0  0
   19.7657   17.9906   24.2958 H   0  0  0  0  0  0  0  0  0  0  0  0
   20.4806   20.0577   24.0435 C   0  0  0  0  0  0  0  0  0  0  0  0
   20.2055   21.0486   24.4281 H   0  0  0  0  0  0  0  0  0  0  0  0
   20.3779   20.1246   22.9547 H   0  0  0  0  0  0  0  0  0  0  0  0
   21.9685   19.8023   24.3800 C   0  0  2  0  0  0  0  0  0  0  0  0
   22.5416   20.6427   23.9761 H   0  0  0  0  0  0  0  0  0  0  0  0
   22.4979   18.5188   23.7166 C   0  0  0  0  0  0  0  0  0  0  0  0
   22.3005   18.5275   22.6375 H   0  0  0  0  0  0  0  0  0  0  0  0
   23.5828   18.4355   23.8553 H   0  0  0  0  0  0  0  0  0  0  0  0
   22.0367   17.6204   24.1433 H   0  0  0  0  0  0  0  0  0  0  0  0
   22.2311   19.7923   25.8607 N   0  3  0  0  0  0  0  0  0  0  0  0
   21.9220   20.6629   26.3026 H   0  0  0  0  0  0  0  0  0  0  0  0
   23.2290   19.6835   26.0630 H   0  0  0  0  0  0  0  0  0  0  0  0
   21.7388   19.0217   26.3193 H   0  0  0  0  0  0  0  0  0  0  0  0
  1  2  1  0  0  0  0
  1  3  1  0  0  0  0
  1  4  1  0  0  0  0
  1  5  1  0  0  0  0
  5  6  1  0  0  0  0
  5  7  1  0  0  0  0
  5  8  1  0  0  0  0
  8  9  1  0  0  0  0
  8 10  1  0  0  0  0
  8 11  1  0  0  0  0
 11 12  1  0  0  0  0
 11 13  1  0  0  0  0
 11 14  1  0  0  0  0
 14 15  1  0  0  0  0
 14 16  1  0  0  0  0
 14 17  1  0  0  0  0
 17 18  1  0  0  0  0
 17 19  1  0  0  0  0
 17 20  1  0  0  0  0
 20 21  1  0  0  0  0
 20 22  1  0  0  0  0
 22 23  1  0  0  0  0
 22 24  1  0  0  0  0
 22 25  1  0  0  0  0
 20 26  1  0  0  0  0
 26 27  1  0  0  0  0
 26 28  1  0  0  0  0
 26 29  1  0  0  0  0
M  END
> <VConfSearch Rank>
700

> <Conf_Id>
117

> <Delta U+W>
3.377

> <U+W>
-24.449

> <U>
27.947

> <W>
-52.396

> <W(PB)>
-54.842

> <W(SA)>
2.447

> <Valence>
6.731

> <Coulomb>
20.067

> <VdW>
1.149

> <VdW6>
-10.427

> <VdW12>
11.575

> <Bond>
0.324

> <Angle>
1.943

> <Pdih>
4.465

> <Idih>
0.000

> <Tether>
0.000

$$$$
VeraChem MOL file


 29 28  0  0  0  0  0  0  0  0999 V2000     
   23.7793   17.1739   25.3692 C   0  0  0  0  0  0  0  0  0  0  0  0
   24.3422   18.1136   25.2951 H   0  0  0  0  0  0  0  0  0  0  0  0
   23.3841   17.0916   26.3901 H   0  0  0  0  0  0  0  0  0  0  0  0
   24.4831   16.3461   25.2125 H   0  0  0  0  0  0  0  0  0  0  0  0
   22.6410   17.1258   24.3282 C   0  0  0  0  0  0  0  0  0  0  0  0
   22.1184   16.1619   24.4037 H   0  0  0  0  0  0  0  0  0  0  0  0
   23.0691   17.1760   23.3172 H   0  0  0  0  0  0  0  0  0  0  0  0
   21.6353   18.2812   24.5267 C   0  0  0  0  0  0  0  0  0  0  0  0
   21.2118   18.2282   25.5392 H   0  0  0  0  0  0  0  0  0  0  0  0
   22.1627   19.2424   24.4526 H   0  0  0  0  0  0  0  0  0  0  0  0
   20.4938   18.2363   23.4860 C   0  0  0  0  0  0  0  0  0  0  0  0
   19.9682   17.2741   23.5603 H   0  0  0  0  0  0  0  0  0  0  0  0
   20.9181   18.2896   22.4738 H   0  0  0  0  0  0  0  0  0  0  0  0
   19.4875   19.3920   23.6854 C   0  0  0  0  0  0  0  0  0  0  0  0
   19.0610   19.3358   24.6967 H   0  0  0  0  0  0  0  0  0  0  0  0
   20.0211   20.3493   23.6162 H   0  0  0  0  0  0  0  0  0  0  0  0
   18.3458   19.3453   22.6409 C   0  0  0  0  0  0  0  0  0  0  0  0
   17.8608   18.3612   22.6892 H   0  0  0  0  0  0  0  0  0  0  0  0
   18.7634   19.4398   21.6296 H   0  0  0  0  0  0  0  0  0  0  0  0
   17.2781   20.4377   22.8662 C   0  0  2  0  0  0  0  0  0  0  0  0
   16.8953   20.3379   23.8865 H   0  0  0  0  0  0  0  0  0  0  0  0
   16.1059   20.2485   21.8902 C   0  0  0  0  0  0  0  0  0  0  0  0
   15.3266   20.9996   22.0691 H   0  0  0  0  0  0  0  0  0  0  0  0
   16.4378   20.3415   20.8485 H   0  0  0  0  0  0  0  0  0  0  0  0
   15.6494   19.2589   22.0163 H   0  0  0  0  0  0  0  0  0  0  0  0
   17.8424   21.8272   22.7490 N   0  3  0  0  0  0  0  0  0  0  0  0
   18.5956   21.9828   23.4244 H   0  0  0  0  0  0  0  0  0  0  0  0
   17.1253   22.5378   22.9206 H   0  0  0  0  0  0  0  0  0  0  0  0
   18.2250   21.9968   21.8150 H   0  0  0  0  0  0  0  0  0  0  0  0
  1  2  1  0  0  0  0
  1  3  1  0  0  0  0
  1  4  1  0  0  0  0
  1  5  1  0  0  0  0
  5  6  1  0  0  0  0
  5  7  1  0  0  0  0
  5  8  1  0  0  0  0
  8  9  1  0  0  0  0
  8 10  1  0  0  0  0
  8 11  1  0  0  0  0
 11 12  1  0  0  0  0
 11 13  1  0  0  0  0
 11 14  1  0  0  0  0
 14 15  1  0  0  0  0
 14 16  1  0  0  0  0
 14 17  1  0  0  0  0
 17 18  1  0  0  0  0
 17 19  1  0  0  0  0
 17 20  1  0  0  0  0
 20 21  1  0  0  0  0
 20 22  1  0  0  0  0
 22 23  1  0  0  0  0
 22 24  1  0  0  0  0
 22 25  1  0  0  0  0
 20 26  1  0  0  0  0
 26 27  1  0  0  0  0
 26 28  1  0  0  0  0
 26 29  1  0  0  0  0
M  END
> <VConfSearch Rank>
701

> <Conf_Id>
164

> <Delta U+W>
0.000

> <U+W>
-27.826

> <U>
23.963

> <W>
-51.789

> <W(PB)>
-54.342

> <W(SA)>
2.554

> <Valence>
3.166

> <Coulomb>
19.734

> <VdW>
1.062

> <VdW6>
-7.938

> <VdW12>
9.001

> <Bond>
0.188

> <Angle>
0.880

> <Pdih>
2.098

> <Idih>
0.000

> <Tether>
0.000

$$$$
VeraChem MOL file


 29 28  0  0  0  0  0  0  0  0999 V2000     
   22.5165   21.4143   26.8021 C   0  0  0  0  0  0  0  0  0  0  0  0
   22.1220   22.4110   26.5649 H   0  0  0  0  0  0  0  0  0  0  0  0
   21.9418   21.0110   27.6461 H   0  0  0  0  0  0  0  0  0  0  0  0
   23.5576   21.5330   27.1294 H   0  0  0  0  0  0  0  0  0  0  0  0
   22.4335   20.4790   25.5773 C   0  0  0  0  0  0  0  0  0  0  0  0
   22.8656   19.5019   25.8348 H   0  0  0  0  0  0  0  0  0  0  0  0
   23.0445   20.8911   24.7619 H   0  0  0  0  0  0  0  0  0  0  0  0
   20.9774   20.2949   25.0960 C   0  0  0  0  0  0  0  0  0  0  0  0
   20.3702   19.8852   25.9150 H   0  0  0  0  0  0  0  0  0  0  0  0
   20.5490   21.2744   24.8419 H   0  0  0  0  0  0  0  0  0  0  0  0
   20.8903   19.3588   23.8695 C   0  0  0  0  0  0  0  0  0  0  0  0
   21.3185   18.3795   24.1244 H   0  0  0  0  0  0  0  0  0  0  0  0
   21.4990   19.7692   23.0519 H   0  0  0  0  0  0  0  0  0  0  0  0
   19.4332   19.1753   23.3880 C   0  0  0  0  0  0  0  0  0  0  0  0
   18.8323   18.7733   24.2143 H   0  0  0  0  0  0  0  0  0  0  0  0
   19.0069   20.1542   23.1283 H   0  0  0  0  0  0  0  0  0  0  0  0
   19.3483   18.2332   22.1620 C   0  0  0  0  0  0  0  0  0  0  0  0
   19.7130   17.2344   22.4363 H   0  0  0  0  0  0  0  0  0  0  0  0
   20.0265   18.6096   21.3847 H   0  0  0  0  0  0  0  0  0  0  0  0
   17.9291   18.1213   21.5595 C   0  0  2  0  0  0  0  0  0  0  0  0
   17.5715   19.1305   21.3336 H   0  0  0  0  0  0  0  0  0  0  0  0
   16.9364   17.4584   22.5312 C   0  0  0  0  0  0  0  0  0  0  0  0
   17.2852   16.4645   22.8383 H   0  0  0  0  0  0  0  0  0  0  0  0
   16.7934   18.0664   23.4320 H   0  0  0  0  0  0  0  0  0  0  0  0
   15.9529   17.3427   22.0593 H   0  0  0  0  0  0  0  0  0  0  0  0
   17.9524   17.3775   20.2531 N   0  3  0  0  0  0  0  0  0  0  0  0
   17.0206   17.3349   19.8303 H   0  0  0  0  0  0  0  0  0  0  0  0
   18.2760   16.4143   20.3768 H   0  0  0  0  0  0  0  0  0  0  0  0
   18.5744   17.8265   19.5745 H   0  0  0  0  0  0  0  0  0  0  0  0
  1  2  1  0  0  0  0
  1  3  1  0  0  0  0
  1  4  1  0  0  0  0
  1  5  1  0  0  0  0
  5  6  1  0  0  0  0
  5  7  1  0  0  0  0
  5  8  1  0  0  0  0
  8  9  1  0  0  0  0
  8 10  1  0  0  0  0
  8 11  1  0  0  0  0
 11 12  1  0  0  0  0
 11 13  1  0  0  0  0
 11 14  1  0  0  0  0
 14 15  1  0  0  0  0
 14 16  1  0  0  0  0
 14 17  1  0  0  0  0
 17 18  1  0  0  0  0
 17 19  1  0  0  0  0
 17 20  1  0  0  0  0
 20 21  1  0  0  0  0
 20 22  1  0  0  0  0
 22 23  1  0  0  0  0
 22 24  1  0  0  0  0
 22 25  1  0  0  0  0
 20 26  1  0  0  0  0
 26 27  1  0  0  0  0
 26 28  1  0  0  0  0
 26 29  1  0  0  0  0
M  END
> <VConfSearch Rank>
702

> <Conf_Id>
58

> <Delta U+W>
0.412

> <U+W>
-27.414

> <U>
24.279

> <W>
-51.694

> <W(PB)>
-54.271

> <W(SA)>
2.577

> <Valence>
3.709

> <Coulomb>
19.380

> <VdW>
1.191

> <VdW6>
-8.093

> <VdW12>
9.284

> <Bond>
0.200

> <Angle>
1.161

> <Pdih>
2.348

> <Idih>
0.000

> <Tether>
0.000

$$$$
VeraChem MOL file


 29 28  0  0  0  0  0  0  0  0999 V2000     
   21.3980   19.0841   27.8792 C   0  0  0  0  0  0  0  0  0  0  0  0
   21.4278   17.9873   27.9169 H   0  0  0  0  0  0  0  0  0  0  0  0
   22.3845   19.4421   27.5567 H   0  0  0  0  0  0  0  0  0  0  0  0
   21.2227   19.4518   28.8986 H   0  0  0  0  0  0  0  0  0  0  0  0
   20.2900   19.5763   26.9243 C   0  0  0  0  0  0  0  0  0  0  0  0
   20.2623   20.6749   26.9335 H   0  0  0  0  0  0  0  0  0  0  0  0
   19.3130   19.2313   27.2909 H   0  0  0  0  0  0  0  0  0  0  0  0
   20.5131   19.0723   25.4814 C   0  0  0  0  0  0  0  0  0  0  0  0
   21.4917   19.4178   25.1201 H   0  0  0  0  0  0  0  0  0  0  0  0
   20.5426   17.9739   25.4777 H   0  0  0  0  0  0  0  0  0  0  0  0
   19.4052   19.5630   24.5222 C   0  0  0  0  0  0  0  0  0  0  0  0
   19.3764   20.6614   24.5274 H   0  0  0  0  0  0  0  0  0  0  0  0
   18.4272   19.2173   24.8847 H   0  0  0  0  0  0  0  0  0  0  0  0
   19.6286   19.0585   23.0787 C   0  0  0  0  0  0  0  0  0  0  0  0
   20.6077   19.4059   22.7233 H   0  0  0  0  0  0  0  0  0  0  0  0
   19.6608   17.9611   23.0848 H   0  0  0  0  0  0  0  0  0  0  0  0
   18.5119   19.5513   22.1219 C   0  0  0  0  0  0  0  0  0  0  0  0
   18.4588   20.6472   22.1641 H   0  0  0  0  0  0  0  0  0  0  0  0
   17.5399   19.1880   22.4811 H   0  0  0  0  0  0  0  0  0  0  0  0
   18.6856   19.1275   20.6443 C   0  0  2  0  0  0  0  0  0  0  0  0
   17.8546   19.5635   20.0813 H   0  0  0  0  0  0  0  0  0  0  0  0
   18.6163   17.6006   20.4681 C   0  0  0  0  0  0  0  0  0  0  0  0
   18.6047   17.3378   19.4032 H   0  0  0  0  0  0  0  0  0  0  0  0
   19.4769   17.0996   20.9269 H   0  0  0  0  0  0  0  0  0  0  0  0
   17.7017   17.1970   20.9201 H   0  0  0  0  0  0  0  0  0  0  0  0
   19.9413   19.6838   20.0316 N   0  3  0  0  0  0  0  0  0  0  0  0
   19.9744   20.7047   20.1051 H   0  0  0  0  0  0  0  0  0  0  0  0
   20.0097   19.4459   19.0379 H   0  0  0  0  0  0  0  0  0  0  0  0
   20.7753   19.3138   20.4942 H   0  0  0  0  0  0  0  0  0  0  0  0
  1  2  1  0  0  0  0
  1  3  1  0  0  0  0
  1  4  1  0  0  0  0
  1  5  1  0  0  0  0
  5  6  1  0  0  0  0
  5  7  1  0  0  0  0
  5  8  1  0  0  0  0
  8  9  1  0  0  0  0
  8 10  1  0  0  0  0
  8 11  1  0  0  0  0
 11 12  1  0  0  0  0
 11 13  1  0  0  0  0
 11 14  1  0  0  0  0
 14 15  1  0  0  0  0
 14 16  1  0  0  0  0
 14 17  1  0  0  0  0
 17 18  1  0  0  0  0
 17 19  1  0  0  0  0
 17 20  1  0  0  0  0
 20 21  1  0  0  0  0
 20 22  1  0  0  0  0
 22 23  1  0  0  0  0
 22 24  1  0  0  0  0
 22 25  1  0  0  0  0
 20 26  1  0  0  0  0
 26 27  1  0  0  0  0
 26 28  1  0  0  0  0
 26 29  1  0  0  0  0
M  END
> <VConfSearch Rank>
703

> <Conf_Id>
137

> <Delta U+W>
0.280

> <U+W>
-27.546

> <U>
24.513

> <W>
-52.059

> <W(PB)>
-54.556

> <W(SA)>
2.497

> <Valence>
3.677

> <Coulomb>
19.662

> <VdW>
1.174

> <VdW6>
-8.569

> <VdW12>
9.743

> <Bond>
0.224

> <Angle>
1.211

> <Pdih>
2.243

> <Idih>
0.000

> <Tether>
0.000

$$$$
VeraChem MOL file


 29 28  0  0  0  0  0  0  0  0999 V2000     
   18.0259   22.2607   26.2127 C   0  0  0  0  0  0  0  0  0  0  0  0
   18.1350   22.8832   25.3150 H   0  0  0  0  0  0  0  0  0  0  0  0
   17.0176   21.8266   26.2074 H   0  0  0  0  0  0  0  0  0  0  0  0
   18.1060   22.9164   27.0894 H   0  0  0  0  0  0  0  0  0  0  0  0
   19.1043   21.1575   26.2572 C   0  0  0  0  0  0  0  0  0  0  0  0
   18.9909   20.5746   27.1820 H   0  0  0  0  0  0  0  0  0  0  0  0
   20.0998   21.6218   26.2950 H   0  0  0  0  0  0  0  0  0  0  0  0
   19.0133   20.2189   25.0337 C   0  0  0  0  0  0  0  0  0  0  0  0
   18.0176   19.7555   25.0019 H   0  0  0  0  0  0  0  0  0  0  0  0
   19.1179   20.8156   24.1184 H   0  0  0  0  0  0  0  0  0  0  0  0
   20.0975   19.1150   25.0758 C   0  0  0  0  0  0  0  0  0  0  0  0
   20.0292   18.5869   26.0370 H   0  0  0  0  0  0  0  0  0  0  0  0
   21.0957   19.5733   25.0467 H   0  0  0  0  0  0  0  0  0  0  0  0
   19.9710   18.0727   23.9372 C   0  0  0  0  0  0  0  0  0  0  0  0
   20.6818   17.2626   24.1442 H   0  0  0  0  0  0  0  0  0  0  0  0
   18.9699   17.6205   23.9622 H   0  0  0  0  0  0  0  0  0  0  0  0
   20.2464   18.6579   22.5274 C   0  0  0  0  0  0  0  0  0  0  0  0
   21.2509   19.1004   22.4994 H   0  0  0  0  0  0  0  0  0  0  0  0
   19.5403   19.4746   22.3352 H   0  0  0  0  0  0  0  0  0  0  0  0
   20.1012   17.6256   21.3856 C   0  0  2  0  0  0  0  0  0  0  0  0
   19.1170   17.1550   21.4712 H   0  0  0  0  0  0  0  0  0  0  0  0
   21.1761   16.5256   21.4534 C   0  0  0  0  0  0  0  0  0  0  0  0
   22.1853   16.9555   21.4400 H   0  0  0  0  0  0  0  0  0  0  0  0
   21.0720   15.9196   22.3606 H   0  0  0  0  0  0  0  0  0  0  0  0
   21.0857   15.8445   20.5982 H   0  0  0  0  0  0  0  0  0  0  0  0
   20.1336   18.2978   20.0411 N   0  3  0  0  0  0  0  0  0  0  0  0
   19.3971   19.0042   19.9545 H   0  0  0  0  0  0  0  0  0  0  0  0
   19.9988   17.6231   19.2825 H   0  0  0  0  0  0  0  0  0  0  0  0
   21.0294   18.7655   19.8783 H   0  0  0  0  0  0  0  0  0  0  0  0
  1  2  1  0  0  0  0
  1  3  1  0  0  0  0
  1  4  1  0  0  0  0
  1  5  1  0  0  0  0
  5  6  1  0  0  0  0
  5  7  1  0  0  0  0
  5  8  1  0  0  0  0
  8  9  1  0  0  0  0
  8 10  1  0  0  0  0
  8 11  1  0  0  0  0
 11 12  1  0  0  0  0
 11 13  1  0  0  0  0
 11 14  1  0  0  0  0
 14 15  1  0  0  0  0
 14 16  1  0  0  0  0
 14 17  1  0  0  0  0
 17 18  1  0  0  0  0
 17 19  1  0  0  0  0
 17 20  1  0  0  0  0
 20 21  1  0  0  0  0
 20 22  1  0  0  0  0
 22 23  1  0  0  0  0
 22 24  1  0  0  0  0
 22 25  1  0  0  0  0
 20 26  1  0  0  0  0
 26 27  1  0  0  0  0
 26 28  1  0  0  0  0
 26 29  1  0  0  0  0
M  END
> <VConfSearch Rank>
704

> <Conf_Id>
40

> <Delta U+W>
1.128

> <U+W>
-26.698

> <U>
25.442

> <W>
-52.140

> <W(PB)>
-54.658

> <W(SA)>
2.519

> <Valence>
4.343

> <Coulomb>
19.740

> <VdW>
1.360

> <VdW6>
-8.739

> <VdW12>
10.099

> <Bond>
0.251

> <Angle>
1.483

> <Pdih>
2.608

> <Idih>
0.000

> <Tether>
0.000

$$$$
VeraChem MOL file


 29 28  0  0  0  0  0  0  0  0999 V2000     
   21.5485   23.0902   23.2821 C   0  0  0  0  0  0  0  0  0  0  0  0
   22.4163   22.4754   23.5506 H   0  0  0  0  0  0  0  0  0  0  0  0
   21.4773   23.1266   22.1872 H   0  0  0  0  0  0  0  0  0  0  0  0
   21.7441   24.1094   23.6396 H   0  0  0  0  0  0  0  0  0  0  0  0
   20.2457   22.5398   23.9057 C   0  0  0  0  0  0  0  0  0  0  0  0
   19.4347   23.2571   23.7168 H   0  0  0  0  0  0  0  0  0  0  0  0
   20.3544   22.4797   24.9976 H   0  0  0  0  0  0  0  0  0  0  0  0
   19.8262   21.1596   23.3442 C   0  0  0  0  0  0  0  0  0  0  0  0
   18.8306   20.9230   23.7401 H   0  0  0  0  0  0  0  0  0  0  0  0
   19.7190   21.2254   22.2528 H   0  0  0  0  0  0  0  0  0  0  0  0
   20.8140   20.0210   23.7057 C   0  0  0  0  0  0  0  0  0  0  0  0
   20.9171   19.9510   24.7972 H   0  0  0  0  0  0  0  0  0  0  0  0
   21.8102   20.2675   23.3168 H   0  0  0  0  0  0  0  0  0  0  0  0
   20.4081   18.6403   23.1328 C   0  0  0  0  0  0  0  0  0  0  0  0
   20.2862   18.7161   22.0434 H   0  0  0  0  0  0  0  0  0  0  0  0
   21.2417   17.9463   23.3025 H   0  0  0  0  0  0  0  0  0  0  0  0
   19.1168   18.0598   23.7652 C   0  0  0  0  0  0  0  0  0  0  0  0
   18.2787   18.7401   23.5709 H   0  0  0  0  0  0  0  0  0  0  0  0
   19.2301   18.0031   24.8560 H   0  0  0  0  0  0  0  0  0  0  0  0
   18.7483   16.6669   23.2093 C   0  0  2  0  0  0  0  0  0  0  0  0
   18.6775   16.7403   22.1197 H   0  0  0  0  0  0  0  0  0  0  0  0
   17.3819   16.2192   23.7525 C   0  0  0  0  0  0  0  0  0  0  0  0
   17.0977   15.2457   23.3343 H   0  0  0  0  0  0  0  0  0  0  0  0
   17.3995   16.1297   24.8460 H   0  0  0  0  0  0  0  0  0  0  0  0
   16.5993   16.9387   23.4811 H   0  0  0  0  0  0  0  0  0  0  0  0
   19.7969   15.6300   23.5069 N   0  3  0  0  0  0  0  0  0  0  0  0
   19.9237   15.5068   24.5150 H   0  0  0  0  0  0  0  0  0  0  0  0
   20.7040   15.8909   23.1111 H   0  0  0  0  0  0  0  0  0  0  0  0
   19.5429   14.7183   23.1158 H   0  0  0  0  0  0  0  0  0  0  0  0
  1  2  1  0  0  0  0
  1  3  1  0  0  0  0
  1  4  1  0  0  0  0
  1  5  1  0  0  0  0
  5  6  1  0  0  0  0
  5  7  1  0  0  0  0
  5  8  1  0  0  0  0
  8  9  1  0  0  0  0
  8 10  1  0  0  0  0
  8 11  1  0  0  0  0
 11 12  1  0  0  0  0
 11 13  1  0  0  0  0
 11 14  1  0  0  0  0
 14 15  1  0  0  0  0
 14 16  1  0  0  0  0
 14 17  1  0  0  0  0
 17 18  1  0  0  0  0
 17 19  1  0  0  0  0
 17 20  1  0  0  0  0
 20 21  1  0  0  0  0
 20 22  1  0  0  0  0
 22 23  1  0  0  0  0
 22 24  1  0  0  0  0
 22 25  1  0  0  0  0
 20 26  1  0  0  0  0
 26 27  1  0  0  0  0
 26 28  1  0  0  0  0
 26 29  1  0  0  0  0
M  END
> <VConfSearch Rank>
705

> <Conf_Id>
134

> <Delta U+W>
1.228

> <U+W>
-26.598

> <U>
25.451

> <W>
-52.048

> <W(PB)>
-54.539

> <W(SA)>
2.490

> <Valence>
4.319

> <Coulomb>
19.732

> <VdW>
1.400

> <VdW6>
-9.173

> <VdW12>
10.573

> <Bond>
0.281

> <Angle>
1.459

> <Pdih>
2.580

> <Idih>
0.000

> <Tether>
0.000

$$$$
VeraChem MOL file


 29 28  0  0  0  0  0  0  0  0999 V2000     
   21.1182   23.1945   23.3356 C   0  0  0  0  0  0  0  0  0  0  0  0
   21.0160   22.9967   22.2616 H   0  0  0  0  0  0  0  0  0  0  0  0
   20.1503   23.5472   23.7149 H   0  0  0  0  0  0  0  0  0  0  0  0
   21.8421   24.0114   23.4523 H   0  0  0  0  0  0  0  0  0  0  0  0
   21.5920   21.9394   24.1032 C   0  0  0  0  0  0  0  0  0  0  0  0
   21.8019   22.2216   25.1443 H   0  0  0  0  0  0  0  0  0  0  0  0
   22.5438   21.5856   23.6829 H   0  0  0  0  0  0  0  0  0  0  0  0
   20.5583   20.7872   24.1016 C   0  0  0  0  0  0  0  0  0  0  0  0
   20.9234   20.0038   24.7779 H   0  0  0  0  0  0  0  0  0  0  0  0
   19.6096   21.1452   24.5245 H   0  0  0  0  0  0  0  0  0  0  0  0
   20.3100   20.1834   22.6959 C   0  0  0  0  0  0  0  0  0  0  0  0
   21.2586   19.8240   22.2738 H   0  0  0  0  0  0  0  0  0  0  0  0
   19.9489   20.9686   22.0194 H   0  0  0  0  0  0  0  0  0  0  0  0
   19.2714   19.0347   22.6925 C   0  0  0  0  0  0  0  0  0  0  0  0
   18.3232   19.4081   23.1013 H   0  0  0  0  0  0  0  0  0  0  0  0
   19.0705   18.7511   21.6501 H   0  0  0  0  0  0  0  0  0  0  0  0
   19.7350   17.7788   23.4749 C   0  0  0  0  0  0  0  0  0  0  0  0
   19.8014   18.0044   24.5466 H   0  0  0  0  0  0  0  0  0  0  0  0
   20.7488   17.5155   23.1459 H   0  0  0  0  0  0  0  0  0  0  0  0
   18.8191   16.5508   23.2700 C   0  0  2  0  0  0  0  0  0  0  0  0
   18.7357   16.3603   22.1956 H   0  0  0  0  0  0  0  0  0  0  0  0
   17.4062   16.7822   23.8350 C   0  0  0  0  0  0  0  0  0  0  0  0
   17.4420   17.0356   24.9018 H   0  0  0  0  0  0  0  0  0  0  0  0
   16.8934   17.5937   23.3058 H   0  0  0  0  0  0  0  0  0  0  0  0
   16.7917   15.8807   23.7199 H   0  0  0  0  0  0  0  0  0  0  0  0
   19.4254   15.3147   23.8740 N   0  3  0  0  0  0  0  0  0  0  0  0
   20.3500   15.1171   23.4802 H   0  0  0  0  0  0  0  0  0  0  0  0
   18.8406   14.4910   23.7060 H   0  0  0  0  0  0  0  0  0  0  0  0
   19.5362   15.4091   24.8872 H   0  0  0  0  0  0  0  0  0  0  0  0
  1  2  1  0  0  0  0
  1  3  1  0  0  0  0
  1  4  1  0  0  0  0
  1  5  1  0  0  0  0
  5  6  1  0  0  0  0
  5  7  1  0  0  0  0
  5  8  1  0  0  0  0
  8  9  1  0  0  0  0
  8 10  1  0  0  0  0
  8 11  1  0  0  0  0
 11 12  1  0  0  0  0
 11 13  1  0  0  0  0
 11 14  1  0  0  0  0
 14 15  1  0  0  0  0
 14 16  1  0  0  0  0
 14 17  1  0  0  0  0
 17 18  1  0  0  0  0
 17 19  1  0  0  0  0
 17 20  1  0  0  0  0
 20 21  1  0  0  0  0
 20 22  1  0  0  0  0
 22 23  1  0  0  0  0
 22 24  1  0  0  0  0
 22 25  1  0  0  0  0
 20 26  1  0  0  0  0
 26 27  1  0  0  0  0
 26 28  1  0  0  0  0
 26 29  1  0  0  0  0
M  END
> <VConfSearch Rank>
706

> <Conf_Id>
73

> <Delta U+W>
1.580

> <U+W>
-26.246

> <U>
25.821

> <W>
-52.067

> <W(PB)>
-54.581

> <W(SA)>
2.514

> <Valence>
4.779

> <Coulomb>
19.614

> <VdW>
1.428

> <VdW6>
-9.390

> <VdW12>
10.818

> <Bond>
0.283

> <Angle>
1.640

> <Pdih>
2.856

> <Idih>
0.000

> <Tether>
0.000

$$$$
VeraChem MOL file


 29 28  0  0  0  0  0  0  0  0999 V2000     
   16.7456   15.8714   23.2048 C   0  0  0  0  0  0  0  0  0  0  0  0
   16.2701   16.5979   22.5330 H   0  0  0  0  0  0  0  0  0  0  0  0
   16.4453   14.8663   22.8811 H   0  0  0  0  0  0  0  0  0  0  0  0
   16.3508   16.0317   24.2165 H   0  0  0  0  0  0  0  0  0  0  0  0
   18.2820   16.0155   23.1798 C   0  0  0  0  0  0  0  0  0  0  0  0
   18.6504   15.8176   22.1634 H   0  0  0  0  0  0  0  0  0  0  0  0
   18.7298   15.2539   23.8334 H   0  0  0  0  0  0  0  0  0  0  0  0
   18.7319   17.4222   23.6325 C   0  0  0  0  0  0  0  0  0  0  0  0
   18.2696   18.1723   22.9779 H   0  0  0  0  0  0  0  0  0  0  0  0
   18.3636   17.6141   24.6496 H   0  0  0  0  0  0  0  0  0  0  0  0
   20.2724   17.5689   23.6030 C   0  0  0  0  0  0  0  0  0  0  0  0
   20.6383   17.4361   22.5755 H   0  0  0  0  0  0  0  0  0  0  0  0
   20.7185   16.7583   24.1958 H   0  0  0  0  0  0  0  0  0  0  0  0
   20.7800   18.9201   24.1641 C   0  0  0  0  0  0  0  0  0  0  0  0
   20.4160   19.0505   25.1927 H   0  0  0  0  0  0  0  0  0  0  0  0
   21.8749   18.8706   24.2277 H   0  0  0  0  0  0  0  0  0  0  0  0
   20.3658   20.1423   23.3045 C   0  0  0  0  0  0  0  0  0  0  0  0
   19.2713   20.2037   23.2647 H   0  0  0  0  0  0  0  0  0  0  0  0
   20.7115   20.0045   22.2714 H   0  0  0  0  0  0  0  0  0  0  0  0
   20.9065   21.4786   23.8585 C   0  0  2  0  0  0  0  0  0  0  0  0
   20.5802   21.5759   24.8985 H   0  0  0  0  0  0  0  0  0  0  0  0
   20.3319   22.6595   23.0599 C   0  0  0  0  0  0  0  0  0  0  0  0
   19.2356   22.6636   23.1038 H   0  0  0  0  0  0  0  0  0  0  0  0
   20.6845   23.6139   23.4701 H   0  0  0  0  0  0  0  0  0  0  0  0
   20.6315   22.6089   22.0055 H   0  0  0  0  0  0  0  0  0  0  0  0
   22.4099   21.5336   23.8687 N   0  3  0  0  0  0  0  0  0  0  0  0
   22.7490   22.4192   24.2551 H   0  0  0  0  0  0  0  0  0  0  0  0
   22.7927   21.4446   22.9237 H   0  0  0  0  0  0  0  0  0  0  0  0
   22.8080   20.7800   24.4354 H   0  0  0  0  0  0  0  0  0  0  0  0
  1  2  1  0  0  0  0
  1  3  1  0  0  0  0
  1  4  1  0  0  0  0
  1  5  1  0  0  0  0
  5  6  1  0  0  0  0
  5  7  1  0  0  0  0
  5  8  1  0  0  0  0
  8  9  1  0  0  0  0
  8 10  1  0  0  0  0
  8 11  1  0  0  0  0
 11 12  1  0  0  0  0
 11 13  1  0  0  0  0
 11 14  1  0  0  0  0
 14 15  1  0  0  0  0
 14 16  1  0  0  0  0
 14 17  1  0  0  0  0
 17 18  1  0  0  0  0
 17 19  1  0  0  0  0
 17 20  1  0  0  0  0
 20 21  1  0  0  0  0
 20 22  1  0  0  0  0
 22 23  1  0  0  0  0
 22 24  1  0  0  0  0
 22 25  1  0  0  0  0
 20 26  1  0  0  0  0
 26 27  1  0  0  0  0
 26 28  1  0  0  0  0
 26 29  1  0  0  0  0
M  END
> <VConfSearch Rank>
707

> <Conf_Id>
111

> <Delta U+W>
0.580

> <U+W>
-27.246

> <U>
24.710

> <W>
-51.957

> <W(PB)>
-54.511

> <W(SA)>
2.555

> <Valence>
3.735

> <Coulomb>
19.760

> <VdW>
1.216

> <VdW6>
-8.624

> <VdW12>
9.840

> <Bond>
0.236

> <Angle>
1.168

> <Pdih>
2.330

> <Idih>
0.000

> <Tether>
0.000

$$$$
VeraChem MOL file


 29 28  0  0  0  0  0  0  0  0999 V2000     
   18.5240   20.2386   27.5598 C   0  0  0  0  0  0  0  0  0  0  0  0
   17.9451   21.0977   27.1964 H   0  0  0  0  0  0  0  0  0  0  0  0
   17.9029   19.3393   27.4564 H   0  0  0  0  0  0  0  0  0  0  0  0
   18.7197   20.3920   28.6290 H   0  0  0  0  0  0  0  0  0  0  0  0
   19.8473   20.0916   26.7793 C   0  0  0  0  0  0  0  0  0  0  0  0
   20.4189   19.2457   27.1864 H   0  0  0  0  0  0  0  0  0  0  0  0
   20.4609   20.9909   26.9301 H   0  0  0  0  0  0  0  0  0  0  0  0
   19.6001   19.8752   25.2700 C   0  0  0  0  0  0  0  0  0  0  0  0
   18.9793   18.9800   25.1337 H   0  0  0  0  0  0  0  0  0  0  0  0
   19.0303   20.7240   24.8672 H   0  0  0  0  0  0  0  0  0  0  0  0
   20.9262   19.7236   24.4869 C   0  0  0  0  0  0  0  0  0  0  0  0
   21.4742   18.8443   24.8527 H   0  0  0  0  0  0  0  0  0  0  0  0
   21.5655   20.5931   24.6936 H   0  0  0  0  0  0  0  0  0  0  0  0
   20.7292   19.6126   22.9551 C   0  0  0  0  0  0  0  0  0  0  0  0
   20.2093   20.5102   22.5951 H   0  0  0  0  0  0  0  0  0  0  0  0
   21.7179   19.6121   22.4756 H   0  0  0  0  0  0  0  0  0  0  0  0
   19.9585   18.3381   22.5241 C   0  0  0  0  0  0  0  0  0  0  0  0
   18.9211   18.3868   22.8789 H   0  0  0  0  0  0  0  0  0  0  0  0
   20.4172   17.4691   23.0138 H   0  0  0  0  0  0  0  0  0  0  0  0
   19.9637   18.0994   20.9971 C   0  0  2  0  0  0  0  0  0  0  0  0
   21.0032   18.0890   20.6550 H   0  0  0  0  0  0  0  0  0  0  0  0
   19.2113   19.2056   20.2359 C   0  0  0  0  0  0  0  0  0  0  0  0
   18.1758   19.2951   20.5873 H   0  0  0  0  0  0  0  0  0  0  0  0
   19.7015   20.1782   20.3590 H   0  0  0  0  0  0  0  0  0  0  0  0
   19.1882   18.9877   19.1611 H   0  0  0  0  0  0  0  0  0  0  0  0
   19.3916   16.7515   20.6565 N   0  3  0  0  0  0  0  0  0  0  0  0
   19.9054   15.9959   21.1191 H   0  0  0  0  0  0  0  0  0  0  0  0
   19.4297   16.5730   19.6489 H   0  0  0  0  0  0  0  0  0  0  0  0
   18.4117   16.6778   20.9430 H   0  0  0  0  0  0  0  0  0  0  0  0
  1  2  1  0  0  0  0
  1  3  1  0  0  0  0
  1  4  1  0  0  0  0
  1  5  1  0  0  0  0
  5  6  1  0  0  0  0
  5  7  1  0  0  0  0
  5  8  1  0  0  0  0
  8  9  1  0  0  0  0
  8 10  1  0  0  0  0
  8 11  1  0  0  0  0
 11 12  1  0  0  0  0
 11 13  1  0  0  0  0
 11 14  1  0  0  0  0
 14 15  1  0  0  0  0
 14 16  1  0  0  0  0
 14 17  1  0  0  0  0
 17 18  1  0  0  0  0
 17 19  1  0  0  0  0
 17 20  1  0  0  0  0
 20 21  1  0  0  0  0
 20 22  1  0  0  0  0
 22 23  1  0  0  0  0
 22 24  1  0  0  0  0
 22 25  1  0  0  0  0
 20 26  1  0  0  0  0
 26 27  1  0  0  0  0
 26 28  1  0  0  0  0
 26 29  1  0  0  0  0
M  END
> <VConfSearch Rank>
708

> <Conf_Id>
39

> <Delta U+W>
0.965

> <U+W>
-26.861

> <U>
25.129

> <W>
-51.990

> <W(PB)>
-54.526

> <W(SA)>
2.536

> <Valence>
4.206

> <Coulomb>
19.678

> <VdW>
1.245

> <VdW6>
-8.834

> <VdW12>
10.079

> <Bond>
0.240

> <Angle>
1.353

> <Pdih>
2.613

> <Idih>
0.000

> <Tether>
0.000

$$$$
VeraChem MOL file


 29 28  0  0  0  0  0  0  0  0999 V2000     
   18.1614   23.0242   23.7903 C   0  0  0  0  0  0  0  0  0  0  0  0
   17.1517   22.6447   23.5867 H   0  0  0  0  0  0  0  0  0  0  0  0
   18.4127   22.7929   24.8327 H   0  0  0  0  0  0  0  0  0  0  0  0
   18.1348   24.1173   23.6932 H   0  0  0  0  0  0  0  0  0  0  0  0
   19.1909   22.4197   22.8087 C   0  0  0  0  0  0  0  0  0  0  0  0
   20.1971   22.7868   23.0547 H   0  0  0  0  0  0  0  0  0  0  0  0
   18.9693   22.7858   21.7965 H   0  0  0  0  0  0  0  0  0  0  0  0
   19.1890   20.8719   22.7865 C   0  0  0  0  0  0  0  0  0  0  0  0
   18.1815   20.5102   22.5394 H   0  0  0  0  0  0  0  0  0  0  0  0
   19.8451   20.5448   21.9699 H   0  0  0  0  0  0  0  0  0  0  0  0
   19.6617   20.2356   24.1184 C   0  0  0  0  0  0  0  0  0  0  0  0
   19.0088   20.5709   24.9344 H   0  0  0  0  0  0  0  0  0  0  0  0
   20.6711   20.5938   24.3633 H   0  0  0  0  0  0  0  0  0  0  0  0
   19.6494   18.6870   24.1036 C   0  0  0  0  0  0  0  0  0  0  0  0
   19.8620   18.3356   25.1217 H   0  0  0  0  0  0  0  0  0  0  0  0
   18.6367   18.3389   23.8605 H   0  0  0  0  0  0  0  0  0  0  0  0
   20.6789   18.0698   23.1177 C   0  0  0  0  0  0  0  0  0  0  0  0
   21.6660   18.5140   23.3004 H   0  0  0  0  0  0  0  0  0  0  0  0
   20.4114   18.3363   22.0878 H   0  0  0  0  0  0  0  0  0  0  0  0
   20.8120   16.5306   23.1985 C   0  0  2  0  0  0  0  0  0  0  0  0
   21.5673   16.2308   22.4654 H   0  0  0  0  0  0  0  0  0  0  0  0
   19.4987   15.8176   22.8327 C   0  0  0  0  0  0  0  0  0  0  0  0
   18.7171   15.9994   23.5800 H   0  0  0  0  0  0  0  0  0  0  0  0
   19.1286   16.1584   21.8578 H   0  0  0  0  0  0  0  0  0  0  0  0
   19.6555   14.7338   22.7686 H   0  0  0  0  0  0  0  0  0  0  0  0
   21.3228   16.0667   24.5349 N   0  3  0  0  0  0  0  0  0  0  0  0
   22.2189   16.5047   24.7668 H   0  0  0  0  0  0  0  0  0  0  0  0
   21.4647   15.0526   24.5495 H   0  0  0  0  0  0  0  0  0  0  0  0
   20.6647   16.2953   25.2839 H   0  0  0  0  0  0  0  0  0  0  0  0
  1  2  1  0  0  0  0
  1  3  1  0  0  0  0
  1  4  1  0  0  0  0
  1  5  1  0  0  0  0
  5  6  1  0  0  0  0
  5  7  1  0  0  0  0
  5  8  1  0  0  0  0
  8  9  1  0  0  0  0
  8 10  1  0  0  0  0
  8 11  1  0  0  0  0
 11 12  1  0  0  0  0
 11 13  1  0  0  0  0
 11 14  1  0  0  0  0
 14 15  1  0  0  0  0
 14 16  1  0  0  0  0
 14 17  1  0  0  0  0
 17 18  1  0  0  0  0
 17 19  1  0  0  0  0
 17 20  1  0  0  0  0
 20 21  1  0  0  0  0
 20 22  1  0  0  0  0
 22 23  1  0  0  0  0
 22 24  1  0  0  0  0
 22 25  1  0  0  0  0
 20 26  1  0  0  0  0
 26 27  1  0  0  0  0
 26 28  1  0  0  0  0
 26 29  1  0  0  0  0
M  END
> <VConfSearch Rank>
709

> <Conf_Id>
155

> <Delta U+W>
1.624

> <U+W>
-26.202

> <U>
25.894

> <W>
-52.096

> <W(PB)>
-54.602

> <W(SA)>
2.506

> <Valence>
4.779

> <Coulomb>
19.659

> <VdW>
1.456

> <VdW6>
-9.843

> <VdW12>
11.299

> <Bond>
0.315

> <Angle>
1.725

> <Pdih>
2.740

> <Idih>
0.000

> <Tether>
0.000

$$$$
VeraChem MOL file


 29 28  0  0  0  0  0  0  0  0999 V2000     
   15.9036   18.0770   24.4450 C   0  0  0  0  0  0  0  0  0  0  0  0
   16.2443   17.2674   23.7876 H   0  0  0  0  0  0  0  0  0  0  0  0
   16.3872   17.9532   25.4227 H   0  0  0  0  0  0  0  0  0  0  0  0
   14.8221   17.9540   24.5872 H   0  0  0  0  0  0  0  0  0  0  0  0
   16.2157   19.4656   23.8427 C   0  0  0  0  0  0  0  0  0  0  0  0
   15.7558   20.2380   24.4749 H   0  0  0  0  0  0  0  0  0  0  0  0
   15.7423   19.5548   22.8550 H   0  0  0  0  0  0  0  0  0  0  0  0
   17.7312   19.7562   23.7255 C   0  0  0  0  0  0  0  0  0  0  0  0
   17.8627   20.7927   23.3857 H   0  0  0  0  0  0  0  0  0  0  0  0
   18.1845   19.6953   24.7234 H   0  0  0  0  0  0  0  0  0  0  0  0
   18.4635   18.8041   22.7462 C   0  0  0  0  0  0  0  0  0  0  0  0
   17.9122   18.7781   21.7962 H   0  0  0  0  0  0  0  0  0  0  0  0
   18.4528   17.7786   23.1385 H   0  0  0  0  0  0  0  0  0  0  0  0
   19.9256   19.2215   22.4517 C   0  0  0  0  0  0  0  0  0  0  0  0
   20.3053   18.5725   21.6524 H   0  0  0  0  0  0  0  0  0  0  0  0
   19.9429   20.2456   22.0539 H   0  0  0  0  0  0  0  0  0  0  0  0
   20.8570   19.1242   23.6880 C   0  0  0  0  0  0  0  0  0  0  0  0
   20.8490   18.0980   24.0784 H   0  0  0  0  0  0  0  0  0  0  0  0
   20.4602   19.7643   24.4852 H   0  0  0  0  0  0  0  0  0  0  0  0
   22.3129   19.5620   23.4066 C   0  0  2  0  0  0  0  0  0  0  0  0
   22.2912   20.5620   22.9627 H   0  0  0  0  0  0  0  0  0  0  0  0
   23.0302   18.6104   22.4319 C   0  0  0  0  0  0  0  0  0  0  0  0
   23.0174   17.5782   22.8035 H   0  0  0  0  0  0  0  0  0  0  0  0
   22.5624   18.6254   21.4410 H   0  0  0  0  0  0  0  0  0  0  0  0
   24.0768   18.9108   22.2993 H   0  0  0  0  0  0  0  0  0  0  0  0
   23.0980   19.6826   24.6833 N   0  3  0  0  0  0  0  0  0  0  0  0
   22.6642   20.3461   25.3317 H   0  0  0  0  0  0  0  0  0  0  0  0
   24.0520   20.0098   24.5060 H   0  0  0  0  0  0  0  0  0  0  0  0
   23.1685   18.7823   25.1653 H   0  0  0  0  0  0  0  0  0  0  0  0
  1  2  1  0  0  0  0
  1  3  1  0  0  0  0
  1  4  1  0  0  0  0
  1  5  1  0  0  0  0
  5  6  1  0  0  0  0
  5  7  1  0  0  0  0
  5  8  1  0  0  0  0
  8  9  1  0  0  0  0
  8 10  1  0  0  0  0
  8 11  1  0  0  0  0
 11 12  1  0  0  0  0
 11 13  1  0  0  0  0
 11 14  1  0  0  0  0
 14 15  1  0  0  0  0
 14 16  1  0  0  0  0
 14 17  1  0  0  0  0
 17 18  1  0  0  0  0
 17 19  1  0  0  0  0
 17 20  1  0  0  0  0
 20 21  1  0  0  0  0
 20 22  1  0  0  0  0
 22 23  1  0  0  0  0
 22 24  1  0  0  0  0
 22 25  1  0  0  0  0
 20 26  1  0  0  0  0
 26 27  1  0  0  0  0
 26 28  1  0  0  0  0
 26 29  1  0  0  0  0
M  END
> <VConfSearch Rank>
710

> <Conf_Id>
135

> <Delta U+W>
1.581

> <U+W>
-26.245

> <U>
25.974

> <W>
-52.219

> <W(PB)>
-54.709

> <W(SA)>
2.490

> <Valence>
4.811

> <Coulomb>
19.700

> <VdW>
1.463

> <VdW6>
-9.391

> <VdW12>
10.854

> <Bond>
0.285

> <Angle>
1.671

> <Pdih>
2.855

> <Idih>
0.000

> <Tether>
0.000

$$$$
VeraChem MOL file


 29 28  0  0  0  0  0  0  0  0999 V2000     
   18.6158   15.5204   25.0199 C   0  0  0  0  0  0  0  0  0  0  0  0
   19.5028   15.7312   25.6313 H   0  0  0  0  0  0  0  0  0  0  0  0
   17.7969   16.1616   25.3689 H   0  0  0  0  0  0  0  0  0  0  0  0
   18.3211   14.4791   25.2035 H   0  0  0  0  0  0  0  0  0  0  0  0
   18.9100   15.7428   23.5191 C   0  0  0  0  0  0  0  0  0  0  0  0
   18.0009   15.5511   22.9320 H   0  0  0  0  0  0  0  0  0  0  0  0
   19.6511   15.0014   23.1892 H   0  0  0  0  0  0  0  0  0  0  0  0
   19.4486   17.1588   23.2032 C   0  0  0  0  0  0  0  0  0  0  0  0
   20.3720   17.3266   23.7729 H   0  0  0  0  0  0  0  0  0  0  0  0
   19.7264   17.1979   22.1410 H   0  0  0  0  0  0  0  0  0  0  0  0
   18.4265   18.2846   23.5017 C   0  0  0  0  0  0  0  0  0  0  0  0
   18.2277   18.3364   24.5803 H   0  0  0  0  0  0  0  0  0  0  0  0
   17.4699   18.0370   23.0215 H   0  0  0  0  0  0  0  0  0  0  0  0
   18.8831   19.6766   23.0006 C   0  0  0  0  0  0  0  0  0  0  0  0
   19.0420   19.6321   21.9151 H   0  0  0  0  0  0  0  0  0  0  0  0
   18.0664   20.3926   23.1666 H   0  0  0  0  0  0  0  0  0  0  0  0
   20.1616   20.1946   23.7084 C   0  0  0  0  0  0  0  0  0  0  0  0
   21.0204   19.5648   23.4435 H   0  0  0  0  0  0  0  0  0  0  0  0
   20.0246   20.0978   24.7934 H   0  0  0  0  0  0  0  0  0  0  0  0
   20.4923   21.6695   23.3859 C   0  0  2  0  0  0  0  0  0  0  0  0
   19.6138   22.2778   23.6220 H   0  0  0  0  0  0  0  0  0  0  0  0
   20.8411   21.8730   21.9006 C   0  0  0  0  0  0  0  0  0  0  0  0
   21.6826   21.2364   21.5998 H   0  0  0  0  0  0  0  0  0  0  0  0
   19.9862   21.6407   21.2551 H   0  0  0  0  0  0  0  0  0  0  0  0
   21.1185   22.9168   21.7084 H   0  0  0  0  0  0  0  0  0  0  0  0
   21.6071   22.1787   24.2568 N   0  3  0  0  0  0  0  0  0  0  0  0
   21.8027   23.1671   24.0739 H   0  0  0  0  0  0  0  0  0  0  0  0
   22.4748   21.6605   24.0948 H   0  0  0  0  0  0  0  0  0  0  0  0
   21.3780   22.0927   25.2513 H   0  0  0  0  0  0  0  0  0  0  0  0
  1  2  1  0  0  0  0
  1  3  1  0  0  0  0
  1  4  1  0  0  0  0
  1  5  1  0  0  0  0
  5  6  1  0  0  0  0
  5  7  1  0  0  0  0
  5  8  1  0  0  0  0
  8  9  1  0  0  0  0
  8 10  1  0  0  0  0
  8 11  1  0  0  0  0
 11 12  1  0  0  0  0
 11 13  1  0  0  0  0
 11 14  1  0  0  0  0
 14 15  1  0  0  0  0
 14 16  1  0  0  0  0
 14 17  1  0  0  0  0
 17 18  1  0  0  0  0
 17 19  1  0  0  0  0
 17 20  1  0  0  0  0
 20 21  1  0  0  0  0
 20 22  1  0  0  0  0
 22 23  1  0  0  0  0
 22 24  1  0  0  0  0
 22 25  1  0  0  0  0
 20 26  1  0  0  0  0
 26 27  1  0  0  0  0
 26 28  1  0  0  0  0
 26 29  1  0  0  0  0
M  END
> <VConfSearch Rank>
711

> <Conf_Id>
130

> <Delta U+W>
1.359

> <U+W>
-26.467

> <U>
25.687

> <W>
-52.154

> <W(PB)>
-54.643

> <W(SA)>
2.489

> <Valence>
4.682

> <Coulomb>
19.653

> <VdW>
1.352

> <VdW6>
-9.477

> <VdW12>
10.829

> <Bond>
0.274

> <Angle>
1.550

> <Pdih>
2.858

> <Idih>
0.000

> <Tether>
0.000

$$$$
VeraChem MOL file


 29 28  0  0  0  0  0  0  0  0999 V2000     
   18.6951   16.6061   26.5768 C   0  0  0  0  0  0  0  0  0  0  0  0
   18.4694   15.5708   26.8635 H   0  0  0  0  0  0  0  0  0  0  0  0
   18.9805   17.1515   27.4857 H   0  0  0  0  0  0  0  0  0  0  0  0
   17.7705   17.0484   26.1857 H   0  0  0  0  0  0  0  0  0  0  0  0
   19.8298   16.6414   25.5281 C   0  0  0  0  0  0  0  0  0  0  0  0
   19.5074   16.1184   24.6169 H   0  0  0  0  0  0  0  0  0  0  0  0
   20.6889   16.0779   25.9182 H   0  0  0  0  0  0  0  0  0  0  0  0
   20.2967   18.0735   25.1719 C   0  0  0  0  0  0  0  0  0  0  0  0
   20.6348   18.5847   26.0837 H   0  0  0  0  0  0  0  0  0  0  0  0
   21.1768   17.9938   24.5215 H   0  0  0  0  0  0  0  0  0  0  0  0
   19.2028   18.9219   24.4744 C   0  0  0  0  0  0  0  0  0  0  0  0
   18.3568   19.0504   25.1620 H   0  0  0  0  0  0  0  0  0  0  0  0
   18.8130   18.3787   23.6051 H   0  0  0  0  0  0  0  0  0  0  0  0
   19.6990   20.3309   24.0571 C   0  0  0  0  0  0  0  0  0  0  0  0
   18.8356   20.9782   23.8499 H   0  0  0  0  0  0  0  0  0  0  0  0
   20.2061   20.7878   24.9181 H   0  0  0  0  0  0  0  0  0  0  0  0
   20.6607   20.3476   22.8366 C   0  0  0  0  0  0  0  0  0  0  0  0
   21.2120   19.4030   22.7581 H   0  0  0  0  0  0  0  0  0  0  0  0
   21.4183   21.1210   23.0194 H   0  0  0  0  0  0  0  0  0  0  0  0
   19.9809   20.6712   21.4846 C   0  0  2  0  0  0  0  0  0  0  0  0
   19.4737   21.6361   21.5805 H   0  0  0  0  0  0  0  0  0  0  0  0
   18.9369   19.6178   21.0774 C   0  0  0  0  0  0  0  0  0  0  0  0
   18.0912   19.6122   21.7746 H   0  0  0  0  0  0  0  0  0  0  0  0
   18.5327   19.8382   20.0818 H   0  0  0  0  0  0  0  0  0  0  0  0
   19.3753   18.6124   21.0526 H   0  0  0  0  0  0  0  0  0  0  0  0
   21.0022   20.8383   20.3940 N   0  3  0  0  0  0  0  0  0  0  0  0
   21.6821   21.5693   20.6226 H   0  0  0  0  0  0  0  0  0  0  0  0
   20.5623   21.0983   19.5066 H   0  0  0  0  0  0  0  0  0  0  0  0
   21.5235   19.9720   20.2342 H   0  0  0  0  0  0  0  0  0  0  0  0
  1  2  1  0  0  0  0
  1  3  1  0  0  0  0
  1  4  1  0  0  0  0
  1  5  1  0  0  0  0
  5  6  1  0  0  0  0
  5  7  1  0  0  0  0
  5  8  1  0  0  0  0
  8  9  1  0  0  0  0
  8 10  1  0  0  0  0
  8 11  1  0  0  0  0
 11 12  1  0  0  0  0
 11 13  1  0  0  0  0
 11 14  1  0  0  0  0
 14 15  1  0  0  0  0
 14 16  1  0  0  0  0
 14 17  1  0  0  0  0
 17 18  1  0  0  0  0
 17 19  1  0  0  0  0
 17 20  1  0  0  0  0
 20 21  1  0  0  0  0
 20 22  1  0  0  0  0
 22 23  1  0  0  0  0
 22 24  1  0  0  0  0
 22 25  1  0  0  0  0
 20 26  1  0  0  0  0
 26 27  1  0  0  0  0
 26 28  1  0  0  0  0
 26 29  1  0  0  0  0
M  END
> <VConfSearch Rank>
712

> <Conf_Id>
157

> <Delta U+W>
4.354

> <U+W>
-23.472

> <U>
28.780

> <W>
-52.252

> <W(PB)>
-54.715

> <W(SA)>
2.462

> <Valence>
7.566

> <Coulomb>
19.822

> <VdW>
1.392

> <VdW6>
-10.248

> <VdW12>
11.641

> <Bond>
0.340

> <Angle>
2.096

> <Pdih>
5.129

> <Idih>
0.000

> <Tether>
0.000

$$$$
VeraChem MOL file


 29 28  0  0  0  0  0  0  0  0999 V2000     
   19.3881   22.1451   25.6683 C   0  0  0  0  0  0  0  0  0  0  0  0
   19.4471   23.2411   25.6545 H   0  0  0  0  0  0  0  0  0  0  0  0
   18.7153   21.8384   24.8599 H   0  0  0  0  0  0  0  0  0  0  0  0
   18.9288   21.8485   26.6202 H   0  0  0  0  0  0  0  0  0  0  0  0
   20.7973   21.5257   25.5197 C   0  0  0  0  0  0  0  0  0  0  0  0
   21.4167   21.8908   26.3510 H   0  0  0  0  0  0  0  0  0  0  0  0
   21.2798   21.8888   24.6016 H   0  0  0  0  0  0  0  0  0  0  0  0
   20.7931   19.9756   25.5503 C   0  0  0  0  0  0  0  0  0  0  0  0
   21.6963   19.6422   26.0798 H   0  0  0  0  0  0  0  0  0  0  0  0
   19.9479   19.6096   26.1493 H   0  0  0  0  0  0  0  0  0  0  0  0
   20.7927   19.2954   24.1569 C   0  0  0  0  0  0  0  0  0  0  0  0
   20.8655   18.2116   24.3141 H   0  0  0  0  0  0  0  0  0  0  0  0
   21.6999   19.5866   23.6098 H   0  0  0  0  0  0  0  0  0  0  0  0
   19.5478   19.6145   23.2929 C   0  0  0  0  0  0  0  0  0  0  0  0
   18.6331   19.4064   23.8635 H   0  0  0  0  0  0  0  0  0  0  0  0
   19.5337   20.6882   23.0661 H   0  0  0  0  0  0  0  0  0  0  0  0
   19.5227   18.8464   21.9462 C   0  0  0  0  0  0  0  0  0  0  0  0
   20.4052   19.1338   21.3592 H   0  0  0  0  0  0  0  0  0  0  0  0
   18.6496   19.1736   21.3662 H   0  0  0  0  0  0  0  0  0  0  0  0
   19.4912   17.3079   22.0878 C   0  0  2  0  0  0  0  0  0  0  0  0
   20.3818   16.9929   22.6392 H   0  0  0  0  0  0  0  0  0  0  0  0
   19.5273   16.6429   20.7028 C   0  0  0  0  0  0  0  0  0  0  0  0
   18.6491   16.9198   20.1062 H   0  0  0  0  0  0  0  0  0  0  0  0
   20.4253   16.9444   20.1494 H   0  0  0  0  0  0  0  0  0  0  0  0
   19.5456   15.5502   20.7973 H   0  0  0  0  0  0  0  0  0  0  0  0
   18.3028   16.8285   22.8750 N   0  3  0  0  0  0  0  0  0  0  0  0
   18.2912   17.2366   23.8138 H   0  0  0  0  0  0  0  0  0  0  0  0
   18.3097   15.8101   22.9814 H   0  0  0  0  0  0  0  0  0  0  0  0
   17.4244   17.0837   22.4159 H   0  0  0  0  0  0  0  0  0  0  0  0
  1  2  1  0  0  0  0
  1  3  1  0  0  0  0
  1  4  1  0  0  0  0
  1  5  1  0  0  0  0
  5  6  1  0  0  0  0
  5  7  1  0  0  0  0
  5  8  1  0  0  0  0
  8  9  1  0  0  0  0
  8 10  1  0  0  0  0
  8 11  1  0  0  0  0
 11 12  1  0  0  0  0
 11 13  1  0  0  0  0
 11 14  1  0  0  0  0
 14 15  1  0  0  0  0
 14 16  1  0  0  0  0
 14 17  1  0  0  0  0
 17 18  1  0  0  0  0
 17 19  1  0  0  0  0
 17 20  1  0  0  0  0
 20 21  1  0  0  0  0
 20 22  1  0  0  0  0
 22 23  1  0  0  0  0
 22 24  1  0  0  0  0
 22 25  1  0  0  0  0
 20 26  1  0  0  0  0
 26 27  1  0  0  0  0
 26 28  1  0  0  0  0
 26 29  1  0  0  0  0
M  END
> <VConfSearch Rank>
713

> <Conf_Id>
158

> <Delta U+W>
3.648

> <U+W>
-24.178

> <U>
28.057

> <W>
-52.235

> <W(PB)>
-54.696

> <W(SA)>
2.460

> <Valence>
6.543

> <Coulomb>
20.387

> <VdW>
1.127

> <VdW6>
-10.342

> <VdW12>
11.469

> <Bond>
0.308

> <Angle>
1.938

> <Pdih>
4.297

> <Idih>
0.000

> <Tether>
0.000

$$$$
VeraChem MOL file


 29 28  0  0  0  0  0  0  0  0999 V2000     
   22.9999   17.8440   22.0469 C   0  0  0  0  0  0  0  0  0  0  0  0
   23.5061   18.1730   22.9637 H   0  0  0  0  0  0  0  0  0  0  0  0
   22.1975   17.1502   22.3265 H   0  0  0  0  0  0  0  0  0  0  0  0
   23.7263   17.2824   21.4453 H   0  0  0  0  0  0  0  0  0  0  0  0
   22.4555   19.0507   21.2492 C   0  0  0  0  0  0  0  0  0  0  0  0
   21.9259   18.6941   20.3547 H   0  0  0  0  0  0  0  0  0  0  0  0
   23.3044   19.6471   20.8866 H   0  0  0  0  0  0  0  0  0  0  0  0
   21.5239   19.9669   22.0787 C   0  0  0  0  0  0  0  0  0  0  0  0
   22.0638   20.3349   22.9620 H   0  0  0  0  0  0  0  0  0  0  0  0
   21.2779   20.8520   21.4758 H   0  0  0  0  0  0  0  0  0  0  0  0
   20.2120   19.2752   22.5199 C   0  0  0  0  0  0  0  0  0  0  0  0
   20.4444   18.4221   23.1665 H   0  0  0  0  0  0  0  0  0  0  0  0
   19.6997   18.8693   21.6368 H   0  0  0  0  0  0  0  0  0  0  0  0
   19.2668   20.2574   23.2544 C   0  0  0  0  0  0  0  0  0  0  0  0
   19.7861   20.7325   24.0982 H   0  0  0  0  0  0  0  0  0  0  0  0
   19.0114   21.0699   22.5600 H   0  0  0  0  0  0  0  0  0  0  0  0
   17.9506   19.5965   23.7431 C   0  0  0  0  0  0  0  0  0  0  0  0
   17.6931   18.7416   23.1039 H   0  0  0  0  0  0  0  0  0  0  0  0
   17.1401   20.3251   23.6081 H   0  0  0  0  0  0  0  0  0  0  0  0
   17.9497   19.1710   25.2312 C   0  0  2  0  0  0  0  0  0  0  0  0
   18.1604   20.0569   25.8383 H   0  0  0  0  0  0  0  0  0  0  0  0
   19.0140   18.1076   25.5502 C   0  0  0  0  0  0  0  0  0  0  0  0
   18.9071   17.2302   24.9004 H   0  0  0  0  0  0  0  0  0  0  0  0
   20.0247   18.5134   25.4263 H   0  0  0  0  0  0  0  0  0  0  0  0
   18.9269   17.7731   26.5913 H   0  0  0  0  0  0  0  0  0  0  0  0
   16.5899   18.6862   25.6513 N   0  3  0  0  0  0  0  0  0  0  0  0
   15.8703   19.3976   25.4931 H   0  0  0  0  0  0  0  0  0  0  0  0
   16.5691   18.4481   26.6470 H   0  0  0  0  0  0  0  0  0  0  0  0
   16.3146   17.8488   25.1311 H   0  0  0  0  0  0  0  0  0  0  0  0
  1  2  1  0  0  0  0
  1  3  1  0  0  0  0
  1  4  1  0  0  0  0
  1  5  1  0  0  0  0
  5  6  1  0  0  0  0
  5  7  1  0  0  0  0
  5  8  1  0  0  0  0
  8  9  1  0  0  0  0
  8 10  1  0  0  0  0
  8 11  1  0  0  0  0
 11 12  1  0  0  0  0
 11 13  1  0  0  0  0
 11 14  1  0  0  0  0
 14 15  1  0  0  0  0
 14 16  1  0  0  0  0
 14 17  1  0  0  0  0
 17 18  1  0  0  0  0
 17 19  1  0  0  0  0
 17 20  1  0  0  0  0
 20 21  1  0  0  0  0
 20 22  1  0  0  0  0
 22 23  1  0  0  0  0
 22 24  1  0  0  0  0
 22 25  1  0  0  0  0
 20 26  1  0  0  0  0
 26 27  1  0  0  0  0
 26 28  1  0  0  0  0
 26 29  1  0  0  0  0
M  END
> <VConfSearch Rank>
714

> <Conf_Id>
156

> <Delta U+W>
3.393

> <U+W>
-24.433

> <U>
27.713

> <W>
-52.146

> <W(PB)>
-54.603

> <W(SA)>
2.458

> <Valence>
6.758

> <Coulomb>
19.720

> <VdW>
1.235

> <VdW6>
-9.782

> <VdW12>
11.017

> <Bond>
0.287

> <Angle>
1.880

> <Pdih>
4.591

> <Idih>
0.000

> <Tether>
0.000

$$$$
VeraChem MOL file


 29 28  0  0  0  0  0  0  0  0999 V2000     
   21.5019   19.0102   20.0424 C   0  0  0  0  0  0  0  0  0  0  0  0
   20.7205   19.7023   19.7025 H   0  0  0  0  0  0  0  0  0  0  0  0
   22.4779   19.4491   19.7976 H   0  0  0  0  0  0  0  0  0  0  0  0
   21.3988   18.0784   19.4713 H   0  0  0  0  0  0  0  0  0  0  0  0
   21.3800   18.7374   21.5565 C   0  0  0  0  0  0  0  0  0  0  0  0
   22.1547   18.0202   21.8617 H   0  0  0  0  0  0  0  0  0  0  0  0
   20.4098   18.2635   21.7556 H   0  0  0  0  0  0  0  0  0  0  0  0
   21.5177   20.0376   22.3829 C   0  0  0  0  0  0  0  0  0  0  0  0
   22.4592   20.5344   22.1110 H   0  0  0  0  0  0  0  0  0  0  0  0
   20.7190   20.7389   22.1080 H   0  0  0  0  0  0  0  0  0  0  0  0
   21.5166   19.8036   23.9159 C   0  0  0  0  0  0  0  0  0  0  0  0
   21.6421   20.7716   24.4202 H   0  0  0  0  0  0  0  0  0  0  0  0
   22.4010   19.2094   24.1839 H   0  0  0  0  0  0  0  0  0  0  0  0
   20.2562   19.1007   24.4839 C   0  0  0  0  0  0  0  0  0  0  0  0
   20.1874   18.0835   24.0783 H   0  0  0  0  0  0  0  0  0  0  0  0
   20.3972   18.9863   25.5662 H   0  0  0  0  0  0  0  0  0  0  0  0
   18.9401   19.8786   24.2103 C   0  0  0  0  0  0  0  0  0  0  0  0
   18.7846   19.9674   23.1281 H   0  0  0  0  0  0  0  0  0  0  0  0
   19.0391   20.9047   24.5882 H   0  0  0  0  0  0  0  0  0  0  0  0
   17.6691   19.2426   24.8211 C   0  0  2  0  0  0  0  0  0  0  0  0
   16.8179   19.8560   24.5098 H   0  0  0  0  0  0  0  0  0  0  0  0
   17.7009   19.2419   26.3595 C   0  0  0  0  0  0  0  0  0  0  0  0
   16.7328   18.9198   26.7622 H   0  0  0  0  0  0  0  0  0  0  0  0
   18.4677   18.5628   26.7504 H   0  0  0  0  0  0  0  0  0  0  0  0
   17.9031   20.2486   26.7459 H   0  0  0  0  0  0  0  0  0  0  0  0
   17.4051   17.8618   24.2870 N   0  3  0  0  0  0  0  0  0  0  0  0
   17.3346   17.8617   23.2654 H   0  0  0  0  0  0  0  0  0  0  0  0
   16.5289   17.4801   24.6547 H   0  0  0  0  0  0  0  0  0  0  0  0
   18.1544   17.2151   24.5456 H   0  0  0  0  0  0  0  0  0  0  0  0
  1  2  1  0  0  0  0
  1  3  1  0  0  0  0
  1  4  1  0  0  0  0
  1  5  1  0  0  0  0
  5  6  1  0  0  0  0
  5  7  1  0  0  0  0
  5  8  1  0  0  0  0
  8  9  1  0  0  0  0
  8 10  1  0  0  0  0
  8 11  1  0  0  0  0
 11 12  1  0  0  0  0
 11 13  1  0  0  0  0
 11 14  1  0  0  0  0
 14 15  1  0  0  0  0
 14 16  1  0  0  0  0
 14 17  1  0  0  0  0
 17 18  1  0  0  0  0
 17 19  1  0  0  0  0
 17 20  1  0  0  0  0
 20 21  1  0  0  0  0
 20 22  1  0  0  0  0
 22 23  1  0  0  0  0
 22 24  1  0  0  0  0
 22 25  1  0  0  0  0
 20 26  1  0  0  0  0
 26 27  1  0  0  0  0
 26 28  1  0  0  0  0
 26 29  1  0  0  0  0
M  END
> <VConfSearch Rank>
715

> <Conf_Id>
78

> <Delta U+W>
1.477

> <U+W>
-26.349

> <U>
26.385

> <W>
-52.734

> <W(PB)>
-55.179

> <W(SA)>
2.445

> <Valence>
4.726

> <Coulomb>
20.482

> <VdW>
1.177

> <VdW6>
-10.349

> <VdW12>
11.526

> <Bond>
0.319

> <Angle>
1.933

> <Pdih>
2.474

> <Idih>
0.000

> <Tether>
0.000

$$$$
VeraChem MOL file


 29 28  0  0  0  0  0  0  0  0999 V2000     
   17.7308   22.1444   23.3356 C   0  0  0  0  0  0  0  0  0  0  0  0
   17.4845   22.4729   24.3537 H   0  0  0  0  0  0  0  0  0  0  0  0
   18.8221   22.0910   23.2540 H   0  0  0  0  0  0  0  0  0  0  0  0
   17.3825   22.9206   22.6420 H   0  0  0  0  0  0  0  0  0  0  0  0
   17.0560   20.7903   23.0152 C   0  0  0  0  0  0  0  0  0  0  0  0
   17.2435   20.5073   21.9701 H   0  0  0  0  0  0  0  0  0  0  0  0
   15.9687   20.9253   23.1011 H   0  0  0  0  0  0  0  0  0  0  0  0
   17.4892   19.6477   23.9695 C   0  0  0  0  0  0  0  0  0  0  0  0
   17.7670   20.0566   24.9507 H   0  0  0  0  0  0  0  0  0  0  0  0
   16.6159   19.0067   24.1533 H   0  0  0  0  0  0  0  0  0  0  0  0
   18.6260   18.7421   23.4293 C   0  0  0  0  0  0  0  0  0  0  0  0
   18.2938   18.2541   22.5027 H   0  0  0  0  0  0  0  0  0  0  0  0
   18.7870   17.9377   24.1586 H   0  0  0  0  0  0  0  0  0  0  0  0
   19.9611   19.4825   23.1703 C   0  0  0  0  0  0  0  0  0  0  0  0
   19.8108   20.2291   22.3802 H   0  0  0  0  0  0  0  0  0  0  0  0
   20.2606   20.0397   24.0676 H   0  0  0  0  0  0  0  0  0  0  0  0
   21.1074   18.5408   22.7179 C   0  0  0  0  0  0  0  0  0  0  0  0
   22.0029   19.1434   22.5163 H   0  0  0  0  0  0  0  0  0  0  0  0
   20.8246   18.0866   21.7591 H   0  0  0  0  0  0  0  0  0  0  0  0
   21.4688   17.4128   23.7132 C   0  0  2  0  0  0  0  0  0  0  0  0
   20.5747   16.8086   23.8918 H   0  0  0  0  0  0  0  0  0  0  0  0
   21.9599   17.9661   25.0627 C   0  0  0  0  0  0  0  0  0  0  0  0
   22.2582   17.1484   25.7303 H   0  0  0  0  0  0  0  0  0  0  0  0
   22.8237   18.6291   24.9290 H   0  0  0  0  0  0  0  0  0  0  0  0
   21.1695   18.5291   25.5726 H   0  0  0  0  0  0  0  0  0  0  0  0
   22.4940   16.4825   23.1272 N   0  3  0  0  0  0  0  0  0  0  0  0
   23.3729   16.9698   22.9322 H   0  0  0  0  0  0  0  0  0  0  0  0
   22.1696   16.0694   22.2480 H   0  0  0  0  0  0  0  0  0  0  0  0
   22.7077   15.7111   23.7659 H   0  0  0  0  0  0  0  0  0  0  0  0
  1  2  1  0  0  0  0
  1  3  1  0  0  0  0
  1  4  1  0  0  0  0
  1  5  1  0  0  0  0
  5  6  1  0  0  0  0
  5  7  1  0  0  0  0
  5  8  1  0  0  0  0
  8  9  1  0  0  0  0
  8 10  1  0  0  0  0
  8 11  1  0  0  0  0
 11 12  1  0  0  0  0
 11 13  1  0  0  0  0
 11 14  1  0  0  0  0
 14 15  1  0  0  0  0
 14 16  1  0  0  0  0
 14 17  1  0  0  0  0
 17 18  1  0  0  0  0
 17 19  1  0  0  0  0
 17 20  1  0  0  0  0
 20 21  1  0  0  0  0
 20 22  1  0  0  0  0
 22 23  1  0  0  0  0
 22 24  1  0  0  0  0
 22 25  1  0  0  0  0
 20 26  1  0  0  0  0
 26 27  1  0  0  0  0
 26 28  1  0  0  0  0
 26 29  1  0  0  0  0
M  END
> <VConfSearch Rank>
716

> <Conf_Id>
145

> <Delta U+W>
3.784

> <U+W>
-24.042

> <U>
28.220

> <W>
-52.262

> <W(PB)>
-54.724

> <W(SA)>
2.462

> <Valence>
7.040

> <Coulomb>
19.984

> <VdW>
1.197

> <VdW6>
-10.566

> <VdW12>
11.763

> <Bond>
0.320

> <Angle>
2.280

> <Pdih>
4.439

> <Idih>
0.000

> <Tether>
0.000

$$$$
VeraChem MOL file


 29 28  0  0  0  0  0  0  0  0999 V2000     
   18.1929   21.1104   20.4911 C   0  0  0  0  0  0  0  0  0  0  0  0
   17.2168   20.8732   20.0482 H   0  0  0  0  0  0  0  0  0  0  0  0
   18.0369   21.8511   21.2862 H   0  0  0  0  0  0  0  0  0  0  0  0
   18.8117   21.5763   19.7132 H   0  0  0  0  0  0  0  0  0  0  0  0
   18.8754   19.8409   21.0427 C   0  0  0  0  0  0  0  0  0  0  0  0
   19.8636   20.1064   21.4370 H   0  0  0  0  0  0  0  0  0  0  0  0
   19.0483   19.1357   20.2177 H   0  0  0  0  0  0  0  0  0  0  0  0
   18.0148   19.1595   22.1338 C   0  0  0  0  0  0  0  0  0  0  0  0
   17.7748   19.8724   22.9345 H   0  0  0  0  0  0  0  0  0  0  0  0
   17.0536   18.8768   21.6826 H   0  0  0  0  0  0  0  0  0  0  0  0
   18.6704   17.8867   22.7304 C   0  0  0  0  0  0  0  0  0  0  0  0
   19.3371   17.4191   21.9928 H   0  0  0  0  0  0  0  0  0  0  0  0
   17.8769   17.1503   22.9192 H   0  0  0  0  0  0  0  0  0  0  0  0
   19.4260   18.1101   24.0658 C   0  0  0  0  0  0  0  0  0  0  0  0
   18.7170   18.4755   24.8205 H   0  0  0  0  0  0  0  0  0  0  0  0
   19.7749   17.1316   24.4193 H   0  0  0  0  0  0  0  0  0  0  0  0
   20.6285   19.0856   23.9589 C   0  0  0  0  0  0  0  0  0  0  0  0
   20.2607   20.0837   23.6919 H   0  0  0  0  0  0  0  0  0  0  0  0
   21.2853   18.7680   23.1384 H   0  0  0  0  0  0  0  0  0  0  0  0
   21.4720   19.2240   25.2484 C   0  0  2  0  0  0  0  0  0  0  0  0
   22.2303   19.9900   25.0588 H   0  0  0  0  0  0  0  0  0  0  0  0
   22.2103   17.9213   25.6031 C   0  0  0  0  0  0  0  0  0  0  0  0
   22.9078   18.0906   26.4325 H   0  0  0  0  0  0  0  0  0  0  0  0
   21.5161   17.1293   25.9075 H   0  0  0  0  0  0  0  0  0  0  0  0
   22.7934   17.5580   24.7477 H   0  0  0  0  0  0  0  0  0  0  0  0
   20.6615   19.7192   26.4144 N   0  3  0  0  0  0  0  0  0  0  0  0
   19.9297   19.0505   26.6672 H   0  0  0  0  0  0  0  0  0  0  0  0
   20.2054   20.6112   26.2027 H   0  0  0  0  0  0  0  0  0  0  0  0
   21.2465   19.8628   27.2425 H   0  0  0  0  0  0  0  0  0  0  0  0
  1  2  1  0  0  0  0
  1  3  1  0  0  0  0
  1  4  1  0  0  0  0
  1  5  1  0  0  0  0
  5  6  1  0  0  0  0
  5  7  1  0  0  0  0
  5  8  1  0  0  0  0
  8  9  1  0  0  0  0
  8 10  1  0  0  0  0
  8 11  1  0  0  0  0
 11 12  1  0  0  0  0
 11 13  1  0  0  0  0
 11 14  1  0  0  0  0
 14 15  1  0  0  0  0
 14 16  1  0  0  0  0
 14 17  1  0  0  0  0
 17 18  1  0  0  0  0
 17 19  1  0  0  0  0
 17 20  1  0  0  0  0
 20 21  1  0  0  0  0
 20 22  1  0  0  0  0
 22 23  1  0  0  0  0
 22 24  1  0  0  0  0
 22 25  1  0  0  0  0
 20 26  1  0  0  0  0
 26 27  1  0  0  0  0
 26 28  1  0  0  0  0
 26 29  1  0  0  0  0
M  END
> <VConfSearch Rank>
717

> <Conf_Id>
71

> <Delta U+W>
3.542

> <U+W>
-24.284

> <U>
28.217

> <W>
-52.501

> <W(PB)>
-54.947

> <W(SA)>
2.446

> <Valence>
6.821

> <Coulomb>
20.147

> <VdW>
1.249

> <VdW6>
-10.237

> <VdW12>
11.486

> <Bond>
0.317

> <Angle>
1.990

> <Pdih>
4.515

> <Idih>
0.000

> <Tether>
0.000

$$$$
VeraChem MOL file


 29 28  0  0  0  0  0  0  0  0999 V2000     
   19.7042   15.1970   23.1079 C   0  0  0  0  0  0  0  0  0  0  0  0
   20.1949   15.4508   22.1592 H   0  0  0  0  0  0  0  0  0  0  0  0
   20.3498   14.4931   23.6493 H   0  0  0  0  0  0  0  0  0  0  0  0
   18.7643   14.6805   22.8737 H   0  0  0  0  0  0  0  0  0  0  0  0
   19.4356   16.4629   23.9487 C   0  0  0  0  0  0  0  0  0  0  0  0
   18.9145   16.1791   24.8736 H   0  0  0  0  0  0  0  0  0  0  0  0
   18.7544   17.1220   23.3973 H   0  0  0  0  0  0  0  0  0  0  0  0
   20.7489   17.2024   24.3007 C   0  0  0  0  0  0  0  0  0  0  0  0
   21.3828   16.5148   24.8777 H   0  0  0  0  0  0  0  0  0  0  0  0
   21.3124   17.4390   23.3877 H   0  0  0  0  0  0  0  0  0  0  0  0
   20.5290   18.4877   25.1405 C   0  0  0  0  0  0  0  0  0  0  0  0
   21.3583   18.5736   25.8562 H   0  0  0  0  0  0  0  0  0  0  0  0
   19.6206   18.3941   25.7515 H   0  0  0  0  0  0  0  0  0  0  0  0
   20.4865   19.8011   24.3176 C   0  0  0  0  0  0  0  0  0  0  0  0
   20.4113   20.6393   25.0224 H   0  0  0  0  0  0  0  0  0  0  0  0
   21.4444   19.9239   23.7948 H   0  0  0  0  0  0  0  0  0  0  0  0
   19.3185   19.8740   23.2985 C   0  0  0  0  0  0  0  0  0  0  0  0
   18.3794   19.6136   23.8038 H   0  0  0  0  0  0  0  0  0  0  0  0
   19.4700   19.1188   22.5173 H   0  0  0  0  0  0  0  0  0  0  0  0
   19.1413   21.2482   22.6109 C   0  0  2  0  0  0  0  0  0  0  0  0
   18.2925   21.1617   21.9255 H   0  0  0  0  0  0  0  0  0  0  0  0
   20.3743   21.6407   21.7785 C   0  0  0  0  0  0  0  0  0  0  0  0
   20.6349   20.8454   21.0692 H   0  0  0  0  0  0  0  0  0  0  0  0
   20.1727   22.5501   21.1994 H   0  0  0  0  0  0  0  0  0  0  0  0
   21.2468   21.8344   22.4139 H   0  0  0  0  0  0  0  0  0  0  0  0
   18.7798   22.3362   23.5844 N   0  3  0  0  0  0  0  0  0  0  0  0
   17.9346   22.1015   24.1128 H   0  0  0  0  0  0  0  0  0  0  0  0
   18.6047   23.2239   23.1050 H   0  0  0  0  0  0  0  0  0  0  0  0
   19.5315   22.4951   24.2598 H   0  0  0  0  0  0  0  0  0  0  0  0
  1  2  1  0  0  0  0
  1  3  1  0  0  0  0
  1  4  1  0  0  0  0
  1  5  1  0  0  0  0
  5  6  1  0  0  0  0
  5  7  1  0  0  0  0
  5  8  1  0  0  0  0
  8  9  1  0  0  0  0
  8 10  1  0  0  0  0
  8 11  1  0  0  0  0
 11 12  1  0  0  0  0
 11 13  1  0  0  0  0
 11 14  1  0  0  0  0
 14 15  1  0  0  0  0
 14 16  1  0  0  0  0
 14 17  1  0  0  0  0
 17 18  1  0  0  0  0
 17 19  1  0  0  0  0
 17 20  1  0  0  0  0
 20 21  1  0  0  0  0
 20 22  1  0  0  0  0
 22 23  1  0  0  0  0
 22 24  1  0  0  0  0
 22 25  1  0  0  0  0
 20 26  1  0  0  0  0
 26 27  1  0  0  0  0
 26 28  1  0  0  0  0
 26 29  1  0  0  0  0
M  END
> <VConfSearch Rank>
718

> <Conf_Id>
163

> <Delta U+W>
3.309

> <U+W>
-24.517

> <U>
27.916

> <W>
-52.433

> <W(PB)>
-54.866

> <W(SA)>
2.433

> <Valence>
6.693

> <Coulomb>
20.015

> <VdW>
1.208

> <VdW6>
-10.294

> <VdW12>
11.503

> <Bond>
0.312

> <Angle>
1.939

> <Pdih>
4.441

> <Idih>
0.000

> <Tether>
0.000

$$$$
VeraChem MOL file


 29 28  0  0  0  0  0  0  0  0999 V2000     
   19.1030   20.0142   19.6903 C   0  0  0  0  0  0  0  0  0  0  0  0
   18.4417   19.2005   19.3653 H   0  0  0  0  0  0  0  0  0  0  0  0
   18.4934   20.7710   20.1990 H   0  0  0  0  0  0  0  0  0  0  0  0
   19.5260   20.4819   18.7919 H   0  0  0  0  0  0  0  0  0  0  0  0
   20.2303   19.4827   20.6043 C   0  0  0  0  0  0  0  0  0  0  0  0
   20.8565   20.3193   20.9444 H   0  0  0  0  0  0  0  0  0  0  0  0
   20.8858   18.8295   20.0115 H   0  0  0  0  0  0  0  0  0  0  0  0
   19.7117   18.6862   21.8259 C   0  0  0  0  0  0  0  0  0  0  0  0
   19.0897   17.8488   21.4810 H   0  0  0  0  0  0  0  0  0  0  0  0
   20.5782   18.2416   22.3320 H   0  0  0  0  0  0  0  0  0  0  0  0
   18.9120   19.5521   22.8320 C   0  0  0  0  0  0  0  0  0  0  0  0
   18.0468   19.9964   22.3234 H   0  0  0  0  0  0  0  0  0  0  0  0
   19.5311   20.3941   23.1682 H   0  0  0  0  0  0  0  0  0  0  0  0
   18.3863   18.7547   24.0540 C   0  0  0  0  0  0  0  0  0  0  0  0
   17.7855   19.4257   24.6825 H   0  0  0  0  0  0  0  0  0  0  0  0
   17.6919   17.9791   23.7026 H   0  0  0  0  0  0  0  0  0  0  0  0
   19.4836   18.0842   24.9233 C   0  0  0  0  0  0  0  0  0  0  0  0
   19.9508   17.2721   24.3517 H   0  0  0  0  0  0  0  0  0  0  0  0
   19.0081   17.6047   25.7892 H   0  0  0  0  0  0  0  0  0  0  0  0
   20.5799   19.0547   25.4153 C   0  0  2  0  0  0  0  0  0  0  0  0
   21.0446   19.5203   24.5411 H   0  0  0  0  0  0  0  0  0  0  0  0
   21.6669   18.2894   26.1860 C   0  0  0  0  0  0  0  0  0  0  0  0
   22.4671   18.9683   26.5056 H   0  0  0  0  0  0  0  0  0  0  0  0
   21.2535   17.8038   27.0789 H   0  0  0  0  0  0  0  0  0  0  0  0
   22.1199   17.5149   25.5545 H   0  0  0  0  0  0  0  0  0  0  0  0
   20.0197   20.1699   26.2547 N   0  3  0  0  0  0  0  0  0  0  0  0
   19.3157   20.7045   25.7386 H   0  0  0  0  0  0  0  0  0  0  0  0
   20.7516   20.8239   26.5466 H   0  0  0  0  0  0  0  0  0  0  0  0
   19.5735   19.8097   27.1024 H   0  0  0  0  0  0  0  0  0  0  0  0
  1  2  1  0  0  0  0
  1  3  1  0  0  0  0
  1  4  1  0  0  0  0
  1  5  1  0  0  0  0
  5  6  1  0  0  0  0
  5  7  1  0  0  0  0
  5  8  1  0  0  0  0
  8  9  1  0  0  0  0
  8 10  1  0  0  0  0
  8 11  1  0  0  0  0
 11 12  1  0  0  0  0
 11 13  1  0  0  0  0
 11 14  1  0  0  0  0
 14 15  1  0  0  0  0
 14 16  1  0  0  0  0
 14 17  1  0  0  0  0
 17 18  1  0  0  0  0
 17 19  1  0  0  0  0
 17 20  1  0  0  0  0
 20 21  1  0  0  0  0
 20 22  1  0  0  0  0
 22 23  1  0  0  0  0
 22 24  1  0  0  0  0
 22 25  1  0  0  0  0
 20 26  1  0  0  0  0
 26 27  1  0  0  0  0
 26 28  1  0  0  0  0
 26 29  1  0  0  0  0
M  END
> <VConfSearch Rank>
719

> <Conf_Id>
173

> <Delta U+W>
1.363

> <U+W>
-26.462

> <U>
25.816

> <W>
-52.279

> <W(PB)>
-54.727

> <W(SA)>
2.449

> <Valence>
4.504

> <Coulomb>
20.342

> <VdW>
0.971

> <VdW6>
-10.532

> <VdW12>
11.503

> <Bond>
0.307

> <Angle>
1.715

> <Pdih>
2.481

> <Idih>
0.000

> <Tether>
0.000

$$$$
VeraChem MOL file


 29 28  0  0  0  0  0  0  0  0999 V2000     
   21.1880   21.9618   21.3782 C   0  0  0  0  0  0  0  0  0  0  0  0
   21.8639   21.3876   20.7311 H   0  0  0  0  0  0  0  0  0  0  0  0
   20.5704   22.6076   20.7405 H   0  0  0  0  0  0  0  0  0  0  0  0
   21.8022   22.6087   22.0179 H   0  0  0  0  0  0  0  0  0  0  0  0
   20.3107   21.0240   22.2342 C   0  0  0  0  0  0  0  0  0  0  0  0
   19.6653   21.6257   22.8890 H   0  0  0  0  0  0  0  0  0  0  0  0
   20.9629   20.4239   22.8824 H   0  0  0  0  0  0  0  0  0  0  0  0
   19.4434   20.0946   21.3548 C   0  0  0  0  0  0  0  0  0  0  0  0
   18.8866   20.7057   20.6310 H   0  0  0  0  0  0  0  0  0  0  0  0
   20.0970   19.4397   20.7623 H   0  0  0  0  0  0  0  0  0  0  0  0
   18.4270   19.2294   22.1441 C   0  0  0  0  0  0  0  0  0  0  0  0
   17.8496   18.6482   21.4118 H   0  0  0  0  0  0  0  0  0  0  0  0
   17.6963   19.8740   22.6515 H   0  0  0  0  0  0  0  0  0  0  0  0
   19.0657   18.2389   23.1523 C   0  0  0  0  0  0  0  0  0  0  0  0
   18.4739   17.3140   23.1443 H   0  0  0  0  0  0  0  0  0  0  0  0
   20.0700   17.9612   22.8074 H   0  0  0  0  0  0  0  0  0  0  0  0
   19.1054   18.7883   24.6055 C   0  0  0  0  0  0  0  0  0  0  0  0
   18.0795   19.0031   24.9322 H   0  0  0  0  0  0  0  0  0  0  0  0
   19.6319   19.7487   24.6350 H   0  0  0  0  0  0  0  0  0  0  0  0
   19.7563   17.8413   25.6409 C   0  0  2  0  0  0  0  0  0  0  0  0
   19.6617   18.3181   26.6215 H   0  0  0  0  0  0  0  0  0  0  0  0
   21.2565   17.6333   25.3693 C   0  0  0  0  0  0  0  0  0  0  0  0
   21.7753   18.5964   25.2876 H   0  0  0  0  0  0  0  0  0  0  0  0
   21.7206   17.0747   26.1913 H   0  0  0  0  0  0  0  0  0  0  0  0
   21.4282   17.0707   24.4442 H   0  0  0  0  0  0  0  0  0  0  0  0
   19.0393   16.5237   25.7475 N   0  3  0  0  0  0  0  0  0  0  0  0
   18.0487   16.6525   25.9728 H   0  0  0  0  0  0  0  0  0  0  0  0
   19.4460   15.9346   26.4798 H   0  0  0  0  0  0  0  0  0  0  0  0
   19.0908   16.0016   24.8692 H   0  0  0  0  0  0  0  0  0  0  0  0
  1  2  1  0  0  0  0
  1  3  1  0  0  0  0
  1  4  1  0  0  0  0
  1  5  1  0  0  0  0
  5  6  1  0  0  0  0
  5  7  1  0  0  0  0
  5  8  1  0  0  0  0
  8  9  1  0  0  0  0
  8 10  1  0  0  0  0
  8 11  1  0  0  0  0
 11 12  1  0  0  0  0
 11 13  1  0  0  0  0
 11 14  1  0  0  0  0
 14 15  1  0  0  0  0
 14 16  1  0  0  0  0
 14 17  1  0  0  0  0
 17 18  1  0  0  0  0
 17 19  1  0  0  0  0
 17 20  1  0  0  0  0
 20 21  1  0  0  0  0
 20 22  1  0  0  0  0
 22 23  1  0  0  0  0
 22 24  1  0  0  0  0
 22 25  1  0  0  0  0
 20 26  1  0  0  0  0
 26 27  1  0  0  0  0
 26 28  1  0  0  0  0
 26 29  1  0  0  0  0
M  END
> <VConfSearch Rank>
720

> <Conf_Id>
117

> <Delta U+W>
3.377

> <U+W>
-24.449

> <U>
27.947

> <W>
-52.396

> <W(PB)>
-54.842

> <W(SA)>
2.447

> <Valence>
6.731

> <Coulomb>
20.067

> <VdW>
1.149

> <VdW6>
-10.427

> <VdW12>
11.575

> <Bond>
0.324

> <Angle>
1.943

> <Pdih>
4.465

> <Idih>
0.000

> <Tether>
0.000

$$$$
VeraChem MOL file


 29 28  0  0  0  0  0  0  0  0999 V2000     
   18.9962   16.6384   27.5818 C   0  0  0  0  0  0  0  0  0  0  0  0
   19.4150   15.7143   27.1625 H   0  0  0  0  0  0  0  0  0  0  0  0
   19.7850   17.1417   28.1560 H   0  0  0  0  0  0  0  0  0  0  0  0
   18.1966   16.3595   28.2804 H   0  0  0  0  0  0  0  0  0  0  0  0
   18.4504   17.5557   26.4672 C   0  0  0  0  0  0  0  0  0  0  0  0
   18.0083   18.4549   26.9188 H   0  0  0  0  0  0  0  0  0  0  0  0
   17.6411   17.0385   25.9329 H   0  0  0  0  0  0  0  0  0  0  0  0
   19.5567   17.9635   25.4693 C   0  0  0  0  0  0  0  0  0  0  0  0
   20.3643   18.4780   26.0081 H   0  0  0  0  0  0  0  0  0  0  0  0
   19.9971   17.0615   25.0223 H   0  0  0  0  0  0  0  0  0  0  0  0
   19.0139   18.8823   24.3516 C   0  0  0  0  0  0  0  0  0  0  0  0
   18.5726   19.7831   24.8001 H   0  0  0  0  0  0  0  0  0  0  0  0
   18.2065   18.3669   23.8130 H   0  0  0  0  0  0  0  0  0  0  0  0
   20.1211   19.2906   23.3539 C   0  0  0  0  0  0  0  0  0  0  0  0
   20.9265   19.8090   23.8927 H   0  0  0  0  0  0  0  0  0  0  0  0
   20.5613   18.3853   22.9150 H   0  0  0  0  0  0  0  0  0  0  0  0
   19.5744   20.2098   22.2347 C   0  0  0  0  0  0  0  0  0  0  0  0
   19.0909   21.0813   22.6959 H   0  0  0  0  0  0  0  0  0  0  0  0
   18.7954   19.6824   21.6681 H   0  0  0  0  0  0  0  0  0  0  0  0
   20.6740   20.7037   21.2698 C   0  0  2  0  0  0  0  0  0  0  0  0
   21.4487   21.2035   21.8595 H   0  0  0  0  0  0  0  0  0  0  0  0
   20.0939   21.7207   20.2741 C   0  0  0  0  0  0  0  0  0  0  0  0
   20.8778   22.1032   19.6087 H   0  0  0  0  0  0  0  0  0  0  0  0
   19.3106   21.2668   19.6541 H   0  0  0  0  0  0  0  0  0  0  0  0
   19.6581   22.5781   20.8019 H   0  0  0  0  0  0  0  0  0  0  0  0
   21.3474   19.5749   20.5381 N   0  3  0  0  0  0  0  0  0  0  0  0
   21.7774   18.9118   21.1885 H   0  0  0  0  0  0  0  0  0  0  0  0
   22.0862   19.9190   19.9181 H   0  0  0  0  0  0  0  0  0  0  0  0
   20.6810   19.0542   19.9616 H   0  0  0  0  0  0  0  0  0  0  0  0
  1  2  1  0  0  0  0
  1  3  1  0  0  0  0
  1  4  1  0  0  0  0
  1  5  1  0  0  0  0
  5  6  1  0  0  0  0
  5  7  1  0  0  0  0
  5  8  1  0  0  0  0
  8  9  1  0  0  0  0
  8 10  1  0  0  0  0
  8 11  1  0  0  0  0
 11 12  1  0  0  0  0
 11 13  1  0  0  0  0
 11 14  1  0  0  0  0
 14 15  1  0  0  0  0
 14 16  1  0  0  0  0
 14 17  1  0  0  0  0
 17 18  1  0  0  0  0
 17 19  1  0  0  0  0
 17 20  1  0  0  0  0
 20 21  1  0  0  0  0
 20 22  1  0  0  0  0
 22 23  1  0  0  0  0
 22 24  1  0  0  0  0
 22 25  1  0  0  0  0
 20 26  1  0  0  0  0
 26 27  1  0  0  0  0
 26 28  1  0  0  0  0
 26 29  1  0  0  0  0
M  END
> <VConfSearch Rank>
721

> <Conf_Id>
164

> <Delta U+W>
0.000

> <U+W>
-27.826

> <U>
23.963

> <W>
-51.789

> <W(PB)>
-54.342

> <W(SA)>
2.554

> <Valence>
3.166

> <Coulomb>
19.734

> <VdW>
1.062

> <VdW6>
-7.938

> <VdW12>
9.001

> <Bond>
0.188

> <Angle>
0.880

> <Pdih>
2.098

> <Idih>
0.000

> <Tether>
0.000

$$$$
VeraChem MOL file


 29 28  0  0  0  0  0  0  0  0999 V2000     
   16.2306   21.4856   25.7269 C   0  0  0  0  0  0  0  0  0  0  0  0
   16.5782   21.2560   26.7426 H   0  0  0  0  0  0  0  0  0  0  0  0
   16.6270   22.4695   25.4440 H   0  0  0  0  0  0  0  0  0  0  0  0
   15.1356   21.5582   25.7536 H   0  0  0  0  0  0  0  0  0  0  0  0
   16.6804   20.3985   24.7279 C   0  0  0  0  0  0  0  0  0  0  0  0
   16.2900   20.6376   23.7287 H   0  0  0  0  0  0  0  0  0  0  0  0
   16.2414   19.4334   25.0173 H   0  0  0  0  0  0  0  0  0  0  0  0
   18.2190   20.2755   24.6709 C   0  0  0  0  0  0  0  0  0  0  0  0
   18.6532   21.2432   24.3837 H   0  0  0  0  0  0  0  0  0  0  0  0
   18.6048   20.0387   25.6722 H   0  0  0  0  0  0  0  0  0  0  0  0
   18.6733   19.1879   23.6715 C   0  0  0  0  0  0  0  0  0  0  0  0
   18.2874   19.4255   22.6705 H   0  0  0  0  0  0  0  0  0  0  0  0
   18.2371   18.2212   23.9594 H   0  0  0  0  0  0  0  0  0  0  0  0
   20.2128   19.0649   23.6153 C   0  0  0  0  0  0  0  0  0  0  0  0
   20.6385   20.0374   23.3355 H   0  0  0  0  0  0  0  0  0  0  0  0
   20.5980   18.8222   24.6154 H   0  0  0  0  0  0  0  0  0  0  0  0
   20.6653   17.9777   22.6097 C   0  0  0  0  0  0  0  0  0  0  0  0
   20.3382   18.2502   21.5975 H   0  0  0  0  0  0  0  0  0  0  0  0
   20.1557   17.0376   22.8589 H   0  0  0  0  0  0  0  0  0  0  0  0
   22.1899   17.7224   22.6124 C   0  0  2  0  0  0  0  0  0  0  0  0
   22.4979   17.4944   23.6375 H   0  0  0  0  0  0  0  0  0  0  0  0
   22.9846   18.9475   22.1256 C   0  0  0  0  0  0  0  0  0  0  0  0
   22.6648   19.2548   21.1222 H   0  0  0  0  0  0  0  0  0  0  0  0
   22.8587   19.7998   22.8031 H   0  0  0  0  0  0  0  0  0  0  0  0
   24.0573   18.7211   22.0862 H   0  0  0  0  0  0  0  0  0  0  0  0
   22.5384   16.5154   21.7866 N   0  3  0  0  0  0  0  0  0  0  0  0
   23.5430   16.3187   21.8173 H   0  0  0  0  0  0  0  0  0  0  0  0
   22.2830   16.6478   20.8043 H   0  0  0  0  0  0  0  0  0  0  0  0
   22.0538   15.6772   22.1204 H   0  0  0  0  0  0  0  0  0  0  0  0
  1  2  1  0  0  0  0
  1  3  1  0  0  0  0
  1  4  1  0  0  0  0
  1  5  1  0  0  0  0
  5  6  1  0  0  0  0
  5  7  1  0  0  0  0
  5  8  1  0  0  0  0
  8  9  1  0  0  0  0
  8 10  1  0  0  0  0
  8 11  1  0  0  0  0
 11 12  1  0  0  0  0
 11 13  1  0  0  0  0
 11 14  1  0  0  0  0
 14 15  1  0  0  0  0
 14 16  1  0  0  0  0
 14 17  1  0  0  0  0
 17 18  1  0  0  0  0
 17 19  1  0  0  0  0
 17 20  1  0  0  0  0
 20 21  1  0  0  0  0
 20 22  1  0  0  0  0
 22 23  1  0  0  0  0
 22 24  1  0  0  0  0
 22 25  1  0  0  0  0
 20 26  1  0  0  0  0
 26 27  1  0  0  0  0
 26 28  1  0  0  0  0
 26 29  1  0  0  0  0
M  END
> <VConfSearch Rank>
722

> <Conf_Id>
58

> <Delta U+W>
0.412

> <U+W>
-27.414

> <U>
24.279

> <W>
-51.694

> <W(PB)>
-54.271

> <W(SA)>
2.577

> <Valence>
3.709

> <Coulomb>
19.380

> <VdW>
1.191

> <VdW6>
-8.093

> <VdW12>
9.284

> <Bond>
0.200

> <Angle>
1.161

> <Pdih>
2.348

> <Idih>
0.000

> <Tether>
0.000

$$$$
VeraChem MOL file


 29 28  0  0  0  0  0  0  0  0999 V2000     
   15.0305   19.1061   23.4510 C   0  0  0  0  0  0  0  0  0  0  0  0
   14.9701   18.7923   24.5013 H   0  0  0  0  0  0  0  0  0  0  0  0
   14.9822   20.2024   23.4182 H   0  0  0  0  0  0  0  0  0  0  0  0
   14.1469   18.7141   22.9307 H   0  0  0  0  0  0  0  0  0  0  0  0
   16.3259   18.5881   22.7910 C   0  0  0  0  0  0  0  0  0  0  0  0
   16.3418   18.8883   21.7339 H   0  0  0  0  0  0  0  0  0  0  0  0
   16.3298   17.4892   22.8087 H   0  0  0  0  0  0  0  0  0  0  0  0
   17.5858   19.1256   23.5049 C   0  0  0  0  0  0  0  0  0  0  0  0
   17.5763   20.2242   23.4865 H   0  0  0  0  0  0  0  0  0  0  0  0
   17.5641   18.8251   24.5616 H   0  0  0  0  0  0  0  0  0  0  0  0
   18.8850   18.6087   22.8470 C   0  0  0  0  0  0  0  0  0  0  0  0
   18.9052   18.9092   21.7902 H   0  0  0  0  0  0  0  0  0  0  0  0
   18.8932   17.5100   22.8655 H   0  0  0  0  0  0  0  0  0  0  0  0
   20.1454   19.1465   23.5614 C   0  0  0  0  0  0  0  0  0  0  0  0
   20.1303   20.2441   23.5407 H   0  0  0  0  0  0  0  0  0  0  0  0
   20.1136   18.8453   24.6168 H   0  0  0  0  0  0  0  0  0  0  0  0
   21.4457   18.6215   22.8987 C   0  0  0  0  0  0  0  0  0  0  0  0
   21.4399   18.8871   21.8334 H   0  0  0  0  0  0  0  0  0  0  0  0
   21.4545   17.5241   22.9362 H   0  0  0  0  0  0  0  0  0  0  0  0
   22.7567   19.1506   23.5267 C   0  0  2  0  0  0  0  0  0  0  0  0
   23.5863   18.7301   22.9497 H   0  0  0  0  0  0  0  0  0  0  0  0
   22.9259   18.6924   24.9857 C   0  0  0  0  0  0  0  0  0  0  0  0
   23.9204   18.9645   25.3600 H   0  0  0  0  0  0  0  0  0  0  0  0
   22.1822   19.1552   25.6452 H   0  0  0  0  0  0  0  0  0  0  0  0
   22.8269   17.6028   25.0662 H   0  0  0  0  0  0  0  0  0  0  0  0
   22.8854   20.6446   23.4131 N   0  3  0  0  0  0  0  0  0  0  0  0
   22.8184   20.9542   22.4392 H   0  0  0  0  0  0  0  0  0  0  0  0
   23.7850   20.9714   23.7771 H   0  0  0  0  0  0  0  0  0  0  0  0
   22.1494   21.1216   23.9398 H   0  0  0  0  0  0  0  0  0  0  0  0
  1  2  1  0  0  0  0
  1  3  1  0  0  0  0
  1  4  1  0  0  0  0
  1  5  1  0  0  0  0
  5  6  1  0  0  0  0
  5  7  1  0  0  0  0
  5  8  1  0  0  0  0
  8  9  1  0  0  0  0
  8 10  1  0  0  0  0
  8 11  1  0  0  0  0
 11 12  1  0  0  0  0
 11 13  1  0  0  0  0
 11 14  1  0  0  0  0
 14 15  1  0  0  0  0
 14 16  1  0  0  0  0
 14 17  1  0  0  0  0
 17 18  1  0  0  0  0
 17 19  1  0  0  0  0
 17 20  1  0  0  0  0
 20 21  1  0  0  0  0
 20 22  1  0  0  0  0
 22 23  1  0  0  0  0
 22 24  1  0  0  0  0
 22 25  1  0  0  0  0
 20 26  1  0  0  0  0
 26 27  1  0  0  0  0
 26 28  1  0  0  0  0
 26 29  1  0  0  0  0
M  END
> <VConfSearch Rank>
723

> <Conf_Id>
137

> <Delta U+W>
0.280

> <U+W>
-27.546

> <U>
24.513

> <W>
-52.059

> <W(PB)>
-54.556

> <W(SA)>
2.497

> <Valence>
3.677

> <Coulomb>
19.662

> <VdW>
1.174

> <VdW6>
-8.569

> <VdW12>
9.743

> <Bond>
0.224

> <Angle>
1.211

> <Pdih>
2.243

> <Idih>
0.000

> <Tether>
0.000

$$$$
VeraChem MOL file


 29 28  0  0  0  0  0  0  0  0999 V2000     
   17.2487   21.7054   20.8570 C   0  0  0  0  0  0  0  0  0  0  0  0
   18.0539   21.4897   20.1426 H   0  0  0  0  0  0  0  0  0  0  0  0
   16.4641   20.9487   20.7268 H   0  0  0  0  0  0  0  0  0  0  0  0
   16.8209   22.6826   20.5977 H   0  0  0  0  0  0  0  0  0  0  0  0
   17.7794   21.7103   22.3063 C   0  0  0  0  0  0  0  0  0  0  0  0
   16.9597   21.9630   22.9933 H   0  0  0  0  0  0  0  0  0  0  0  0
   18.5381   22.4981   22.4142 H   0  0  0  0  0  0  0  0  0  0  0  0
   18.3867   20.3449   22.6976 C   0  0  0  0  0  0  0  0  0  0  0  0
   17.6240   19.5614   22.5904 H   0  0  0  0  0  0  0  0  0  0  0  0
   19.1962   20.1013   21.9975 H   0  0  0  0  0  0  0  0  0  0  0  0
   18.9230   20.3507   24.1495 C   0  0  0  0  0  0  0  0  0  0  0  0
   18.1200   20.6804   24.8232 H   0  0  0  0  0  0  0  0  0  0  0  0
   19.7285   21.0919   24.2451 H   0  0  0  0  0  0  0  0  0  0  0  0
   19.4285   18.9690   24.6334 C   0  0  0  0  0  0  0  0  0  0  0  0
   19.6414   19.0475   25.7072 H   0  0  0  0  0  0  0  0  0  0  0  0
   18.6249   18.2268   24.5302 H   0  0  0  0  0  0  0  0  0  0  0  0
   20.6957   18.4762   23.8871 C   0  0  0  0  0  0  0  0  0  0  0  0
   21.5021   19.2130   23.9991 H   0  0  0  0  0  0  0  0  0  0  0  0
   20.4772   18.4137   22.8143 H   0  0  0  0  0  0  0  0  0  0  0  0
   21.1920   17.0879   24.3528 C   0  0  2  0  0  0  0  0  0  0  0  0
   20.3553   16.3853   24.2900 H   0  0  0  0  0  0  0  0  0  0  0  0
   21.7048   17.1082   25.8041 C   0  0  0  0  0  0  0  0  0  0  0  0
   22.5022   17.8507   25.9330 H   0  0  0  0  0  0  0  0  0  0  0  0
   20.8996   17.3417   26.5099 H   0  0  0  0  0  0  0  0  0  0  0  0
   22.1059   16.1267   26.0854 H   0  0  0  0  0  0  0  0  0  0  0  0
   22.2589   16.5588   23.4349 N   0  3  0  0  0  0  0  0  0  0  0  0
   21.9265   16.4929   22.4684 H   0  0  0  0  0  0  0  0  0  0  0  0
   22.5636   15.6225   23.7164 H   0  0  0  0  0  0  0  0  0  0  0  0
   23.0858   17.1622   23.4357 H   0  0  0  0  0  0  0  0  0  0  0  0
  1  2  1  0  0  0  0
  1  3  1  0  0  0  0
  1  4  1  0  0  0  0
  1  5  1  0  0  0  0
  5  6  1  0  0  0  0
  5  7  1  0  0  0  0
  5  8  1  0  0  0  0
  8  9  1  0  0  0  0
  8 10  1  0  0  0  0
  8 11  1  0  0  0  0
 11 12  1  0  0  0  0
 11 13  1  0  0  0  0
 11 14  1  0  0  0  0
 14 15  1  0  0  0  0
 14 16  1  0  0  0  0
 14 17  1  0  0  0  0
 17 18  1  0  0  0  0
 17 19  1  0  0  0  0
 17 20  1  0  0  0  0
 20 21  1  0  0  0  0
 20 22  1  0  0  0  0
 22 23  1  0  0  0  0
 22 24  1  0  0  0  0
 22 25  1  0  0  0  0
 20 26  1  0  0  0  0
 26 27  1  0  0  0  0
 26 28  1  0  0  0  0
 26 29  1  0  0  0  0
M  END
> <VConfSearch Rank>
724

> <Conf_Id>
40

> <Delta U+W>
1.128

> <U+W>
-26.698

> <U>
25.442

> <W>
-52.140

> <W(PB)>
-54.658

> <W(SA)>
2.519

> <Valence>
4.343

> <Coulomb>
19.740

> <VdW>
1.360

> <VdW6>
-8.739

> <VdW12>
10.099

> <Bond>
0.251

> <Angle>
1.483

> <Pdih>
2.608

> <Idih>
0.000

> <Tether>
0.000

$$$$
VeraChem MOL file


 29 28  0  0  0  0  0  0  0  0999 V2000     
   22.8175   20.7490   20.8612 C   0  0  0  0  0  0  0  0  0  0  0  0
   23.4199   20.1219   21.5298 H   0  0  0  0  0  0  0  0  0  0  0  0
   22.4948   20.1349   20.0105 H   0  0  0  0  0  0  0  0  0  0  0  0
   23.4721   21.5407   20.4744 H   0  0  0  0  0  0  0  0  0  0  0  0
   21.6040   21.3626   21.5959 C   0  0  0  0  0  0  0  0  0  0  0  0
   21.1113   22.0792   20.9239 H   0  0  0  0  0  0  0  0  0  0  0  0
   21.9503   21.9425   22.4628 H   0  0  0  0  0  0  0  0  0  0  0  0
   20.5608   20.3131   22.0506 C   0  0  0  0  0  0  0  0  0  0  0  0
   19.6839   20.8521   22.4306 H   0  0  0  0  0  0  0  0  0  0  0  0
   20.2181   19.7366   21.1805 H   0  0  0  0  0  0  0  0  0  0  0  0
   21.0919   19.3487   23.1417 C   0  0  0  0  0  0  0  0  0  0  0  0
   21.4294   19.9245   24.0144 H   0  0  0  0  0  0  0  0  0  0  0  0
   21.9750   18.8202   22.7605 H   0  0  0  0  0  0  0  0  0  0  0  0
   20.0579   18.2858   23.5891 C   0  0  0  0  0  0  0  0  0  0  0  0
   19.7064   17.7236   22.7128 H   0  0  0  0  0  0  0  0  0  0  0  0
   20.5748   17.5624   24.2331 H   0  0  0  0  0  0  0  0  0  0  0  0
   18.8451   18.8801   24.3510 C   0  0  0  0  0  0  0  0  0  0  0  0
   18.3129   19.5817   23.6973 H   0  0  0  0  0  0  0  0  0  0  0  0
   19.1965   19.4595   25.2151 H   0  0  0  0  0  0  0  0  0  0  0  0
   17.8438   17.8028   24.8219 C   0  0  2  0  0  0  0  0  0  0  0  0
   17.5368   17.2157   23.9508 H   0  0  0  0  0  0  0  0  0  0  0  0
   16.5930   18.4626   25.4242 C   0  0  0  0  0  0  0  0  0  0  0  0
   15.8621   17.7035   25.7291 H   0  0  0  0  0  0  0  0  0  0  0  0
   16.8474   19.0656   26.3048 H   0  0  0  0  0  0  0  0  0  0  0  0
   16.1059   19.1174   24.6909 H   0  0  0  0  0  0  0  0  0  0  0  0
   18.4521   16.8378   25.8028 N   0  3  0  0  0  0  0  0  0  0  0  0
   18.7694   17.3172   26.6495 H   0  0  0  0  0  0  0  0  0  0  0  0
   19.2597   16.3546   25.4004 H   0  0  0  0  0  0  0  0  0  0  0  0
   17.7785   16.1218   26.0896 H   0  0  0  0  0  0  0  0  0  0  0  0
  1  2  1  0  0  0  0
  1  3  1  0  0  0  0
  1  4  1  0  0  0  0
  1  5  1  0  0  0  0
  5  6  1  0  0  0  0
  5  7  1  0  0  0  0
  5  8  1  0  0  0  0
  8  9  1  0  0  0  0
  8 10  1  0  0  0  0
  8 11  1  0  0  0  0
 11 12  1  0  0  0  0
 11 13  1  0  0  0  0
 11 14  1  0  0  0  0
 14 15  1  0  0  0  0
 14 16  1  0  0  0  0
 14 17  1  0  0  0  0
 17 18  1  0  0  0  0
 17 19  1  0  0  0  0
 17 20  1  0  0  0  0
 20 21  1  0  0  0  0
 20 22  1  0  0  0  0
 22 23  1  0  0  0  0
 22 24  1  0  0  0  0
 22 25  1  0  0  0  0
 20 26  1  0  0  0  0
 26 27  1  0  0  0  0
 26 28  1  0  0  0  0
 26 29  1  0  0  0  0
M  END
> <VConfSearch Rank>
725

> <Conf_Id>
134

> <Delta U+W>
1.228

> <U+W>
-26.598

> <U>
25.451

> <W>
-52.048

> <W(PB)>
-54.539

> <W(SA)>
2.490

> <Valence>
4.319

> <Coulomb>
19.732

> <VdW>
1.400

> <VdW6>
-9.173

> <VdW12>
10.573

> <Bond>
0.281

> <Angle>
1.459

> <Pdih>
2.580

> <Idih>
0.000

> <Tether>
0.000

$$$$
VeraChem MOL file


 29 28  0  0  0  0  0  0  0  0999 V2000     
   18.2729   17.5506   19.7649 C   0  0  0  0  0  0  0  0  0  0  0  0
   17.4392   18.2105   20.0344 H   0  0  0  0  0  0  0  0  0  0  0  0
   19.0093   18.1381   19.2013 H   0  0  0  0  0  0  0  0  0  0  0  0
   17.8767   16.7771   19.0943 H   0  0  0  0  0  0  0  0  0  0  0  0
   18.9150   16.9053   21.0140 C   0  0  0  0  0  0  0  0  0  0  0  0
   19.6533   16.1605   20.6854 H   0  0  0  0  0  0  0  0  0  0  0  0
   18.1516   16.3527   21.5792 H   0  0  0  0  0  0  0  0  0  0  0  0
   19.6193   17.9238   21.9428 C   0  0  0  0  0  0  0  0  0  0  0  0
   20.1548   17.3611   22.7181 H   0  0  0  0  0  0  0  0  0  0  0  0
   20.3827   18.4720   21.3737 H   0  0  0  0  0  0  0  0  0  0  0  0
   18.6440   18.9262   22.6108 C   0  0  0  0  0  0  0  0  0  0  0  0
   17.8817   18.3779   23.1810 H   0  0  0  0  0  0  0  0  0  0  0  0
   18.1062   19.4854   21.8345 H   0  0  0  0  0  0  0  0  0  0  0  0
   19.3486   19.9494   23.5354 C   0  0  0  0  0  0  0  0  0  0  0  0
   20.0971   20.5026   22.9527 H   0  0  0  0  0  0  0  0  0  0  0  0
   18.6051   20.6874   23.8672 H   0  0  0  0  0  0  0  0  0  0  0  0
   20.0086   19.3053   24.7820 C   0  0  0  0  0  0  0  0  0  0  0  0
   20.8530   18.6737   24.4786 H   0  0  0  0  0  0  0  0  0  0  0  0
   19.2772   18.6423   25.2625 H   0  0  0  0  0  0  0  0  0  0  0  0
   20.4947   20.3365   25.8255 C   0  0  2  0  0  0  0  0  0  0  0  0
   19.6502   20.9797   26.0916 H   0  0  0  0  0  0  0  0  0  0  0  0
   21.6286   21.2223   25.2789 C   0  0  0  0  0  0  0  0  0  0  0  0
   22.4789   20.6159   24.9429 H   0  0  0  0  0  0  0  0  0  0  0  0
   21.2862   21.8320   24.4348 H   0  0  0  0  0  0  0  0  0  0  0  0
   21.9873   21.9120   26.0528 H   0  0  0  0  0  0  0  0  0  0  0  0
   20.9289   19.6598   27.0959 N   0  3  0  0  0  0  0  0  0  0  0  0
   20.1743   19.0981   27.5008 H   0  0  0  0  0  0  0  0  0  0  0  0
   21.2143   20.3421   27.8042 H   0  0  0  0  0  0  0  0  0  0  0  0
   21.7244   19.0362   26.9345 H   0  0  0  0  0  0  0  0  0  0  0  0
  1  2  1  0  0  0  0
  1  3  1  0  0  0  0
  1  4  1  0  0  0  0
  1  5  1  0  0  0  0
  5  6  1  0  0  0  0
  5  7  1  0  0  0  0
  5  8  1  0  0  0  0
  8  9  1  0  0  0  0
  8 10  1  0  0  0  0
  8 11  1  0  0  0  0
 11 12  1  0  0  0  0
 11 13  1  0  0  0  0
 11 14  1  0  0  0  0
 14 15  1  0  0  0  0
 14 16  1  0  0  0  0
 14 17  1  0  0  0  0
 17 18  1  0  0  0  0
 17 19  1  0  0  0  0
 17 20  1  0  0  0  0
 20 21  1  0  0  0  0
 20 22  1  0  0  0  0
 22 23  1  0  0  0  0
 22 24  1  0  0  0  0
 22 25  1  0  0  0  0
 20 26  1  0  0  0  0
 26 27  1  0  0  0  0
 26 28  1  0  0  0  0
 26 29  1  0  0  0  0
M  END
> <VConfSearch Rank>
726

> <Conf_Id>
73

> <Delta U+W>
1.580

> <U+W>
-26.246

> <U>
25.821

> <W>
-52.067

> <W(PB)>
-54.581

> <W(SA)>
2.514

> <Valence>
4.779

> <Coulomb>
19.614

> <VdW>
1.428

> <VdW6>
-9.390

> <VdW12>
10.818

> <Bond>
0.283

> <Angle>
1.640

> <Pdih>
2.856

> <Idih>
0.000

> <Tether>
0.000

$$$$
VeraChem MOL file


 29 28  0  0  0  0  0  0  0  0999 V2000     
   23.5247   18.1642   25.8401 C   0  0  0  0  0  0  0  0  0  0  0  0
   22.9823   17.2333   26.0514 H   0  0  0  0  0  0  0  0  0  0  0  0
   24.5994   17.9431   25.8736 H   0  0  0  0  0  0  0  0  0  0  0  0
   23.3025   18.8793   26.6429 H   0  0  0  0  0  0  0  0  0  0  0  0
   23.1288   18.7364   24.4625 C   0  0  0  0  0  0  0  0  0  0  0  0
   23.3928   18.0136   23.6778 H   0  0  0  0  0  0  0  0  0  0  0  0
   23.7125   19.6464   24.2648 H   0  0  0  0  0  0  0  0  0  0  0  0
   21.6196   19.0575   24.3888 C   0  0  0  0  0  0  0  0  0  0  0  0
   21.0499   18.1429   24.5979 H   0  0  0  0  0  0  0  0  0  0  0  0
   21.3614   19.7822   25.1732 H   0  0  0  0  0  0  0  0  0  0  0  0
   21.2211   19.6269   23.0058 C   0  0  0  0  0  0  0  0  0  0  0  0
   21.4234   18.8807   22.2250 H   0  0  0  0  0  0  0  0  0  0  0  0
   21.8609   20.4910   22.7790 H   0  0  0  0  0  0  0  0  0  0  0  0
   19.7423   20.0788   22.9212 C   0  0  0  0  0  0  0  0  0  0  0  0
   19.5420   20.8272   23.7006 H   0  0  0  0  0  0  0  0  0  0  0  0
   19.5984   20.5881   21.9594 H   0  0  0  0  0  0  0  0  0  0  0  0
   18.7299   18.9111   23.0456 C   0  0  0  0  0  0  0  0  0  0  0  0
   18.8591   18.4208   24.0184 H   0  0  0  0  0  0  0  0  0  0  0  0
   18.9412   18.1527   22.2801 H   0  0  0  0  0  0  0  0  0  0  0  0
   17.2611   19.3729   22.9267 C   0  0  2  0  0  0  0  0  0  0  0  0
   17.0852   20.1529   23.6739 H   0  0  0  0  0  0  0  0  0  0  0  0
   16.3079   18.2025   23.2173 C   0  0  0  0  0  0  0  0  0  0  0  0
   16.4825   17.7974   24.2219 H   0  0  0  0  0  0  0  0  0  0  0  0
   15.2626   18.5318   23.1689 H   0  0  0  0  0  0  0  0  0  0  0  0
   16.4445   17.3900   22.4927 H   0  0  0  0  0  0  0  0  0  0  0  0
   16.9532   19.9800   21.5851 N   0  3  0  0  0  0  0  0  0  0  0  0
   15.9805   20.2955   21.5318 H   0  0  0  0  0  0  0  0  0  0  0  0
   17.0990   19.3062   20.8286 H   0  0  0  0  0  0  0  0  0  0  0  0
   17.5487   20.7906   21.3958 H   0  0  0  0  0  0  0  0  0  0  0  0
  1  2  1  0  0  0  0
  1  3  1  0  0  0  0
  1  4  1  0  0  0  0
  1  5  1  0  0  0  0
  5  6  1  0  0  0  0
  5  7  1  0  0  0  0
  5  8  1  0  0  0  0
  8  9  1  0  0  0  0
  8 10  1  0  0  0  0
  8 11  1  0  0  0  0
 11 12  1  0  0  0  0
 11 13  1  0  0  0  0
 11 14  1  0  0  0  0
 14 15  1  0  0  0  0
 14 16  1  0  0  0  0
 14 17  1  0  0  0  0
 17 18  1  0  0  0  0
 17 19  1  0  0  0  0
 17 20  1  0  0  0  0
 20 21  1  0  0  0  0
 20 22  1  0  0  0  0
 22 23  1  0  0  0  0
 22 24  1  0  0  0  0
 22 25  1  0  0  0  0
 20 26  1  0  0  0  0
 26 27  1  0  0  0  0
 26 28  1  0  0  0  0
 26 29  1  0  0  0  0
M  END
> <VConfSearch Rank>
727

> <Conf_Id>
111

> <Delta U+W>
0.580

> <U+W>
-27.246

> <U>
24.710

> <W>
-51.957

> <W(PB)>
-54.511

> <W(SA)>
2.555

> <Valence>
3.735

> <Coulomb>
19.760

> <VdW>
1.216

> <VdW6>
-8.624

> <VdW12>
9.840

> <Bond>
0.236

> <Angle>
1.168

> <Pdih>
2.330

> <Idih>
0.000

> <Tether>
0.000

$$$$
VeraChem MOL file


 29 28  0  0  0  0  0  0  0  0999 V2000     
   20.8346   18.2388   27.6473 C   0  0  0  0  0  0  0  0  0  0  0  0
   21.1137   19.2835   27.8369 H   0  0  0  0  0  0  0  0  0  0  0  0
   19.7455   18.1511   27.7541 H   0  0  0  0  0  0  0  0  0  0  0  0
   21.3004   17.6191   28.4245 H   0  0  0  0  0  0  0  0  0  0  0  0
   21.2925   17.7884   26.2440 C   0  0  0  0  0  0  0  0  0  0  0  0
   21.0292   16.7316   26.0962 H   0  0  0  0  0  0  0  0  0  0  0  0
   22.3876   17.8544   26.1796 H   0  0  0  0  0  0  0  0  0  0  0  0
   20.6512   18.6458   25.1306 C   0  0  0  0  0  0  0  0  0  0  0  0
   19.5584   18.5784   25.2115 H   0  0  0  0  0  0  0  0  0  0  0  0
   20.9187   19.7007   25.2815 H   0  0  0  0  0  0  0  0  0  0  0  0
   21.1065   18.1924   23.7228 C   0  0  0  0  0  0  0  0  0  0  0  0
   20.7944   17.1533   23.5491 H   0  0  0  0  0  0  0  0  0  0  0  0
   22.2046   18.1949   23.6834 H   0  0  0  0  0  0  0  0  0  0  0  0
   20.5726   19.0927   22.5817 C   0  0  0  0  0  0  0  0  0  0  0  0
   20.9164   20.1223   22.7476 H   0  0  0  0  0  0  0  0  0  0  0  0
   21.0245   18.7620   21.6363 H   0  0  0  0  0  0  0  0  0  0  0  0
   19.0288   19.0596   22.4423 C   0  0  0  0  0  0  0  0  0  0  0  0
   18.5606   19.5162   23.3235 H   0  0  0  0  0  0  0  0  0  0  0  0
   18.7016   18.0117   22.4206 H   0  0  0  0  0  0  0  0  0  0  0  0
   18.5082   19.7619   21.1677 C   0  0  2  0  0  0  0  0  0  0  0  0
   19.0107   19.3190   20.3023 H   0  0  0  0  0  0  0  0  0  0  0  0
   18.7996   21.2732   21.1797 C   0  0  0  0  0  0  0  0  0  0  0  0
   18.3644   21.7542   22.0646 H   0  0  0  0  0  0  0  0  0  0  0  0
   19.8777   21.4712   21.1761 H   0  0  0  0  0  0  0  0  0  0  0  0
   18.3783   21.7549   20.2888 H   0  0  0  0  0  0  0  0  0  0  0  0
   17.0374   19.5169   20.9753 N   0  3  0  0  0  0  0  0  0  0  0  0
   16.8257   18.5163   20.9211 H   0  0  0  0  0  0  0  0  0  0  0  0
   16.6966   19.9474   20.1109 H   0  0  0  0  0  0  0  0  0  0  0  0
   16.4892   19.9061   21.7471 H   0  0  0  0  0  0  0  0  0  0  0  0
  1  2  1  0  0  0  0
  1  3  1  0  0  0  0
  1  4  1  0  0  0  0
  1  5  1  0  0  0  0
  5  6  1  0  0  0  0
  5  7  1  0  0  0  0
  5  8  1  0  0  0  0
  8  9  1  0  0  0  0
  8 10  1  0  0  0  0
  8 11  1  0  0  0  0
 11 12  1  0  0  0  0
 11 13  1  0  0  0  0
 11 14  1  0  0  0  0
 14 15  1  0  0  0  0
 14 16  1  0  0  0  0
 14 17  1  0  0  0  0
 17 18  1  0  0  0  0
 17 19  1  0  0  0  0
 17 20  1  0  0  0  0
 20 21  1  0  0  0  0
 20 22  1  0  0  0  0
 22 23  1  0  0  0  0
 22 24  1  0  0  0  0
 22 25  1  0  0  0  0
 20 26  1  0  0  0  0
 26 27  1  0  0  0  0
 26 28  1  0  0  0  0
 26 29  1  0  0  0  0
M  END
> <VConfSearch Rank>
728

> <Conf_Id>
39

> <Delta U+W>
0.965

> <U+W>
-26.861

> <U>
25.129

> <W>
-51.990

> <W(PB)>
-54.526

> <W(SA)>
2.536

> <Valence>
4.206

> <Coulomb>
19.678

> <VdW>
1.245

> <VdW6>
-8.834

> <VdW12>
10.079

> <Bond>
0.240

> <Angle>
1.353

> <Pdih>
2.613

> <Idih>
0.000

> <Tether>
0.000

$$$$
VeraChem MOL file


 29 28  0  0  0  0  0  0  0  0999 V2000     
   23.8420   19.9029   24.3299 C   0  0  0  0  0  0  0  0  0  0  0  0
   23.8500   19.1344   25.1137 H   0  0  0  0  0  0  0  0  0  0  0  0
   23.8899   19.4016   23.3555 H   0  0  0  0  0  0  0  0  0  0  0  0
   24.7561   20.5011   24.4373 H   0  0  0  0  0  0  0  0  0  0  0  0
   22.5908   20.8028   24.4465 C   0  0  0  0  0  0  0  0  0  0  0  0
   22.5877   21.5401   23.6316 H   0  0  0  0  0  0  0  0  0  0  0  0
   22.6566   21.3778   25.3808 H   0  0  0  0  0  0  0  0  0  0  0  0
   21.2592   20.0136   24.4440 C   0  0  0  0  0  0  0  0  0  0  0  0
   21.2672   19.2788   25.2607 H   0  0  0  0  0  0  0  0  0  0  0  0
   20.4484   20.7181   24.6683 H   0  0  0  0  0  0  0  0  0  0  0  0
   20.9686   19.2991   23.0996 C   0  0  0  0  0  0  0  0  0  0  0  0
   21.7851   18.6012   22.8738 H   0  0  0  0  0  0  0  0  0  0  0  0
   20.9562   20.0345   22.2835 H   0  0  0  0  0  0  0  0  0  0  0  0
   19.6429   18.4985   23.0977 C   0  0  0  0  0  0  0  0  0  0  0  0
   19.5952   17.9219   22.1648 H   0  0  0  0  0  0  0  0  0  0  0  0
   19.6659   17.7651   23.9147 H   0  0  0  0  0  0  0  0  0  0  0  0
   18.3794   19.3941   23.2175 C   0  0  0  0  0  0  0  0  0  0  0  0
   18.4288   20.1919   22.4649 H   0  0  0  0  0  0  0  0  0  0  0  0
   18.3722   19.8961   24.1928 H   0  0  0  0  0  0  0  0  0  0  0  0
   17.0358   18.6458   23.0503 C   0  0  2  0  0  0  0  0  0  0  0  0
   16.2366   19.3870   23.1479 H   0  0  0  0  0  0  0  0  0  0  0  0
   16.8249   17.5862   24.1458 C   0  0  0  0  0  0  0  0  0  0  0  0
   17.5382   16.7588   24.0518 H   0  0  0  0  0  0  0  0  0  0  0  0
   16.9403   18.0285   25.1432 H   0  0  0  0  0  0  0  0  0  0  0  0
   15.8137   17.1658   24.0833 H   0  0  0  0  0  0  0  0  0  0  0  0
   16.8791   18.0436   21.6811 N   0  3  0  0  0  0  0  0  0  0  0  0
   16.9756   18.7509   20.9468 H   0  0  0  0  0  0  0  0  0  0  0  0
   15.9595   17.6076   21.5673 H   0  0  0  0  0  0  0  0  0  0  0  0
   17.5841   17.3226   21.5095 H   0  0  0  0  0  0  0  0  0  0  0  0
  1  2  1  0  0  0  0
  1  3  1  0  0  0  0
  1  4  1  0  0  0  0
  1  5  1  0  0  0  0
  5  6  1  0  0  0  0
  5  7  1  0  0  0  0
  5  8  1  0  0  0  0
  8  9  1  0  0  0  0
  8 10  1  0  0  0  0
  8 11  1  0  0  0  0
 11 12  1  0  0  0  0
 11 13  1  0  0  0  0
 11 14  1  0  0  0  0
 14 15  1  0  0  0  0
 14 16  1  0  0  0  0
 14 17  1  0  0  0  0
 17 18  1  0  0  0  0
 17 19  1  0  0  0  0
 17 20  1  0  0  0  0
 20 21  1  0  0  0  0
 20 22  1  0  0  0  0
 22 23  1  0  0  0  0
 22 24  1  0  0  0  0
 22 25  1  0  0  0  0
 20 26  1  0  0  0  0
 26 27  1  0  0  0  0
 26 28  1  0  0  0  0
 26 29  1  0  0  0  0
M  END
> <VConfSearch Rank>
729

> <Conf_Id>
155

> <Delta U+W>
1.624

> <U+W>
-26.202

> <U>
25.894

> <W>
-52.096

> <W(PB)>
-54.602

> <W(SA)>
2.506

> <Valence>
4.779

> <Coulomb>
19.659

> <VdW>
1.456

> <VdW6>
-9.843

> <VdW12>
11.299

> <Bond>
0.315

> <Angle>
1.725

> <Pdih>
2.740

> <Idih>
0.000

> <Tether>
0.000

$$$$
VeraChem MOL file


 29 28  0  0  0  0  0  0  0  0999 V2000     
   21.5740   21.9830   21.3308 C   0  0  0  0  0  0  0  0  0  0  0  0
   22.3910   21.5195   21.8976 H   0  0  0  0  0  0  0  0  0  0  0  0
   21.2664   21.2875   20.5391 H   0  0  0  0  0  0  0  0  0  0  0  0
   21.9756   22.8839   20.8492 H   0  0  0  0  0  0  0  0  0  0  0  0
   20.3826   22.3443   22.2464 C   0  0  0  0  0  0  0  0  0  0  0  0
   19.6427   22.9073   21.6604 H   0  0  0  0  0  0  0  0  0  0  0  0
   20.7214   23.0199   23.0443 H   0  0  0  0  0  0  0  0  0  0  0  0
   19.6892   21.1075   22.8666 C   0  0  0  0  0  0  0  0  0  0  0  0
   18.8002   21.4451   23.4169 H   0  0  0  0  0  0  0  0  0  0  0  0
   19.3279   20.4583   22.0586 H   0  0  0  0  0  0  0  0  0  0  0  0
   20.6067   20.3077   23.8259 C   0  0  0  0  0  0  0  0  0  0  0  0
   21.0636   21.0031   24.5435 H   0  0  0  0  0  0  0  0  0  0  0  0
   21.4342   19.8537   23.2650 H   0  0  0  0  0  0  0  0  0  0  0  0
   19.8636   19.2046   24.6194 C   0  0  0  0  0  0  0  0  0  0  0  0
   20.5623   18.7960   25.3605 H   0  0  0  0  0  0  0  0  0  0  0  0
   19.0369   19.6533   25.1872 H   0  0  0  0  0  0  0  0  0  0  0  0
   19.3233   18.0580   23.7256 C   0  0  0  0  0  0  0  0  0  0  0  0
   20.1512   17.6017   23.1671 H   0  0  0  0  0  0  0  0  0  0  0  0
   18.6386   18.4792   22.9796 H   0  0  0  0  0  0  0  0  0  0  0  0
   18.5599   16.9651   24.5087 C   0  0  2  0  0  0  0  0  0  0  0  0
   17.7798   17.4504   25.1035 H   0  0  0  0  0  0  0  0  0  0  0  0
   19.4802   16.1781   25.4593 C   0  0  0  0  0  0  0  0  0  0  0  0
   20.3203   15.7279   24.9159 H   0  0  0  0  0  0  0  0  0  0  0  0
   19.8857   16.8220   26.2479 H   0  0  0  0  0  0  0  0  0  0  0  0
   18.9249   15.3720   25.9544 H   0  0  0  0  0  0  0  0  0  0  0  0
   17.8544   16.0224   23.5737 N   0  3  0  0  0  0  0  0  0  0  0  0
   17.2012   16.5180   22.9601 H   0  0  0  0  0  0  0  0  0  0  0  0
   17.3155   15.3196   24.0878 H   0  0  0  0  0  0  0  0  0  0  0  0
   18.5182   15.5216   22.9766 H   0  0  0  0  0  0  0  0  0  0  0  0
  1  2  1  0  0  0  0
  1  3  1  0  0  0  0
  1  4  1  0  0  0  0
  1  5  1  0  0  0  0
  5  6  1  0  0  0  0
  5  7  1  0  0  0  0
  5  8  1  0  0  0  0
  8  9  1  0  0  0  0
  8 10  1  0  0  0  0
  8 11  1  0  0  0  0
 11 12  1  0  0  0  0
 11 13  1  0  0  0  0
 11 14  1  0  0  0  0
 14 15  1  0  0  0  0
 14 16  1  0  0  0  0
 14 17  1  0  0  0  0
 17 18  1  0  0  0  0
 17 19  1  0  0  0  0
 17 20  1  0  0  0  0
 20 21  1  0  0  0  0
 20 22  1  0  0  0  0
 22 23  1  0  0  0  0
 22 24  1  0  0  0  0
 22 25  1  0  0  0  0
 20 26  1  0  0  0  0
 26 27  1  0  0  0  0
 26 28  1  0  0  0  0
 26 29  1  0  0  0  0
M  END
> <VConfSearch Rank>
730

> <Conf_Id>
135

> <Delta U+W>
1.581

> <U+W>
-26.245

> <U>
25.974

> <W>
-52.219

> <W(PB)>
-54.709

> <W(SA)>
2.490

> <Valence>
4.811

> <Coulomb>
19.700

> <VdW>
1.463

> <VdW6>
-9.391

> <VdW12>
10.854

> <Bond>
0.285

> <Angle>
1.671

> <Pdih>
2.855

> <Idih>
0.000

> <Tether>
0.000

$$$$
VeraChem MOL file


 29 28  0  0  0  0  0  0  0  0999 V2000     
   21.5395   18.2369   19.9857 C   0  0  0  0  0  0  0  0  0  0  0  0
   22.3947   18.1859   20.6720 H   0  0  0  0  0  0  0  0  0  0  0  0
   20.9192   17.3455   20.1418 H   0  0  0  0  0  0  0  0  0  0  0  0
   21.9286   18.1929   18.9602 H   0  0  0  0  0  0  0  0  0  0  0  0
   20.7303   19.5357   20.2020 C   0  0  0  0  0  0  0  0  0  0  0  0
   19.8665   19.5503   19.5227 H   0  0  0  0  0  0  0  0  0  0  0  0
   21.3563   20.3944   19.9219 H   0  0  0  0  0  0  0  0  0  0  0  0
   20.2520   19.7241   21.6617 C   0  0  0  0  0  0  0  0  0  0  0  0
   21.1257   19.7372   22.3265 H   0  0  0  0  0  0  0  0  0  0  0  0
   19.7788   20.7117   21.7495 H   0  0  0  0  0  0  0  0  0  0  0  0
   19.2478   18.6380   22.1232 C   0  0  0  0  0  0  0  0  0  0  0  0
   19.7415   17.6578   22.1549 H   0  0  0  0  0  0  0  0  0  0  0  0
   18.4422   18.5557   21.3807 H   0  0  0  0  0  0  0  0  0  0  0  0
   18.6152   18.9346   23.5049 C   0  0  0  0  0  0  0  0  0  0  0  0
   18.0877   19.8965   23.4583 H   0  0  0  0  0  0  0  0  0  0  0  0
   17.8525   18.1709   23.7109 H   0  0  0  0  0  0  0  0  0  0  0  0
   19.6464   18.9446   24.6626 C   0  0  0  0  0  0  0  0  0  0  0  0
   20.3383   19.7881   24.5436 H   0  0  0  0  0  0  0  0  0  0  0  0
   20.2521   18.0310   24.5997 H   0  0  0  0  0  0  0  0  0  0  0  0
   19.0006   19.0088   26.0653 C   0  0  2  0  0  0  0  0  0  0  0  0
   18.2883   18.1828   26.1533 H   0  0  0  0  0  0  0  0  0  0  0  0
   18.2454   20.3302   26.2948 C   0  0  0  0  0  0  0  0  0  0  0  0
   18.9073   21.1945   26.1582 H   0  0  0  0  0  0  0  0  0  0  0  0
   17.4005   20.4315   25.6038 H   0  0  0  0  0  0  0  0  0  0  0  0
   17.8385   20.3709   27.3127 H   0  0  0  0  0  0  0  0  0  0  0  0
   20.0262   18.8012   27.1449 N   0  3  0  0  0  0  0  0  0  0  0  0
   19.5962   18.8035   28.0743 H   0  0  0  0  0  0  0  0  0  0  0  0
   20.7350   19.5396   27.1344 H   0  0  0  0  0  0  0  0  0  0  0  0
   20.5120   17.9062   27.0364 H   0  0  0  0  0  0  0  0  0  0  0  0
  1  2  1  0  0  0  0
  1  3  1  0  0  0  0
  1  4  1  0  0  0  0
  1  5  1  0  0  0  0
  5  6  1  0  0  0  0
  5  7  1  0  0  0  0
  5  8  1  0  0  0  0
  8  9  1  0  0  0  0
  8 10  1  0  0  0  0
  8 11  1  0  0  0  0
 11 12  1  0  0  0  0
 11 13  1  0  0  0  0
 11 14  1  0  0  0  0
 14 15  1  0  0  0  0
 14 16  1  0  0  0  0
 14 17  1  0  0  0  0
 17 18  1  0  0  0  0
 17 19  1  0  0  0  0
 17 20  1  0  0  0  0
 20 21  1  0  0  0  0
 20 22  1  0  0  0  0
 22 23  1  0  0  0  0
 22 24  1  0  0  0  0
 22 25  1  0  0  0  0
 20 26  1  0  0  0  0
 26 27  1  0  0  0  0
 26 28  1  0  0  0  0
 26 29  1  0  0  0  0
M  END
> <VConfSearch Rank>
731

> <Conf_Id>
130

> <Delta U+W>
1.359

> <U+W>
-26.467

> <U>
25.687

> <W>
-52.154

> <W(PB)>
-54.643

> <W(SA)>
2.489

> <Valence>
4.682

> <Coulomb>
19.653

> <VdW>
1.352

> <VdW6>
-9.477

> <VdW12>
10.829

> <Bond>
0.274

> <Angle>
1.550

> <Pdih>
2.858

> <Idih>
0.000

> <Tether>
0.000

$$$$
VeraChem MOL file


 29 28  0  0  0  0  0  0  0  0999 V2000     
   22.7738   18.3442   26.1796 C   0  0  0  0  0  0  0  0  0  0  0  0
   23.0143   17.9322   27.1682 H   0  0  0  0  0  0  0  0  0  0  0  0
   23.6936   18.3383   25.5806 H   0  0  0  0  0  0  0  0  0  0  0  0
   22.4634   19.3864   26.3239 H   0  0  0  0  0  0  0  0  0  0  0  0
   21.6638   17.5094   25.5017 C   0  0  0  0  0  0  0  0  0  0  0  0
   20.7450   17.5586   26.1027 H   0  0  0  0  0  0  0  0  0  0  0  0
   21.9701   16.4540   25.4945 H   0  0  0  0  0  0  0  0  0  0  0  0
   21.3622   17.9480   24.0482 C   0  0  0  0  0  0  0  0  0  0  0  0
   22.2799   17.8792   23.4482 H   0  0  0  0  0  0  0  0  0  0  0  0
   20.6576   17.2279   23.6135 H   0  0  0  0  0  0  0  0  0  0  0  0
   20.7793   19.3808   23.9460 C   0  0  0  0  0  0  0  0  0  0  0  0
   21.5217   20.0968   24.3217 H   0  0  0  0  0  0  0  0  0  0  0  0
   19.9052   19.4711   24.6021 H   0  0  0  0  0  0  0  0  0  0  0  0
   20.4138   19.7872   22.4946 C   0  0  0  0  0  0  0  0  0  0  0  0
   20.2947   20.8780   22.4373 H   0  0  0  0  0  0  0  0  0  0  0  0
   21.2679   19.5525   21.8444 H   0  0  0  0  0  0  0  0  0  0  0  0
   19.1417   19.0990   21.9263 C   0  0  0  0  0  0  0  0  0  0  0  0
   18.9776   18.1240   22.4005 H   0  0  0  0  0  0  0  0  0  0  0  0
   19.3230   18.8876   20.8643 H   0  0  0  0  0  0  0  0  0  0  0  0
   17.8526   19.9499   22.0188 C   0  0  2  0  0  0  0  0  0  0  0  0
   18.0325   20.8983   21.5033 H   0  0  0  0  0  0  0  0  0  0  0  0
   17.4486   20.2607   23.4699 C   0  0  0  0  0  0  0  0  0  0  0  0
   18.1930   20.9012   23.9568 H   0  0  0  0  0  0  0  0  0  0  0  0
   16.4925   20.7977   23.4990 H   0  0  0  0  0  0  0  0  0  0  0  0
   17.3413   19.3410   24.0584 H   0  0  0  0  0  0  0  0  0  0  0  0
   16.7149   19.2856   21.2944 N   0  3  0  0  0  0  0  0  0  0  0  0
   16.9440   19.1113   20.3115 H   0  0  0  0  0  0  0  0  0  0  0  0
   15.8710   19.8655   21.3121 H   0  0  0  0  0  0  0  0  0  0  0  0
   16.4760   18.3855   21.7193 H   0  0  0  0  0  0  0  0  0  0  0  0
  1  2  1  0  0  0  0
  1  3  1  0  0  0  0
  1  4  1  0  0  0  0
  1  5  1  0  0  0  0
  5  6  1  0  0  0  0
  5  7  1  0  0  0  0
  5  8  1  0  0  0  0
  8  9  1  0  0  0  0
  8 10  1  0  0  0  0
  8 11  1  0  0  0  0
 11 12  1  0  0  0  0
 11 13  1  0  0  0  0
 11 14  1  0  0  0  0
 14 15  1  0  0  0  0
 14 16  1  0  0  0  0
 14 17  1  0  0  0  0
 17 18  1  0  0  0  0
 17 19  1  0  0  0  0
 17 20  1  0  0  0  0
 20 21  1  0  0  0  0
 20 22  1  0  0  0  0
 22 23  1  0  0  0  0
 22 24  1  0  0  0  0
 22 25  1  0  0  0  0
 20 26  1  0  0  0  0
 26 27  1  0  0  0  0
 26 28  1  0  0  0  0
 26 29  1  0  0  0  0
M  END
> <VConfSearch Rank>
732

> <Conf_Id>
157

> <Delta U+W>
4.354

> <U+W>
-23.472

> <U>
28.780

> <W>
-52.252

> <W(PB)>
-54.715

> <W(SA)>
2.462

> <Valence>
7.566

> <Coulomb>
19.822

> <VdW>
1.392

> <VdW6>
-10.248

> <VdW12>
11.641

> <Bond>
0.340

> <Angle>
2.096

> <Pdih>
5.129

> <Idih>
0.000

> <Tether>
0.000

$$$$
VeraChem MOL file


 29 28  0  0  0  0  0  0  0  0999 V2000     
   17.0078   17.3508   25.2972 C   0  0  0  0  0  0  0  0  0  0  0  0
   15.9167   17.2367   25.3358 H   0  0  0  0  0  0  0  0  0  0  0  0
   17.3213   17.1977   24.2587 H   0  0  0  0  0  0  0  0  0  0  0  0
   17.4479   16.5489   25.9041 H   0  0  0  0  0  0  0  0  0  0  0  0
   17.4256   18.7400   25.8330 C   0  0  0  0  0  0  0  0  0  0  0  0
   17.0634   18.8268   26.8670 H   0  0  0  0  0  0  0  0  0  0  0  0
   16.9200   19.5357   25.2683 H   0  0  0  0  0  0  0  0  0  0  0  0
   18.9596   18.9648   25.8262 C   0  0  0  0  0  0  0  0  0  0  0  0
   19.2228   19.5498   26.7183 H   0  0  0  0  0  0  0  0  0  0  0  0
   19.4847   18.0061   25.9366 H   0  0  0  0  0  0  0  0  0  0  0  0
   19.5016   19.7300   24.5913 C   0  0  0  0  0  0  0  0  0  0  0  0
   20.5772   19.8886   24.7421 H   0  0  0  0  0  0  0  0  0  0  0  0
   19.0473   20.7297   24.5547 H   0  0  0  0  0  0  0  0  0  0  0  0
   19.2650   19.0091   23.2413 C   0  0  0  0  0  0  0  0  0  0  0  0
   19.6405   17.9789   23.2966 H   0  0  0  0  0  0  0  0  0  0  0  0
   18.1855   18.9359   23.0577 H   0  0  0  0  0  0  0  0  0  0  0  0
   19.9013   19.7446   22.0337 C   0  0  0  0  0  0  0  0  0  0  0  0
   19.4502   20.7423   21.9501 H   0  0  0  0  0  0  0  0  0  0  0  0
   19.6357   19.2105   21.1117 H   0  0  0  0  0  0  0  0  0  0  0  0
   21.4377   19.8914   22.1113 C   0  0  2  0  0  0  0  0  0  0  0  0
   21.6864   20.4522   23.0169 H   0  0  0  0  0  0  0  0  0  0  0  0
   21.9608   20.6818   20.9016 C   0  0  0  0  0  0  0  0  0  0  0  0
   21.7440   20.1591   19.9616 H   0  0  0  0  0  0  0  0  0  0  0  0
   21.4969   21.6750   20.8552 H   0  0  0  0  0  0  0  0  0  0  0  0
   23.0463   20.8244   20.9709 H   0  0  0  0  0  0  0  0  0  0  0  0
   22.1361   18.5638   22.2189 N   0  3  0  0  0  0  0  0  0  0  0  0
   21.8221   18.0459   23.0442 H   0  0  0  0  0  0  0  0  0  0  0  0
   23.1508   18.6792   22.2948 H   0  0  0  0  0  0  0  0  0  0  0  0
   21.9536   17.9793   21.3989 H   0  0  0  0  0  0  0  0  0  0  0  0
  1  2  1  0  0  0  0
  1  3  1  0  0  0  0
  1  4  1  0  0  0  0
  1  5  1  0  0  0  0
  5  6  1  0  0  0  0
  5  7  1  0  0  0  0
  5  8  1  0  0  0  0
  8  9  1  0  0  0  0
  8 10  1  0  0  0  0
  8 11  1  0  0  0  0
 11 12  1  0  0  0  0
 11 13  1  0  0  0  0
 11 14  1  0  0  0  0
 14 15  1  0  0  0  0
 14 16  1  0  0  0  0
 14 17  1  0  0  0  0
 17 18  1  0  0  0  0
 17 19  1  0  0  0  0
 17 20  1  0  0  0  0
 20 21  1  0  0  0  0
 20 22  1  0  0  0  0
 22 23  1  0  0  0  0
 22 24  1  0  0  0  0
 22 25  1  0  0  0  0
 20 26  1  0  0  0  0
 26 27  1  0  0  0  0
 26 28  1  0  0  0  0
 26 29  1  0  0  0  0
M  END
> <VConfSearch Rank>
733

> <Conf_Id>
158

> <Delta U+W>
3.648

> <U+W>
-24.178

> <U>
28.057

> <W>
-52.235

> <W(PB)>
-54.696

> <W(SA)>
2.460

> <Valence>
6.543

> <Coulomb>
20.387

> <VdW>
1.127

> <VdW6>
-10.342

> <VdW12>
11.469

> <Bond>
0.308

> <Angle>
1.938

> <Pdih>
4.297

> <Idih>
0.000

> <Tether>
0.000

$$$$
VeraChem MOL file


 29 28  0  0  0  0  0  0  0  0999 V2000     
   18.9887   21.4160   26.2129 C   0  0  0  0  0  0  0  0  0  0  0  0
   19.4054   20.6998   26.9329 H   0  0  0  0  0  0  0  0  0  0  0  0
   19.7546   21.6299   25.4573 H   0  0  0  0  0  0  0  0  0  0  0  0
   18.7850   22.3516   26.7496 H   0  0  0  0  0  0  0  0  0  0  0  0
   17.6939   20.8685   25.5705 C   0  0  0  0  0  0  0  0  0  0  0  0
   17.3149   21.5881   24.8314 H   0  0  0  0  0  0  0  0  0  0  0  0
   16.9202   20.7889   26.3468 H   0  0  0  0  0  0  0  0  0  0  0  0
   17.8749   19.4822   24.9066 C   0  0  0  0  0  0  0  0  0  0  0  0
   18.2367   18.7626   25.6539 H   0  0  0  0  0  0  0  0  0  0  0  0
   16.8901   19.1204   24.5803 H   0  0  0  0  0  0  0  0  0  0  0  0
   18.8343   19.5004   23.6927 C   0  0  0  0  0  0  0  0  0  0  0  0
   19.8341   19.8085   24.0176 H   0  0  0  0  0  0  0  0  0  0  0  0
   18.4928   20.2543   22.9701 H   0  0  0  0  0  0  0  0  0  0  0  0
   18.9032   18.1185   22.9976 C   0  0  0  0  0  0  0  0  0  0  0  0
   19.1699   17.3365   23.7220 H   0  0  0  0  0  0  0  0  0  0  0  0
   17.8961   17.8664   22.6373 H   0  0  0  0  0  0  0  0  0  0  0  0
   19.8797   18.0832   21.7922 C   0  0  0  0  0  0  0  0  0  0  0  0
   19.9725   19.0829   21.3473 H   0  0  0  0  0  0  0  0  0  0  0  0
   19.4295   17.4512   21.0152 H   0  0  0  0  0  0  0  0  0  0  0  0
   21.2809   17.5057   22.1067 C   0  0  2  0  0  0  0  0  0  0  0  0
   21.1508   16.4930   22.5005 H   0  0  0  0  0  0  0  0  0  0  0  0
   22.0475   18.3318   23.1533 C   0  0  0  0  0  0  0  0  0  0  0  0
   22.1251   19.3835   22.8510 H   0  0  0  0  0  0  0  0  0  0  0  0
   21.5532   18.2843   24.1305 H   0  0  0  0  0  0  0  0  0  0  0  0
   23.0633   17.9399   23.2871 H   0  0  0  0  0  0  0  0  0  0  0  0
   22.0997   17.3683   20.8532 N   0  3  0  0  0  0  0  0  0  0  0  0
   21.6300   16.7807   20.1583 H   0  0  0  0  0  0  0  0  0  0  0  0
   23.0106   16.9422   21.0466 H   0  0  0  0  0  0  0  0  0  0  0  0
   22.2743   18.2787   20.4192 H   0  0  0  0  0  0  0  0  0  0  0  0
  1  2  1  0  0  0  0
  1  3  1  0  0  0  0
  1  4  1  0  0  0  0
  1  5  1  0  0  0  0
  5  6  1  0  0  0  0
  5  7  1  0  0  0  0
  5  8  1  0  0  0  0
  8  9  1  0  0  0  0
  8 10  1  0  0  0  0
  8 11  1  0  0  0  0
 11 12  1  0  0  0  0
 11 13  1  0  0  0  0
 11 14  1  0  0  0  0
 14 15  1  0  0  0  0
 14 16  1  0  0  0  0
 14 17  1  0  0  0  0
 17 18  1  0  0  0  0
 17 19  1  0  0  0  0
 17 20  1  0  0  0  0
 20 21  1  0  0  0  0
 20 22  1  0  0  0  0
 22 23  1  0  0  0  0
 22 24  1  0  0  0  0
 22 25  1  0  0  0  0
 20 26  1  0  0  0  0
 26 27  1  0  0  0  0
 26 28  1  0  0  0  0
 26 29  1  0  0  0  0
M  END
> <VConfSearch Rank>
734

> <Conf_Id>
156

> <Delta U+W>
3.393

> <U+W>
-24.433

> <U>
27.713

> <W>
-52.146

> <W(PB)>
-54.603

> <W(SA)>
2.458

> <Valence>
6.758

> <Coulomb>
19.720

> <VdW>
1.235

> <VdW6>
-9.782

> <VdW12>
11.017

> <Bond>
0.287

> <Angle>
1.880

> <Pdih>
4.591

> <Idih>
0.000

> <Tether>
0.000

$$$$
VeraChem MOL file


 29 28  0  0  0  0  0  0  0  0999 V2000     
   20.6111   22.9562   23.7874 C   0  0  0  0  0  0  0  0  0  0  0  0
   21.6446   22.6574   23.5688 H   0  0  0  0  0  0  0  0  0  0  0  0
   20.3199   23.7324   23.0677 H   0  0  0  0  0  0  0  0  0  0  0  0
   20.5942   23.4031   24.7899 H   0  0  0  0  0  0  0  0  0  0  0  0
   19.6570   21.7454   23.7145 C   0  0  0  0  0  0  0  0  0  0  0  0
   18.6373   22.0686   23.9663 H   0  0  0  0  0  0  0  0  0  0  0  0
   19.9559   21.0108   24.4739 H   0  0  0  0  0  0  0  0  0  0  0  0
   19.6671   21.0954   22.3111 C   0  0  0  0  0  0  0  0  0  0  0  0
   19.4412   21.8652   21.5604 H   0  0  0  0  0  0  0  0  0  0  0  0
   20.6770   20.7350   22.0757 H   0  0  0  0  0  0  0  0  0  0  0  0
   18.6402   19.9444   22.1511 C   0  0  0  0  0  0  0  0  0  0  0  0
   18.6992   19.5598   21.1236 H   0  0  0  0  0  0  0  0  0  0  0  0
   17.6273   20.3561   22.2590 H   0  0  0  0  0  0  0  0  0  0  0  0
   18.8027   18.7613   23.1406 C   0  0  0  0  0  0  0  0  0  0  0  0
   18.6247   19.1109   24.1652 H   0  0  0  0  0  0  0  0  0  0  0  0
   18.0082   18.0353   22.9260 H   0  0  0  0  0  0  0  0  0  0  0  0
   20.1861   18.0619   23.0440 C   0  0  0  0  0  0  0  0  0  0  0  0
   20.9783   18.7806   23.2869 H   0  0  0  0  0  0  0  0  0  0  0  0
   20.3649   17.7519   22.0060 H   0  0  0  0  0  0  0  0  0  0  0  0
   20.3604   16.8337   23.9683 C   0  0  2  0  0  0  0  0  0  0  0  0
   21.3864   16.4748   23.8404 H   0  0  0  0  0  0  0  0  0  0  0  0
   19.4158   15.6804   23.5874 C   0  0  0  0  0  0  0  0  0  0  0  0
   19.6606   14.7792   24.1628 H   0  0  0  0  0  0  0  0  0  0  0  0
   18.3673   15.9300   23.7881 H   0  0  0  0  0  0  0  0  0  0  0  0
   19.5131   15.4317   22.5233 H   0  0  0  0  0  0  0  0  0  0  0  0
   20.2208   17.1865   25.4235 N   0  3  0  0  0  0  0  0  0  0  0  0
   20.8801   17.9208   25.6966 H   0  0  0  0  0  0  0  0  0  0  0  0
   20.3990   16.3759   26.0233 H   0  0  0  0  0  0  0  0  0  0  0  0
   19.2780   17.5231   25.6342 H   0  0  0  0  0  0  0  0  0  0  0  0
  1  2  1  0  0  0  0
  1  3  1  0  0  0  0
  1  4  1  0  0  0  0
  1  5  1  0  0  0  0
  5  6  1  0  0  0  0
  5  7  1  0  0  0  0
  5  8  1  0  0  0  0
  8  9  1  0  0  0  0
  8 10  1  0  0  0  0
  8 11  1  0  0  0  0
 11 12  1  0  0  0  0
 11 13  1  0  0  0  0
 11 14  1  0  0  0  0
 14 15  1  0  0  0  0
 14 16  1  0  0  0  0
 14 17  1  0  0  0  0
 17 18  1  0  0  0  0
 17 19  1  0  0  0  0
 17 20  1  0  0  0  0
 20 21  1  0  0  0  0
 20 22  1  0  0  0  0
 22 23  1  0  0  0  0
 22 24  1  0  0  0  0
 22 25  1  0  0  0  0
 20 26  1  0  0  0  0
 26 27  1  0  0  0  0
 26 28  1  0  0  0  0
 26 29  1  0  0  0  0
M  END
> <VConfSearch Rank>
735

> <Conf_Id>
78

> <Delta U+W>
1.477

> <U+W>
-26.349

> <U>
26.385

> <W>
-52.734

> <W(PB)>
-55.179

> <W(SA)>
2.445

> <Valence>
4.726

> <Coulomb>
20.482

> <VdW>
1.177

> <VdW6>
-10.349

> <VdW12>
11.526

> <Bond>
0.319

> <Angle>
1.933

> <Pdih>
2.474

> <Idih>
0.000

> <Tether>
0.000

$$$$
VeraChem MOL file


 29 28  0  0  0  0  0  0  0  0999 V2000     
   22.2061   21.6161   24.7649 C   0  0  0  0  0  0  0  0  0  0  0  0
   23.1122   21.1093   25.1215 H   0  0  0  0  0  0  0  0  0  0  0  0
   22.0479   21.3270   23.7200 H   0  0  0  0  0  0  0  0  0  0  0  0
   22.3989   22.6965   24.7860 H   0  0  0  0  0  0  0  0  0  0  0  0
   20.9918   21.2657   25.6562 C   0  0  0  0  0  0  0  0  0  0  0  0
   20.1079   21.8369   25.3401 H   0  0  0  0  0  0  0  0  0  0  0  0
   21.2160   21.5981   26.6795 H   0  0  0  0  0  0  0  0  0  0  0  0
   20.6712   19.7492   25.6881 C   0  0  0  0  0  0  0  0  0  0  0  0
   21.5854   19.1637   25.5192 H   0  0  0  0  0  0  0  0  0  0  0  0
   20.3391   19.4917   26.7034 H   0  0  0  0  0  0  0  0  0  0  0  0
   19.5601   19.2963   24.7060 C   0  0  0  0  0  0  0  0  0  0  0  0
   18.6217   19.8103   24.9554 H   0  0  0  0  0  0  0  0  0  0  0  0
   19.3789   18.2273   24.8770 H   0  0  0  0  0  0  0  0  0  0  0  0
   19.8950   19.5336   23.2128 C   0  0  0  0  0  0  0  0  0  0  0  0
   19.9926   20.6117   23.0331 H   0  0  0  0  0  0  0  0  0  0  0  0
   20.8710   19.0918   22.9731 H   0  0  0  0  0  0  0  0  0  0  0  0
   18.8100   18.9904   22.2468 C   0  0  0  0  0  0  0  0  0  0  0  0
   19.0997   19.2325   21.2156 H   0  0  0  0  0  0  0  0  0  0  0  0
   17.8748   19.5339   22.4352 H   0  0  0  0  0  0  0  0  0  0  0  0
   18.5307   17.4723   22.3518 C   0  0  2  0  0  0  0  0  0  0  0  0
   18.2251   17.2463   23.3775 H   0  0  0  0  0  0  0  0  0  0  0  0
   19.7743   16.6297   22.0174 C   0  0  0  0  0  0  0  0  0  0  0  0
   19.5360   15.5594   22.0484 H   0  0  0  0  0  0  0  0  0  0  0  0
   20.1554   16.8650   21.0159 H   0  0  0  0  0  0  0  0  0  0  0  0
   20.5787   16.8040   22.7415 H   0  0  0  0  0  0  0  0  0  0  0  0
   17.3785   17.0724   21.4728 N   0  3  0  0  0  0  0  0  0  0  0  0
   17.5835   17.2470   20.4853 H   0  0  0  0  0  0  0  0  0  0  0  0
   16.5275   17.5919   21.7070 H   0  0  0  0  0  0  0  0  0  0  0  0
   17.1632   16.0758   21.5685 H   0  0  0  0  0  0  0  0  0  0  0  0
  1  2  1  0  0  0  0
  1  3  1  0  0  0  0
  1  4  1  0  0  0  0
  1  5  1  0  0  0  0
  5  6  1  0  0  0  0
  5  7  1  0  0  0  0
  5  8  1  0  0  0  0
  8  9  1  0  0  0  0
  8 10  1  0  0  0  0
  8 11  1  0  0  0  0
 11 12  1  0  0  0  0
 11 13  1  0  0  0  0
 11 14  1  0  0  0  0
 14 15  1  0  0  0  0
 14 16  1  0  0  0  0
 14 17  1  0  0  0  0
 17 18  1  0  0  0  0
 17 19  1  0  0  0  0
 17 20  1  0  0  0  0
 20 21  1  0  0  0  0
 20 22  1  0  0  0  0
 22 23  1  0  0  0  0
 22 24  1  0  0  0  0
 22 25  1  0  0  0  0
 20 26  1  0  0  0  0
 26 27  1  0  0  0  0
 26 28  1  0  0  0  0
 26 29  1  0  0  0  0
M  END
> <VConfSearch Rank>
736

> <Conf_Id>
145

> <Delta U+W>
3.784

> <U+W>
-24.042

> <U>
28.220

> <W>
-52.262

> <W(PB)>
-54.724

> <W(SA)>
2.462

> <Valence>
7.040

> <Coulomb>
19.984

> <VdW>
1.197

> <VdW6>
-10.566

> <VdW12>
11.763

> <Bond>
0.320

> <Angle>
2.280

> <Pdih>
4.439

> <Idih>
0.000

> <Tether>
0.000

$$$$
VeraChem MOL file


 29 28  0  0  0  0  0  0  0  0999 V2000     
   20.9854   22.2944   25.6085 C   0  0  0  0  0  0  0  0  0  0  0  0
   20.4118   23.2249   25.7105 H   0  0  0  0  0  0  0  0  0  0  0  0
   20.7016   21.6257   26.4316 H   0  0  0  0  0  0  0  0  0  0  0  0
   22.0491   22.5398   25.7249 H   0  0  0  0  0  0  0  0  0  0  0  0
   20.7261   21.6298   24.2401 C   0  0  0  0  0  0  0  0  0  0  0  0
   21.3460   20.7292   24.1546 H   0  0  0  0  0  0  0  0  0  0  0  0
   21.0520   22.3094   23.4403 H   0  0  0  0  0  0  0  0  0  0  0  0
   19.2294   21.2854   24.0482 C   0  0  0  0  0  0  0  0  0  0  0  0
   18.8696   20.6614   24.8778 H   0  0  0  0  0  0  0  0  0  0  0  0
   18.6549   22.2205   24.1019 H   0  0  0  0  0  0  0  0  0  0  0  0
   18.9239   20.5985   22.6915 C   0  0  0  0  0  0  0  0  0  0  0  0
   19.6586   20.9053   21.9343 H   0  0  0  0  0  0  0  0  0  0  0  0
   17.9553   20.9712   22.3306 H   0  0  0  0  0  0  0  0  0  0  0  0
   18.8348   19.0517   22.7519 C   0  0  0  0  0  0  0  0  0  0  0  0
   18.0215   18.7671   23.4326 H   0  0  0  0  0  0  0  0  0  0  0  0
   18.5418   18.6954   21.7562 H   0  0  0  0  0  0  0  0  0  0  0  0
   20.1523   18.3568   23.1881 C   0  0  0  0  0  0  0  0  0  0  0  0
   20.3906   18.6493   24.2179 H   0  0  0  0  0  0  0  0  0  0  0  0
   20.9803   18.7181   22.5642 H   0  0  0  0  0  0  0  0  0  0  0  0
   20.1232   16.8110   23.1324 C   0  0  2  0  0  0  0  0  0  0  0  0
   21.0768   16.4544   23.5339 H   0  0  0  0  0  0  0  0  0  0  0  0
   20.0021   16.2831   21.6921 C   0  0  0  0  0  0  0  0  0  0  0  0
   20.1289   15.1937   21.6721 H   0  0  0  0  0  0  0  0  0  0  0  0
   19.0235   16.5130   21.2547 H   0  0  0  0  0  0  0  0  0  0  0  0
   20.7774   16.7194   21.0502 H   0  0  0  0  0  0  0  0  0  0  0  0
   19.0546   16.2247   24.0133 N   0  3  0  0  0  0  0  0  0  0  0  0
   18.1216   16.5020   23.6982 H   0  0  0  0  0  0  0  0  0  0  0  0
   19.1573   16.5334   24.9843 H   0  0  0  0  0  0  0  0  0  0  0  0
   19.0883   15.2012   24.0118 H   0  0  0  0  0  0  0  0  0  0  0  0
  1  2  1  0  0  0  0
  1  3  1  0  0  0  0
  1  4  1  0  0  0  0
  1  5  1  0  0  0  0
  5  6  1  0  0  0  0
  5  7  1  0  0  0  0
  5  8  1  0  0  0  0
  8  9  1  0  0  0  0
  8 10  1  0  0  0  0
  8 11  1  0  0  0  0
 11 12  1  0  0  0  0
 11 13  1  0  0  0  0
 11 14  1  0  0  0  0
 14 15  1  0  0  0  0
 14 16  1  0  0  0  0
 14 17  1  0  0  0  0
 17 18  1  0  0  0  0
 17 19  1  0  0  0  0
 17 20  1  0  0  0  0
 20 21  1  0  0  0  0
 20 22  1  0  0  0  0
 22 23  1  0  0  0  0
 22 24  1  0  0  0  0
 22 25  1  0  0  0  0
 20 26  1  0  0  0  0
 26 27  1  0  0  0  0
 26 28  1  0  0  0  0
 26 29  1  0  0  0  0
M  END
> <VConfSearch Rank>
737

> <Conf_Id>
71

> <Delta U+W>
3.542

> <U+W>
-24.284

> <U>
28.217

> <W>
-52.501

> <W(PB)>
-54.947

> <W(SA)>
2.446

> <Valence>
6.821

> <Coulomb>
20.147

> <VdW>
1.249

> <VdW6>
-10.237

> <VdW12>
11.486

> <Bond>
0.317

> <Angle>
1.990

> <Pdih>
4.515

> <Idih>
0.000

> <Tether>
0.000

$$$$
VeraChem MOL file


 29 28  0  0  0  0  0  0  0  0999 V2000     
   19.6872   15.3246   22.4484 C   0  0  0  0  0  0  0  0  0  0  0  0
   20.7703   15.4140   22.6035 H   0  0  0  0  0  0  0  0  0  0  0  0
   19.3160   14.5129   23.0875 H   0  0  0  0  0  0  0  0  0  0  0  0
   19.5191   15.0343   21.4031 H   0  0  0  0  0  0  0  0  0  0  0  0
   18.9704   16.6537   22.7667 C   0  0  0  0  0  0  0  0  0  0  0  0
   17.8952   16.5412   22.5692 H   0  0  0  0  0  0  0  0  0  0  0  0
   19.3330   17.4299   22.0824 H   0  0  0  0  0  0  0  0  0  0  0  0
   19.1843   17.0778   24.2398 C   0  0  0  0  0  0  0  0  0  0  0  0
   18.7779   16.2862   24.8845 H   0  0  0  0  0  0  0  0  0  0  0  0
   20.2569   17.1350   24.4706 H   0  0  0  0  0  0  0  0  0  0  0  0
   18.4874   18.4142   24.6060 C   0  0  0  0  0  0  0  0  0  0  0  0
   18.1154   18.3335   25.6368 H   0  0  0  0  0  0  0  0  0  0  0  0
   17.5959   18.5639   23.9816 H   0  0  0  0  0  0  0  0  0  0  0  0
   19.4033   19.6634   24.5382 C   0  0  0  0  0  0  0  0  0  0  0  0
   18.8259   20.5257   24.8959 H   0  0  0  0  0  0  0  0  0  0  0  0
   20.2332   19.5342   25.2456 H   0  0  0  0  0  0  0  0  0  0  0  0
   19.9618   19.9646   23.1221 C   0  0  0  0  0  0  0  0  0  0  0  0
   19.1373   19.9551   22.3974 H   0  0  0  0  0  0  0  0  0  0  0  0
   20.6468   19.1616   22.8231 H   0  0  0  0  0  0  0  0  0  0  0  0
   20.7132   21.3106   22.9930 C   0  0  2  0  0  0  0  0  0  0  0  0
   21.0503   21.3966   21.9554 H   0  0  0  0  0  0  0  0  0  0  0  0
   21.9592   21.3649   23.8938 C   0  0  0  0  0  0  0  0  0  0  0  0
   22.6097   20.5004   23.7118 H   0  0  0  0  0  0  0  0  0  0  0  0
   22.5432   22.2701   23.6869 H   0  0  0  0  0  0  0  0  0  0  0  0
   21.6903   21.3753   24.9569 H   0  0  0  0  0  0  0  0  0  0  0  0
   19.8187   22.4945   23.2386 N   0  3  0  0  0  0  0  0  0  0  0  0
   19.0081   22.4888   22.6128 H   0  0  0  0  0  0  0  0  0  0  0  0
   20.3161   23.3768   23.0873 H   0  0  0  0  0  0  0  0  0  0  0  0
   19.4668   22.5013   24.1990 H   0  0  0  0  0  0  0  0  0  0  0  0
  1  2  1  0  0  0  0
  1  3  1  0  0  0  0
  1  4  1  0  0  0  0
  1  5  1  0  0  0  0
  5  6  1  0  0  0  0
  5  7  1  0  0  0  0
  5  8  1  0  0  0  0
  8  9  1  0  0  0  0
  8 10  1  0  0  0  0
  8 11  1  0  0  0  0
 11 12  1  0  0  0  0
 11 13  1  0  0  0  0
 11 14  1  0  0  0  0
 14 15  1  0  0  0  0
 14 16  1  0  0  0  0
 14 17  1  0  0  0  0
 17 18  1  0  0  0  0
 17 19  1  0  0  0  0
 17 20  1  0  0  0  0
 20 21  1  0  0  0  0
 20 22  1  0  0  0  0
 22 23  1  0  0  0  0
 22 24  1  0  0  0  0
 22 25  1  0  0  0  0
 20 26  1  0  0  0  0
 26 27  1  0  0  0  0
 26 28  1  0  0  0  0
 26 29  1  0  0  0  0
M  END
> <VConfSearch Rank>
738

> <Conf_Id>
163

> <Delta U+W>
3.309

> <U+W>
-24.517

> <U>
27.916

> <W>
-52.433

> <W(PB)>
-54.866

> <W(SA)>
2.433

> <Valence>
6.693

> <Coulomb>
20.015

> <VdW>
1.208

> <VdW6>
-10.294

> <VdW12>
11.503

> <Bond>
0.312

> <Angle>
1.939

> <Pdih>
4.441

> <Idih>
0.000

> <Tether>
0.000

$$$$
VeraChem MOL file


 29 28  0  0  0  0  0  0  0  0999 V2000     
   18.9189   15.5195   22.1609 C   0  0  0  0  0  0  0  0  0  0  0  0
   19.2266   15.5575   21.1079 H   0  0  0  0  0  0  0  0  0  0  0  0
   19.8062   15.3129   22.7718 H   0  0  0  0  0  0  0  0  0  0  0  0
   18.2329   14.6708   22.2796 H   0  0  0  0  0  0  0  0  0  0  0  0
   18.2288   16.8354   22.5860 C   0  0  0  0  0  0  0  0  0  0  0  0
   17.9624   16.7865   23.6511 H   0  0  0  0  0  0  0  0  0  0  0  0
   17.2817   16.9299   22.0366 H   0  0  0  0  0  0  0  0  0  0  0  0
   19.0846   18.0968   22.3175 C   0  0  0  0  0  0  0  0  0  0  0  0
   19.3450   18.1437   21.2512 H   0  0  0  0  0  0  0  0  0  0  0  0
   18.4628   18.9773   22.5244 H   0  0  0  0  0  0  0  0  0  0  0  0
   20.3744   18.1605   23.1743 C   0  0  0  0  0  0  0  0  0  0  0  0
   20.9939   17.2786   22.9666 H   0  0  0  0  0  0  0  0  0  0  0  0
   20.1135   18.1035   24.2392 H   0  0  0  0  0  0  0  0  0  0  0  0
   21.2365   19.4208   22.9026 C   0  0  0  0  0  0  0  0  0  0  0  0
   22.1536   19.3585   23.5036 H   0  0  0  0  0  0  0  0  0  0  0  0
   21.5685   19.4076   21.8554 H   0  0  0  0  0  0  0  0  0  0  0  0
   20.5302   20.7741   23.1843 C   0  0  0  0  0  0  0  0  0  0  0  0
   19.7324   20.9254   22.4460 H   0  0  0  0  0  0  0  0  0  0  0  0
   21.2465   21.5902   23.0212 H   0  0  0  0  0  0  0  0  0  0  0  0
   19.9362   20.8924   24.6052 C   0  0  2  0  0  0  0  0  0  0  0  0
   19.2234   20.0749   24.7491 H   0  0  0  0  0  0  0  0  0  0  0  0
   19.1803   22.2211   24.7613 C   0  0  0  0  0  0  0  0  0  0  0  0
   18.7246   22.2939   25.7565 H   0  0  0  0  0  0  0  0  0  0  0  0
   19.8524   23.0783   24.6295 H   0  0  0  0  0  0  0  0  0  0  0  0
   18.3754   22.3007   24.0200 H   0  0  0  0  0  0  0  0  0  0  0  0
   20.9834   20.7486   25.6751 N   0  3  0  0  0  0  0  0  0  0  0  0
   21.4721   19.8526   25.5973 H   0  0  0  0  0  0  0  0  0  0  0  0
   20.5719   20.7960   26.6116 H   0  0  0  0  0  0  0  0  0  0  0  0
   21.6859   21.4900   25.6103 H   0  0  0  0  0  0  0  0  0  0  0  0
  1  2  1  0  0  0  0
  1  3  1  0  0  0  0
  1  4  1  0  0  0  0
  1  5  1  0  0  0  0
  5  6  1  0  0  0  0
  5  7  1  0  0  0  0
  5  8  1  0  0  0  0
  8  9  1  0  0  0  0
  8 10  1  0  0  0  0
  8 11  1  0  0  0  0
 11 12  1  0  0  0  0
 11 13  1  0  0  0  0
 11 14  1  0  0  0  0
 14 15  1  0  0  0  0
 14 16  1  0  0  0  0
 14 17  1  0  0  0  0
 17 18  1  0  0  0  0
 17 19  1  0  0  0  0
 17 20  1  0  0  0  0
 20 21  1  0  0  0  0
 20 22  1  0  0  0  0
 22 23  1  0  0  0  0
 22 24  1  0  0  0  0
 22 25  1  0  0  0  0
 20 26  1  0  0  0  0
 26 27  1  0  0  0  0
 26 28  1  0  0  0  0
 26 29  1  0  0  0  0
M  END
> <VConfSearch Rank>
739

> <Conf_Id>
173

> <Delta U+W>
1.363

> <U+W>
-26.462

> <U>
25.816

> <W>
-52.279

> <W(PB)>
-54.727

> <W(SA)>
2.449

> <Valence>
4.504

> <Coulomb>
20.342

> <VdW>
0.971

> <VdW6>
-10.532

> <VdW12>
11.503

> <Bond>
0.307

> <Angle>
1.715

> <Pdih>
2.481

> <Idih>
0.000

> <Tether>
0.000

$$$$
VeraChem MOL file


 29 28  0  0  0  0  0  0  0  0999 V2000     
   21.8236   20.5513   26.4426 C   0  0  0  0  0  0  0  0  0  0  0  0
   22.1033   19.6171   26.9468 H   0  0  0  0  0  0  0  0  0  0  0  0
   22.7295   21.1596   26.3221 H   0  0  0  0  0  0  0  0  0  0  0  0
   21.1366   21.0976   27.1019 H   0  0  0  0  0  0  0  0  0  0  0  0
   21.1596   20.2677   25.0787 C   0  0  0  0  0  0  0  0  0  0  0  0
   20.8672   21.2181   24.6111 H   0  0  0  0  0  0  0  0  0  0  0  0
   20.2403   19.6912   25.2462 H   0  0  0  0  0  0  0  0  0  0  0  0
   22.1047   19.4890   24.1355 C   0  0  0  0  0  0  0  0  0  0  0  0
   23.0645   20.0203   24.0740 H   0  0  0  0  0  0  0  0  0  0  0  0
   22.3275   18.5063   24.5733 H   0  0  0  0  0  0  0  0  0  0  0  0
   21.5609   19.2995   22.6957 C   0  0  0  0  0  0  0  0  0  0  0  0
   22.3329   18.7724   22.1181 H   0  0  0  0  0  0  0  0  0  0  0  0
   21.4410   20.2756   22.2059 H   0  0  0  0  0  0  0  0  0  0  0  0
   20.2455   18.4831   22.6029 C   0  0  0  0  0  0  0  0  0  0  0  0
   20.2914   17.8628   21.6980 H   0  0  0  0  0  0  0  0  0  0  0  0
   20.1866   17.7854   23.4482 H   0  0  0  0  0  0  0  0  0  0  0  0
   18.9766   19.3771   22.5260 C   0  0  0  0  0  0  0  0  0  0  0  0
   19.0490   20.0210   21.6398 H   0  0  0  0  0  0  0  0  0  0  0  0
   18.9384   20.0581   23.3835 H   0  0  0  0  0  0  0  0  0  0  0  0
   17.6393   18.6030   22.4558 C   0  0  2  0  0  0  0  0  0  0  0  0
   16.8413   19.3432   22.3421 H   0  0  0  0  0  0  0  0  0  0  0  0
   17.3603   17.8153   23.7478 C   0  0  0  0  0  0  0  0  0  0  0  0
   17.4283   18.4694   24.6259 H   0  0  0  0  0  0  0  0  0  0  0  0
   16.3488   17.3914   23.7269 H   0  0  0  0  0  0  0  0  0  0  0  0
   18.0667   16.9875   23.8802 H   0  0  0  0  0  0  0  0  0  0  0  0
   17.5535   17.7091   21.2495 N   0  3  0  0  0  0  0  0  0  0  0  0
   17.6937   18.2349   20.3820 H   0  0  0  0  0  0  0  0  0  0  0  0
   16.6392   17.2523   21.1866 H   0  0  0  0  0  0  0  0  0  0  0  0
   18.2631   16.9730   21.2824 H   0  0  0  0  0  0  0  0  0  0  0  0
  1  2  1  0  0  0  0
  1  3  1  0  0  0  0
  1  4  1  0  0  0  0
  1  5  1  0  0  0  0
  5  6  1  0  0  0  0
  5  7  1  0  0  0  0
  5  8  1  0  0  0  0
  8  9  1  0  0  0  0
  8 10  1  0  0  0  0
  8 11  1  0  0  0  0
 11 12  1  0  0  0  0
 11 13  1  0  0  0  0
 11 14  1  0  0  0  0
 14 15  1  0  0  0  0
 14 16  1  0  0  0  0
 14 17  1  0  0  0  0
 17 18  1  0  0  0  0
 17 19  1  0  0  0  0
 17 20  1  0  0  0  0
 20 21  1  0  0  0  0
 20 22  1  0  0  0  0
 22 23  1  0  0  0  0
 22 24  1  0  0  0  0
 22 25  1  0  0  0  0
 20 26  1  0  0  0  0
 26 27  1  0  0  0  0
 26 28  1  0  0  0  0
 26 29  1  0  0  0  0
M  END
> <VConfSearch Rank>
740

> <Conf_Id>
117

> <Delta U+W>
3.377

> <U+W>
-24.449

> <U>
27.947

> <W>
-52.396

> <W(PB)>
-54.842

> <W(SA)>
2.447

> <Valence>
6.731

> <Coulomb>
20.067

> <VdW>
1.149

> <VdW6>
-10.427

> <VdW12>
11.575

> <Bond>
0.324

> <Angle>
1.943

> <Pdih>
4.465

> <Idih>
0.000

> <Tether>
0.000

$$$$
VeraChem MOL file


 29 28  0  0  0  0  0  0  0  0999 V2000     
   21.4389   20.5884   27.8114 C   0  0  0  0  0  0  0  0  0  0  0  0
   21.9116   19.6197   28.0193 H   0  0  0  0  0  0  0  0  0  0  0  0
   22.2026   21.2598   27.3976 H   0  0  0  0  0  0  0  0  0  0  0  0
   21.1009   21.0106   28.7667 H   0  0  0  0  0  0  0  0  0  0  0  0
   20.2534   20.4291   26.8361 C   0  0  0  0  0  0  0  0  0  0  0  0
   19.7806   21.4079   26.6741 H   0  0  0  0  0  0  0  0  0  0  0  0
   19.4918   19.7803   27.2910 H   0  0  0  0  0  0  0  0  0  0  0  0
   20.7024   19.8362   25.4823 C   0  0  0  0  0  0  0  0  0  0  0  0
   21.4652   20.4868   25.0326 H   0  0  0  0  0  0  0  0  0  0  0  0
   21.1765   18.8592   25.6497 H   0  0  0  0  0  0  0  0  0  0  0  0
   19.5179   19.6753   24.5029 C   0  0  0  0  0  0  0  0  0  0  0  0
   19.0440   20.6528   24.3376 H   0  0  0  0  0  0  0  0  0  0  0  0
   18.7556   19.0244   24.9532 H   0  0  0  0  0  0  0  0  0  0  0  0
   19.9676   19.0828   23.1483 C   0  0  0  0  0  0  0  0  0  0  0  0
   20.7273   19.7362   22.6970 H   0  0  0  0  0  0  0  0  0  0  0  0
   20.4456   18.1097   23.3225 H   0  0  0  0  0  0  0  0  0  0  0  0
   18.7790   18.9215   22.1698 C   0  0  0  0  0  0  0  0  0  0  0  0
   18.2821   19.8937   22.0518 H   0  0  0  0  0  0  0  0  0  0  0  0
   18.0340   18.2387   22.5995 H   0  0  0  0  0  0  0  0  0  0  0  0
   19.2097   18.4108   20.7777 C   0  0  2  0  0  0  0  0  0  0  0  0
   19.9682   19.0931   20.3816 H   0  0  0  0  0  0  0  0  0  0  0  0
   18.0117   18.4094   19.8149 C   0  0  0  0  0  0  0  0  0  0  0  0
   18.3185   18.0822   18.8137 H   0  0  0  0  0  0  0  0  0  0  0  0
   17.2201   17.7362   20.1670 H   0  0  0  0  0  0  0  0  0  0  0  0
   17.5866   19.4164   19.7199 H   0  0  0  0  0  0  0  0  0  0  0  0
   19.8414   17.0468   20.8349 N   0  3  0  0  0  0  0  0  0  0  0  0
   20.6680   17.0429   21.4385 H   0  0  0  0  0  0  0  0  0  0  0  0
   20.1383   16.7329   19.9065 H   0  0  0  0  0  0  0  0  0  0  0  0
   19.1885   16.3485   21.2006 H   0  0  0  0  0  0  0  0  0  0  0  0
  1  2  1  0  0  0  0
  1  3  1  0  0  0  0
  1  4  1  0  0  0  0
  1  5  1  0  0  0  0
  5  6  1  0  0  0  0
  5  7  1  0  0  0  0
  5  8  1  0  0  0  0
  8  9  1  0  0  0  0
  8 10  1  0  0  0  0
  8 11  1  0  0  0  0
 11 12  1  0  0  0  0
 11 13  1  0  0  0  0
 11 14  1  0  0  0  0
 14 15  1  0  0  0  0
 14 16  1  0  0  0  0
 14 17  1  0  0  0  0
 17 18  1  0  0  0  0
 17 19  1  0  0  0  0
 17 20  1  0  0  0  0
 20 21  1  0  0  0  0
 20 22  1  0  0  0  0
 22 23  1  0  0  0  0
 22 24  1  0  0  0  0
 22 25  1  0  0  0  0
 20 26  1  0  0  0  0
 26 27  1  0  0  0  0
 26 28  1  0  0  0  0
 26 29  1  0  0  0  0
M  END
> <VConfSearch Rank>
741

> <Conf_Id>
164

> <Delta U+W>
0.000

> <U+W>
-27.826

> <U>
23.963

> <W>
-51.789

> <W(PB)>
-54.342

> <W(SA)>
2.554

> <Valence>
3.166

> <Coulomb>
19.734

> <VdW>
1.062

> <VdW6>
-7.938

> <VdW12>
9.001

> <Bond>
0.188

> <Angle>
0.880

> <Pdih>
2.098

> <Idih>
0.000

> <Tether>
0.000

$$$$
VeraChem MOL file


 29 28  0  0  0  0  0  0  0  0999 V2000     
   21.8893   18.7669   27.8763 C   0  0  0  0  0  0  0  0  0  0  0  0
   20.9416   18.7619   28.4305 H   0  0  0  0  0  0  0  0  0  0  0  0
   22.1984   17.7254   27.7182 H   0  0  0  0  0  0  0  0  0  0  0  0
   22.6461   19.2510   28.5072 H   0  0  0  0  0  0  0  0  0  0  0  0
   21.7423   19.5119   26.5328 C   0  0  0  0  0  0  0  0  0  0  0  0
   22.7129   19.5296   26.0176 H   0  0  0  0  0  0  0  0  0  0  0  0
   21.4658   20.5582   26.7244 H   0  0  0  0  0  0  0  0  0  0  0  0
   20.6820   18.8501   25.6250 C   0  0  0  0  0  0  0  0  0  0  0  0
   20.9615   17.8040   25.4384 H   0  0  0  0  0  0  0  0  0  0  0  0
   19.7142   18.8328   26.1450 H   0  0  0  0  0  0  0  0  0  0  0  0
   20.5320   19.5934   24.2785 C   0  0  0  0  0  0  0  0  0  0  0  0
   21.5002   19.6101   23.7589 H   0  0  0  0  0  0  0  0  0  0  0  0
   20.2540   20.6397   24.4669 H   0  0  0  0  0  0  0  0  0  0  0  0
   19.4708   18.9313   23.3708 C   0  0  0  0  0  0  0  0  0  0  0  0
   19.7534   17.8849   23.1960 H   0  0  0  0  0  0  0  0  0  0  0  0
   18.5016   18.9193   23.8886 H   0  0  0  0  0  0  0  0  0  0  0  0
   19.3258   19.6752   22.0205 C   0  0  0  0  0  0  0  0  0  0  0  0
   20.2753   19.6327   21.4704 H   0  0  0  0  0  0  0  0  0  0  0  0
   19.1321   20.7364   22.2253 H   0  0  0  0  0  0  0  0  0  0  0  0
   18.1843   19.1333   21.1301 C   0  0  2  0  0  0  0  0  0  0  0  0
   17.2583   19.1464   21.7132 H   0  0  0  0  0  0  0  0  0  0  0  0
   18.4465   17.6898   20.6642 C   0  0  0  0  0  0  0  0  0  0  0  0
   19.4001   17.6133   20.1271 H   0  0  0  0  0  0  0  0  0  0  0  0
   18.4723   16.9954   21.5118 H   0  0  0  0  0  0  0  0  0  0  0  0
   17.6492   17.3502   19.9917 H   0  0  0  0  0  0  0  0  0  0  0  0
   17.9512   20.0276   19.9442 N   0  3  0  0  0  0  0  0  0  0  0  0
   17.1697   19.6944   19.3724 H   0  0  0  0  0  0  0  0  0  0  0  0
   18.7760   20.0696   19.3395 H   0  0  0  0  0  0  0  0  0  0  0  0
   17.7312   20.9856   20.2318 H   0  0  0  0  0  0  0  0  0  0  0  0
  1  2  1  0  0  0  0
  1  3  1  0  0  0  0
  1  4  1  0  0  0  0
  1  5  1  0  0  0  0
  5  6  1  0  0  0  0
  5  7  1  0  0  0  0
  5  8  1  0  0  0  0
  8  9  1  0  0  0  0
  8 10  1  0  0  0  0
  8 11  1  0  0  0  0
 11 12  1  0  0  0  0
 11 13  1  0  0  0  0
 11 14  1  0  0  0  0
 14 15  1  0  0  0  0
 14 16  1  0  0  0  0
 14 17  1  0  0  0  0
 17 18  1  0  0  0  0
 17 19  1  0  0  0  0
 17 20  1  0  0  0  0
 20 21  1  0  0  0  0
 20 22  1  0  0  0  0
 22 23  1  0  0  0  0
 22 24  1  0  0  0  0
 22 25  1  0  0  0  0
 20 26  1  0  0  0  0
 26 27  1  0  0  0  0
 26 28  1  0  0  0  0
 26 29  1  0  0  0  0
M  END
> <VConfSearch Rank>
742

> <Conf_Id>
58

> <Delta U+W>
0.412

> <U+W>
-27.414

> <U>
24.279

> <W>
-51.694

> <W(PB)>
-54.271

> <W(SA)>
2.577

> <Valence>
3.709

> <Coulomb>
19.380

> <VdW>
1.191

> <VdW6>
-8.093

> <VdW12>
9.284

> <Bond>
0.200

> <Angle>
1.161

> <Pdih>
2.348

> <Idih>
0.000

> <Tether>
0.000

$$$$
VeraChem MOL file


 29 28  0  0  0  0  0  0  0  0999 V2000     
   23.9725   20.2996   21.8654 C   0  0  0  0  0  0  0  0  0  0  0  0
   24.3289   19.2614   21.8866 H   0  0  0  0  0  0  0  0  0  0  0  0
   23.5823   20.5067   20.8603 H   0  0  0  0  0  0  0  0  0  0  0  0
   24.8360   20.9560   22.0337 H   0  0  0  0  0  0  0  0  0  0  0  0
   22.8904   20.5364   22.9400 C   0  0  0  0  0  0  0  0  0  0  0  0
   22.5782   21.5899   22.9171 H   0  0  0  0  0  0  0  0  0  0  0  0
   23.3190   20.3542   23.9354 H   0  0  0  0  0  0  0  0  0  0  0  0
   21.6625   19.6240   22.7260 C   0  0  0  0  0  0  0  0  0  0  0  0
   21.2388   19.8082   21.7290 H   0  0  0  0  0  0  0  0  0  0  0  0
   21.9799   18.5722   22.7472 H   0  0  0  0  0  0  0  0  0  0  0  0
   20.5768   19.8581   23.8005 C   0  0  0  0  0  0  0  0  0  0  0  0
   20.2608   20.9103   23.7787 H   0  0  0  0  0  0  0  0  0  0  0  0
   21.0017   19.6741   24.7970 H   0  0  0  0  0  0  0  0  0  0  0  0
   19.3486   18.9450   23.5863 C   0  0  0  0  0  0  0  0  0  0  0  0
   18.9299   19.1327   22.5888 H   0  0  0  0  0  0  0  0  0  0  0  0
   19.6751   17.8970   23.6048 H   0  0  0  0  0  0  0  0  0  0  0  0
   18.2643   19.1823   24.6696 C   0  0  0  0  0  0  0  0  0  0  0  0
   17.9840   20.2439   24.6725 H   0  0  0  0  0  0  0  0  0  0  0  0
   18.6914   18.9801   25.6608 H   0  0  0  0  0  0  0  0  0  0  0  0
   16.9788   18.3384   24.5009 C   0  0  2  0  0  0  0  0  0  0  0  0
   16.2942   18.6246   25.3053 H   0  0  0  0  0  0  0  0  0  0  0  0
   17.2538   16.8308   24.6388 C   0  0  0  0  0  0  0  0  0  0  0  0
   16.3118   16.2690   24.6519 H   0  0  0  0  0  0  0  0  0  0  0  0
   17.8584   16.4508   23.8068 H   0  0  0  0  0  0  0  0  0  0  0  0
   17.7827   16.6150   25.5755 H   0  0  0  0  0  0  0  0  0  0  0  0
   16.2595   18.6391   23.2149 N   0  3  0  0  0  0  0  0  0  0  0  0
   16.0330   19.6346   23.1354 H   0  0  0  0  0  0  0  0  0  0  0  0
   15.3802   18.1185   23.1476 H   0  0  0  0  0  0  0  0  0  0  0  0
   16.8289   18.3864   22.4034 H   0  0  0  0  0  0  0  0  0  0  0  0
  1  2  1  0  0  0  0
  1  3  1  0  0  0  0
  1  4  1  0  0  0  0
  1  5  1  0  0  0  0
  5  6  1  0  0  0  0
  5  7  1  0  0  0  0
  5  8  1  0  0  0  0
  8  9  1  0  0  0  0
  8 10  1  0  0  0  0
  8 11  1  0  0  0  0
 11 12  1  0  0  0  0
 11 13  1  0  0  0  0
 11 14  1  0  0  0  0
 14 15  1  0  0  0  0
 14 16  1  0  0  0  0
 14 17  1  0  0  0  0
 17 18  1  0  0  0  0
 17 19  1  0  0  0  0
 17 20  1  0  0  0  0
 20 21  1  0  0  0  0
 20 22  1  0  0  0  0
 22 23  1  0  0  0  0
 22 24  1  0  0  0  0
 22 25  1  0  0  0  0
 20 26  1  0  0  0  0
 26 27  1  0  0  0  0
 26 28  1  0  0  0  0
 26 29  1  0  0  0  0
M  END
> <VConfSearch Rank>
743

> <Conf_Id>
137

> <Delta U+W>
0.280

> <U+W>
-27.546

> <U>
24.513

> <W>
-52.059

> <W(PB)>
-54.556

> <W(SA)>
2.497

> <Valence>
3.677

> <Coulomb>
19.662

> <VdW>
1.174

> <VdW6>
-8.569

> <VdW12>
9.743

> <Bond>
0.224

> <Angle>
1.211

> <Pdih>
2.243

> <Idih>
0.000

> <Tether>
0.000

$$$$
VeraChem MOL file


 29 28  0  0  0  0  0  0  0  0999 V2000     
   16.3847   16.4672   24.7114 C   0  0  0  0  0  0  0  0  0  0  0  0
   16.9848   15.7217   24.1734 H   0  0  0  0  0  0  0  0  0  0  0  0
   16.6715   16.4375   25.7706 H   0  0  0  0  0  0  0  0  0  0  0  0
   15.3311   16.1677   24.6389 H   0  0  0  0  0  0  0  0  0  0  0  0
   16.5921   17.8777   24.1202 C   0  0  0  0  0  0  0  0  0  0  0  0
   15.9534   18.5943   24.6554 H   0  0  0  0  0  0  0  0  0  0  0  0
   16.2662   17.8848   23.0705 H   0  0  0  0  0  0  0  0  0  0  0  0
   18.0680   18.3245   24.2106 C   0  0  0  0  0  0  0  0  0  0  0  0
   18.3881   18.3181   25.2616 H   0  0  0  0  0  0  0  0  0  0  0  0
   18.6941   17.5949   23.6811 H   0  0  0  0  0  0  0  0  0  0  0  0
   18.2772   19.7373   23.6138 C   0  0  0  0  0  0  0  0  0  0  0  0
   17.5797   20.4343   24.0987 H   0  0  0  0  0  0  0  0  0  0  0  0
   18.0152   19.7324   22.5468 H   0  0  0  0  0  0  0  0  0  0  0  0
   19.7153   20.2836   23.7930 C   0  0  0  0  0  0  0  0  0  0  0  0
   19.7163   21.3344   23.4766 H   0  0  0  0  0  0  0  0  0  0  0  0
   19.9794   20.2809   24.8596 H   0  0  0  0  0  0  0  0  0  0  0  0
   20.7822   19.4973   22.9872 C   0  0  0  0  0  0  0  0  0  0  0  0
   20.5239   19.5090   21.9200 H   0  0  0  0  0  0  0  0  0  0  0  0
   20.7645   18.4467   23.3009 H   0  0  0  0  0  0  0  0  0  0  0  0
   22.2222   20.0264   23.1792 C   0  0  2  0  0  0  0  0  0  0  0  0
   22.4343   20.0632   24.2522 H   0  0  0  0  0  0  0  0  0  0  0  0
   22.4073   21.4391   22.5961 C   0  0  0  0  0  0  0  0  0  0  0  0
   22.1392   21.4677   21.5326 H   0  0  0  0  0  0  0  0  0  0  0  0
   21.7919   22.1748   23.1262 H   0  0  0  0  0  0  0  0  0  0  0  0
   23.4512   21.7624   22.6920 H   0  0  0  0  0  0  0  0  0  0  0  0
   23.2292   19.0840   22.5806 N   0  3  0  0  0  0  0  0  0  0  0  0
   23.1562   18.1463   22.9861 H   0  0  0  0  0  0  0  0  0  0  0  0
   24.1869   19.4103   22.7390 H   0  0  0  0  0  0  0  0  0  0  0  0
   23.1011   18.9929   21.5691 H   0  0  0  0  0  0  0  0  0  0  0  0
  1  2  1  0  0  0  0
  1  3  1  0  0  0  0
  1  4  1  0  0  0  0
  1  5  1  0  0  0  0
  5  6  1  0  0  0  0
  5  7  1  0  0  0  0
  5  8  1  0  0  0  0
  8  9  1  0  0  0  0
  8 10  1  0  0  0  0
  8 11  1  0  0  0  0
 11 12  1  0  0  0  0
 11 13  1  0  0  0  0
 11 14  1  0  0  0  0
 14 15  1  0  0  0  0
 14 16  1  0  0  0  0
 14 17  1  0  0  0  0
 17 18  1  0  0  0  0
 17 19  1  0  0  0  0
 17 20  1  0  0  0  0
 20 21  1  0  0  0  0
 20 22  1  0  0  0  0
 22 23  1  0  0  0  0
 22 24  1  0  0  0  0
 22 25  1  0  0  0  0
 20 26  1  0  0  0  0
 26 27  1  0  0  0  0
 26 28  1  0  0  0  0
 26 29  1  0  0  0  0
M  END
> <VConfSearch Rank>
744

> <Conf_Id>
40

> <Delta U+W>
1.128

> <U+W>
-26.698

> <U>
25.442

> <W>
-52.140

> <W(PB)>
-54.658

> <W(SA)>
2.519

> <Valence>
4.343

> <Coulomb>
19.740

> <VdW>
1.360

> <VdW6>
-8.739

> <VdW12>
10.099

> <Bond>
0.251

> <Angle>
1.483

> <Pdih>
2.608

> <Idih>
0.000

> <Tether>
0.000

$$$$
VeraChem MOL file


 29 28  0  0  0  0  0  0  0  0999 V2000     
   17.5330   17.2522   26.7529 C   0  0  0  0  0  0  0  0  0  0  0  0
   17.0391   16.8330   25.8678 H   0  0  0  0  0  0  0  0  0  0  0  0
   18.3617   16.5885   27.0320 H   0  0  0  0  0  0  0  0  0  0  0  0
   16.8034   17.2410   27.5730 H   0  0  0  0  0  0  0  0  0  0  0  0
   18.0356   18.6912   26.4968 C   0  0  0  0  0  0  0  0  0  0  0  0
   18.4024   19.1098   27.4444 H   0  0  0  0  0  0  0  0  0  0  0  0
   17.1952   19.3270   26.1850 H   0  0  0  0  0  0  0  0  0  0  0  0
   19.1711   18.7722   25.4478 C   0  0  0  0  0  0  0  0  0  0  0  0
   19.5503   19.8018   25.4403 H   0  0  0  0  0  0  0  0  0  0  0  0
   20.0083   18.1351   25.7643 H   0  0  0  0  0  0  0  0  0  0  0  0
   18.7203   18.3733   24.0193 C   0  0  0  0  0  0  0  0  0  0  0  0
   17.8869   19.0140   23.7001 H   0  0  0  0  0  0  0  0  0  0  0  0
   18.3322   17.3469   24.0345 H   0  0  0  0  0  0  0  0  0  0  0  0
   19.8562   18.4367   22.9683 C   0  0  0  0  0  0  0  0  0  0  0  0
   20.6972   17.8110   23.2981 H   0  0  0  0  0  0  0  0  0  0  0  0
   19.4821   17.9865   22.0396 H   0  0  0  0  0  0  0  0  0  0  0  0
   20.3561   19.8758   22.6788 C   0  0  0  0  0  0  0  0  0  0  0  0
   20.7556   20.3147   23.6011 H   0  0  0  0  0  0  0  0  0  0  0  0
   19.5127   20.5071   22.3692 H   0  0  0  0  0  0  0  0  0  0  0  0
   21.4619   19.9233   21.6018 C   0  0  2  0  0  0  0  0  0  0  0  0
   22.2737   19.2592   21.9142 H   0  0  0  0  0  0  0  0  0  0  0  0
   22.0250   21.3480   21.4768 C   0  0  0  0  0  0  0  0  0  0  0  0
   22.8352   21.3819   20.7380 H   0  0  0  0  0  0  0  0  0  0  0  0
   21.2473   22.0562   21.1642 H   0  0  0  0  0  0  0  0  0  0  0  0
   22.4345   21.6912   22.4350 H   0  0  0  0  0  0  0  0  0  0  0  0
   20.9866   19.4274   20.2634 N   0  3  0  0  0  0  0  0  0  0  0  0
   20.2186   20.0008   19.9045 H   0  0  0  0  0  0  0  0  0  0  0  0
   20.6511   18.4621   20.3197 H   0  0  0  0  0  0  0  0  0  0  0  0
   21.7378   19.4503   19.5678 H   0  0  0  0  0  0  0  0  0  0  0  0
  1  2  1  0  0  0  0
  1  3  1  0  0  0  0
  1  4  1  0  0  0  0
  1  5  1  0  0  0  0
  5  6  1  0  0  0  0
  5  7  1  0  0  0  0
  5  8  1  0  0  0  0
  8  9  1  0  0  0  0
  8 10  1  0  0  0  0
  8 11  1  0  0  0  0
 11 12  1  0  0  0  0
 11 13  1  0  0  0  0
 11 14  1  0  0  0  0
 14 15  1  0  0  0  0
 14 16  1  0  0  0  0
 14 17  1  0  0  0  0
 17 18  1  0  0  0  0
 17 19  1  0  0  0  0
 17 20  1  0  0  0  0
 20 21  1  0  0  0  0
 20 22  1  0  0  0  0
 22 23  1  0  0  0  0
 22 24  1  0  0  0  0
 22 25  1  0  0  0  0
 20 26  1  0  0  0  0
 26 27  1  0  0  0  0
 26 28  1  0  0  0  0
 26 29  1  0  0  0  0
M  END
> <VConfSearch Rank>
745

> <Conf_Id>
134

> <Delta U+W>
1.228

> <U+W>
-26.598

> <U>
25.451

> <W>
-52.048

> <W(PB)>
-54.539

> <W(SA)>
2.490

> <Valence>
4.319

> <Coulomb>
19.732

> <VdW>
1.400

> <VdW6>
-9.173

> <VdW12>
10.573

> <Bond>
0.281

> <Angle>
1.459

> <Pdih>
2.580

> <Idih>
0.000

> <Tether>
0.000

$$$$
VeraChem MOL file


 29 28  0  0  0  0  0  0  0  0999 V2000     
   16.3513   20.2120   21.1444 C   0  0  0  0  0  0  0  0  0  0  0  0
   17.1213   20.2473   20.3641 H   0  0  0  0  0  0  0  0  0  0  0  0
   15.9552   19.1893   21.1919 H   0  0  0  0  0  0  0  0  0  0  0  0
   15.5340   20.8740   20.8304 H   0  0  0  0  0  0  0  0  0  0  0  0
   16.9094   20.6560   22.5156 C   0  0  0  0  0  0  0  0  0  0  0  0
   16.0763   20.7270   23.2288 H   0  0  0  0  0  0  0  0  0  0  0  0
   17.3309   21.6677   22.4339 H   0  0  0  0  0  0  0  0  0  0  0  0
   17.9732   19.6904   23.0919 C   0  0  0  0  0  0  0  0  0  0  0  0
   18.2046   20.0132   24.1151 H   0  0  0  0  0  0  0  0  0  0  0  0
   17.5464   18.6814   23.1736 H   0  0  0  0  0  0  0  0  0  0  0  0
   19.2780   19.6410   22.2569 C   0  0  0  0  0  0  0  0  0  0  0  0
   19.7054   20.6499   22.1767 H   0  0  0  0  0  0  0  0  0  0  0  0
   19.0447   19.3220   21.2330 H   0  0  0  0  0  0  0  0  0  0  0  0
   20.3404   18.6705   22.8294 C   0  0  0  0  0  0  0  0  0  0  0  0
   19.9087   17.6628   22.8909 H   0  0  0  0  0  0  0  0  0  0  0  0
   21.1744   18.6087   22.1167 H   0  0  0  0  0  0  0  0  0  0  0  0
   20.8920   19.1027   24.2126 C   0  0  0  0  0  0  0  0  0  0  0  0
   20.1042   19.0308   24.9730 H   0  0  0  0  0  0  0  0  0  0  0  0
   21.1815   20.1605   24.1595 H   0  0  0  0  0  0  0  0  0  0  0  0
   22.1183   18.2819   24.6722 C   0  0  2  0  0  0  0  0  0  0  0  0
   22.8805   18.3355   23.8888 H   0  0  0  0  0  0  0  0  0  0  0  0
   21.7677   16.8022   24.9104 C   0  0  0  0  0  0  0  0  0  0  0  0
   20.9629   16.6990   25.6489 H   0  0  0  0  0  0  0  0  0  0  0  0
   21.4475   16.3142   23.9825 H   0  0  0  0  0  0  0  0  0  0  0  0
   22.6419   16.2528   25.2809 H   0  0  0  0  0  0  0  0  0  0  0  0
   22.7370   18.8756   25.9071 N   0  3  0  0  0  0  0  0  0  0  0  0
   23.0179   19.8490   25.7574 H   0  0  0  0  0  0  0  0  0  0  0  0
   23.5733   18.3579   26.1922 H   0  0  0  0  0  0  0  0  0  0  0  0
   22.0851   18.8612   26.6962 H   0  0  0  0  0  0  0  0  0  0  0  0
  1  2  1  0  0  0  0
  1  3  1  0  0  0  0
  1  4  1  0  0  0  0
  1  5  1  0  0  0  0
  5  6  1  0  0  0  0
  5  7  1  0  0  0  0
  5  8  1  0  0  0  0
  8  9  1  0  0  0  0
  8 10  1  0  0  0  0
  8 11  1  0  0  0  0
 11 12  1  0  0  0  0
 11 13  1  0  0  0  0
 11 14  1  0  0  0  0
 14 15  1  0  0  0  0
 14 16  1  0  0  0  0
 14 17  1  0  0  0  0
 17 18  1  0  0  0  0
 17 19  1  0  0  0  0
 17 20  1  0  0  0  0
 20 21  1  0  0  0  0
 20 22  1  0  0  0  0
 22 23  1  0  0  0  0
 22 24  1  0  0  0  0
 22 25  1  0  0  0  0
 20 26  1  0  0  0  0
 26 27  1  0  0  0  0
 26 28  1  0  0  0  0
 26 29  1  0  0  0  0
M  END
> <VConfSearch Rank>
746

> <Conf_Id>
73

> <Delta U+W>
1.580

> <U+W>
-26.246

> <U>
25.821

> <W>
-52.067

> <W(PB)>
-54.581

> <W(SA)>
2.514

> <Valence>
4.779

> <Coulomb>
19.614

> <VdW>
1.428

> <VdW6>
-9.390

> <VdW12>
10.818

> <Bond>
0.283

> <Angle>
1.640

> <Pdih>
2.856

> <Idih>
0.000

> <Tether>
0.000

$$$$
VeraChem MOL file


 29 28  0  0  0  0  0  0  0  0999 V2000     
   18.5622   21.5913   20.0493 C   0  0  0  0  0  0  0  0  0  0  0  0
   17.5611   21.3114   20.4023 H   0  0  0  0  0  0  0  0  0  0  0  0
   18.4851   22.5704   19.5589 H   0  0  0  0  0  0  0  0  0  0  0  0
   18.8753   20.8594   19.2933 H   0  0  0  0  0  0  0  0  0  0  0  0
   19.5679   21.6453   21.2187 C   0  0  0  0  0  0  0  0  0  0  0  0
   19.2462   22.4082   21.9415 H   0  0  0  0  0  0  0  0  0  0  0  0
   20.5500   21.9614   20.8400 H   0  0  0  0  0  0  0  0  0  0  0  0
   19.6963   20.2782   21.9264 C   0  0  0  0  0  0  0  0  0  0  0  0
   18.7073   19.9708   22.2900 H   0  0  0  0  0  0  0  0  0  0  0  0
   20.0206   19.5199   21.2005 H   0  0  0  0  0  0  0  0  0  0  0  0
   20.7011   20.3331   23.1023 C   0  0  0  0  0  0  0  0  0  0  0  0
   20.3486   21.0479   23.8586 H   0  0  0  0  0  0  0  0  0  0  0  0
   21.6598   20.7230   22.7333 H   0  0  0  0  0  0  0  0  0  0  0  0
   20.9570   18.9580   23.7671 C   0  0  0  0  0  0  0  0  0  0  0  0
   21.3123   18.2447   23.0105 H   0  0  0  0  0  0  0  0  0  0  0  0
   21.7763   19.0776   24.4880 H   0  0  0  0  0  0  0  0  0  0  0  0
   19.7130   18.3780   24.4885 C   0  0  0  0  0  0  0  0  0  0  0  0
   18.9050   18.2355   23.7605 H   0  0  0  0  0  0  0  0  0  0  0  0
   19.3446   19.0979   25.2313 H   0  0  0  0  0  0  0  0  0  0  0  0
   19.9925   17.0227   25.1741 C   0  0  2  0  0  0  0  0  0  0  0  0
   20.3923   16.3344   24.4231 H   0  0  0  0  0  0  0  0  0  0  0  0
   18.6894   16.4265   25.7300 C   0  0  0  0  0  0  0  0  0  0  0  0
   17.9524   16.2851   24.9295 H   0  0  0  0  0  0  0  0  0  0  0  0
   18.8748   15.4470   26.1878 H   0  0  0  0  0  0  0  0  0  0  0  0
   18.2461   17.0812   26.4908 H   0  0  0  0  0  0  0  0  0  0  0  0
   21.0274   17.1276   26.2609 N   0  3  0  0  0  0  0  0  0  0  0  0
   21.2114   16.2168   26.6912 H   0  0  0  0  0  0  0  0  0  0  0  0
   20.7243   17.7624   27.0044 H   0  0  0  0  0  0  0  0  0  0  0  0
   21.9170   17.4799   25.8977 H   0  0  0  0  0  0  0  0  0  0  0  0
  1  2  1  0  0  0  0
  1  3  1  0  0  0  0
  1  4  1  0  0  0  0
  1  5  1  0  0  0  0
  5  6  1  0  0  0  0
  5  7  1  0  0  0  0
  5  8  1  0  0  0  0
  8  9  1  0  0  0  0
  8 10  1  0  0  0  0
  8 11  1  0  0  0  0
 11 12  1  0  0  0  0
 11 13  1  0  0  0  0
 11 14  1  0  0  0  0
 14 15  1  0  0  0  0
 14 16  1  0  0  0  0
 14 17  1  0  0  0  0
 17 18  1  0  0  0  0
 17 19  1  0  0  0  0
 17 20  1  0  0  0  0
 20 21  1  0  0  0  0
 20 22  1  0  0  0  0
 22 23  1  0  0  0  0
 22 24  1  0  0  0  0
 22 25  1  0  0  0  0
 20 26  1  0  0  0  0
 26 27  1  0  0  0  0
 26 28  1  0  0  0  0
 26 29  1  0  0  0  0
M  END
> <VConfSearch Rank>
747

> <Conf_Id>
111

> <Delta U+W>
0.580

> <U+W>
-27.246

> <U>
24.710

> <W>
-51.957

> <W(PB)>
-54.511

> <W(SA)>
2.555

> <Valence>
3.735

> <Coulomb>
19.760

> <VdW>
1.216

> <VdW6>
-8.624

> <VdW12>
9.840

> <Bond>
0.236

> <Angle>
1.168

> <Pdih>
2.330

> <Idih>
0.000

> <Tether>
0.000

$$$$
VeraChem MOL file


 29 28  0  0  0  0  0  0  0  0999 V2000     
   21.9359   21.5541   20.6580 C   0  0  0  0  0  0  0  0  0  0  0  0
   21.2438   22.3981   20.7762 H   0  0  0  0  0  0  0  0  0  0  0  0
   22.6545   21.5822   21.4875 H   0  0  0  0  0  0  0  0  0  0  0  0
   22.4932   21.7034   19.7241 H   0  0  0  0  0  0  0  0  0  0  0  0
   21.1741   20.2122   20.6292 C   0  0  0  0  0  0  0  0  0  0  0  0
   21.8881   19.3906   20.4770 H   0  0  0  0  0  0  0  0  0  0  0  0
   20.4892   20.2006   19.7698 H   0  0  0  0  0  0  0  0  0  0  0  0
   20.3798   19.9774   21.9331 C   0  0  0  0  0  0  0  0  0  0  0  0
   21.0735   20.0002   22.7838 H   0  0  0  0  0  0  0  0  0  0  0  0
   19.6664   20.7999   22.0800 H   0  0  0  0  0  0  0  0  0  0  0  0
   19.6188   18.6302   21.9071 C   0  0  0  0  0  0  0  0  0  0  0  0
   20.3345   17.8019   21.8125 H   0  0  0  0  0  0  0  0  0  0  0  0
   18.9853   18.5941   21.0100 H   0  0  0  0  0  0  0  0  0  0  0  0
   18.7231   18.4033   23.1496 C   0  0  0  0  0  0  0  0  0  0  0  0
   17.9912   19.2190   23.2170 H   0  0  0  0  0  0  0  0  0  0  0  0
   18.1469   17.4796   23.0000 H   0  0  0  0  0  0  0  0  0  0  0  0
   19.5229   18.2907   24.4730 C   0  0  0  0  0  0  0  0  0  0  0  0
   19.9946   19.2523   24.7116 H   0  0  0  0  0  0  0  0  0  0  0  0
   20.3375   17.5685   24.3296 H   0  0  0  0  0  0  0  0  0  0  0  0
   18.6670   17.8313   25.6752 C   0  0  2  0  0  0  0  0  0  0  0  0
   18.1766   16.8903   25.4077 H   0  0  0  0  0  0  0  0  0  0  0  0
   17.5817   18.8601   26.0396 C   0  0  0  0  0  0  0  0  0  0  0  0
   18.0222   19.8406   26.2593 H   0  0  0  0  0  0  0  0  0  0  0  0
   16.8590   18.9826   25.2246 H   0  0  0  0  0  0  0  0  0  0  0  0
   17.0210   18.5333   26.9239 H   0  0  0  0  0  0  0  0  0  0  0  0
   19.5271   17.5358   26.8724 N   0  3  0  0  0  0  0  0  0  0  0  0
   20.2302   16.8207   26.6643 H   0  0  0  0  0  0  0  0  0  0  0  0
   18.9680   17.1932   27.6590 H   0  0  0  0  0  0  0  0  0  0  0  0
   20.0237   18.3719   27.1919 H   0  0  0  0  0  0  0  0  0  0  0  0
  1  2  1  0  0  0  0
  1  3  1  0  0  0  0
  1  4  1  0  0  0  0
  1  5  1  0  0  0  0
  5  6  1  0  0  0  0
  5  7  1  0  0  0  0
  5  8  1  0  0  0  0
  8  9  1  0  0  0  0
  8 10  1  0  0  0  0
  8 11  1  0  0  0  0
 11 12  1  0  0  0  0
 11 13  1  0  0  0  0
 11 14  1  0  0  0  0
 14 15  1  0  0  0  0
 14 16  1  0  0  0  0
 14 17  1  0  0  0  0
 17 18  1  0  0  0  0
 17 19  1  0  0  0  0
 17 20  1  0  0  0  0
 20 21  1  0  0  0  0
 20 22  1  0  0  0  0
 22 23  1  0  0  0  0
 22 24  1  0  0  0  0
 22 25  1  0  0  0  0
 20 26  1  0  0  0  0
 26 27  1  0  0  0  0
 26 28  1  0  0  0  0
 26 29  1  0  0  0  0
M  END
> <VConfSearch Rank>
748

> <Conf_Id>
39

> <Delta U+W>
0.965

> <U+W>
-26.861

> <U>
25.129

> <W>
-51.990

> <W(PB)>
-54.526

> <W(SA)>
2.536

> <Valence>
4.206

> <Coulomb>
19.678

> <VdW>
1.245

> <VdW6>
-8.834

> <VdW12>
10.079

> <Bond>
0.240

> <Angle>
1.353

> <Pdih>
2.613

> <Idih>
0.000

> <Tether>
0.000

$$$$
VeraChem MOL file


 29 28  0  0  0  0  0  0  0  0999 V2000     
   22.9630   18.2223   20.8590 C   0  0  0  0  0  0  0  0  0  0  0  0
   22.8720   19.2169   20.4036 H   0  0  0  0  0  0  0  0  0  0  0  0
   23.4721   18.3307   21.8244 H   0  0  0  0  0  0  0  0  0  0  0  0
   23.6097   17.6151   20.2124 H   0  0  0  0  0  0  0  0  0  0  0  0
   21.5780   17.5547   21.0174 C   0  0  0  0  0  0  0  0  0  0  0  0
   21.6917   16.5773   21.5066 H   0  0  0  0  0  0  0  0  0  0  0  0
   21.1684   17.3521   20.0179 H   0  0  0  0  0  0  0  0  0  0  0  0
   20.5616   18.4185   21.8029 C   0  0  0  0  0  0  0  0  0  0  0  0
   20.4509   19.3938   21.3093 H   0  0  0  0  0  0  0  0  0  0  0  0
   19.5823   17.9270   21.7421 H   0  0  0  0  0  0  0  0  0  0  0  0
   20.9471   18.6248   23.2899 C   0  0  0  0  0  0  0  0  0  0  0  0
   21.9304   19.1090   23.3476 H   0  0  0  0  0  0  0  0  0  0  0  0
   21.0533   17.6496   23.7845 H   0  0  0  0  0  0  0  0  0  0  0  0
   19.9384   19.4988   24.0756 C   0  0  0  0  0  0  0  0  0  0  0  0
   20.3643   19.7014   25.0669 H   0  0  0  0  0  0  0  0  0  0  0  0
   19.8409   20.4713   23.5751 H   0  0  0  0  0  0  0  0  0  0  0  0
   18.5422   18.8376   24.2376 C   0  0  0  0  0  0  0  0  0  0  0  0
   18.6670   17.8213   24.6337 H   0  0  0  0  0  0  0  0  0  0  0  0
   18.0693   18.7248   23.2543 H   0  0  0  0  0  0  0  0  0  0  0  0
   17.5640   19.6051   25.1580 C   0  0  2  0  0  0  0  0  0  0  0  0
   16.6318   19.0328   25.1909 H   0  0  0  0  0  0  0  0  0  0  0  0
   17.2328   21.0040   24.6097 C   0  0  0  0  0  0  0  0  0  0  0  0
   18.1064   21.6662   24.6344 H   0  0  0  0  0  0  0  0  0  0  0  0
   16.8769   20.9424   23.5738 H   0  0  0  0  0  0  0  0  0  0  0  0
   16.4403   21.4722   25.2064 H   0  0  0  0  0  0  0  0  0  0  0  0
   18.0529   19.6850   26.5781 N   0  3  0  0  0  0  0  0  0  0  0  0
   18.2351   18.7546   26.9652 H   0  0  0  0  0  0  0  0  0  0  0  0
   17.3653   20.1400   27.1853 H   0  0  0  0  0  0  0  0  0  0  0  0
   18.9216   20.2213   26.6422 H   0  0  0  0  0  0  0  0  0  0  0  0
  1  2  1  0  0  0  0
  1  3  1  0  0  0  0
  1  4  1  0  0  0  0
  1  5  1  0  0  0  0
  5  6  1  0  0  0  0
  5  7  1  0  0  0  0
  5  8  1  0  0  0  0
  8  9  1  0  0  0  0
  8 10  1  0  0  0  0
  8 11  1  0  0  0  0
 11 12  1  0  0  0  0
 11 13  1  0  0  0  0
 11 14  1  0  0  0  0
 14 15  1  0  0  0  0
 14 16  1  0  0  0  0
 14 17  1  0  0  0  0
 17 18  1  0  0  0  0
 17 19  1  0  0  0  0
 17 20  1  0  0  0  0
 20 21  1  0  0  0  0
 20 22  1  0  0  0  0
 22 23  1  0  0  0  0
 22 24  1  0  0  0  0
 22 25  1  0  0  0  0
 20 26  1  0  0  0  0
 26 27  1  0  0  0  0
 26 28  1  0  0  0  0
 26 29  1  0  0  0  0
M  END
> <VConfSearch Rank>
749

> <Conf_Id>
155

> <Delta U+W>
1.624

> <U+W>
-26.202

> <U>
25.894

> <W>
-52.096

> <W(PB)>
-54.602

> <W(SA)>
2.506

> <Valence>
4.779

> <Coulomb>
19.659

> <VdW>
1.456

> <VdW6>
-9.843

> <VdW12>
11.299

> <Bond>
0.315

> <Angle>
1.725

> <Pdih>
2.740

> <Idih>
0.000

> <Tether>
0.000

$$$$
VeraChem MOL file


 29 28  0  0  0  0  0  0  0  0999 V2000     
   16.2277   17.8056   25.1388 C   0  0  0  0  0  0  0  0  0  0  0  0
   16.8459   16.9007   25.0879 H   0  0  0  0  0  0  0  0  0  0  0  0
   16.6066   18.4361   25.9536 H   0  0  0  0  0  0  0  0  0  0  0  0
   15.2080   17.4948   25.4007 H   0  0  0  0  0  0  0  0  0  0  0  0
   16.2318   18.5712   23.7963 C   0  0  0  0  0  0  0  0  0  0  0  0
   15.5124   19.3997   23.8580 H   0  0  0  0  0  0  0  0  0  0  0  0
   15.8731   17.9117   22.9937 H   0  0  0  0  0  0  0  0  0  0  0  0
   17.6198   19.1445   23.4220 C   0  0  0  0  0  0  0  0  0  0  0  0
   17.5127   19.7533   22.5137 H   0  0  0  0  0  0  0  0  0  0  0  0
   17.9506   19.8257   24.2168 H   0  0  0  0  0  0  0  0  0  0  0  0
   18.6888   18.0497   23.1762 C   0  0  0  0  0  0  0  0  0  0  0  0
   18.2812   17.3047   22.4790 H   0  0  0  0  0  0  0  0  0  0  0  0
   18.9023   17.5147   24.1110 H   0  0  0  0  0  0  0  0  0  0  0  0
   20.0132   18.5965   22.5884 C   0  0  0  0  0  0  0  0  0  0  0  0
   20.6432   17.7374   22.3250 H   0  0  0  0  0  0  0  0  0  0  0  0
   19.8070   19.1290   21.6497 H   0  0  0  0  0  0  0  0  0  0  0  0
   20.7829   19.5280   23.5607 C   0  0  0  0  0  0  0  0  0  0  0  0
   20.9994   18.9920   24.4942 H   0  0  0  0  0  0  0  0  0  0  0  0
   20.1390   20.3742   23.8291 H   0  0  0  0  0  0  0  0  0  0  0  0
   22.0945   20.0961   22.9713 C   0  0  2  0  0  0  0  0  0  0  0  0
   21.8627   20.5719   22.0134 H   0  0  0  0  0  0  0  0  0  0  0  0
   23.1483   19.0002   22.7299 C   0  0  0  0  0  0  0  0  0  0  0  0
   23.3642   18.4471   23.6525 H   0  0  0  0  0  0  0  0  0  0  0  0
   22.8149   18.2848   21.9696 H   0  0  0  0  0  0  0  0  0  0  0  0
   24.0867   19.4398   22.3699 H   0  0  0  0  0  0  0  0  0  0  0  0
   22.6617   21.1738   23.8531 N   0  3  0  0  0  0  0  0  0  0  0  0
   21.9941   21.9378   23.9922 H   0  0  0  0  0  0  0  0  0  0  0  0
   23.5097   21.5805   23.4479 H   0  0  0  0  0  0  0  0  0  0  0  0
   22.9093   20.8092   24.7770 H   0  0  0  0  0  0  0  0  0  0  0  0
  1  2  1  0  0  0  0
  1  3  1  0  0  0  0
  1  4  1  0  0  0  0
  1  5  1  0  0  0  0
  5  6  1  0  0  0  0
  5  7  1  0  0  0  0
  5  8  1  0  0  0  0
  8  9  1  0  0  0  0
  8 10  1  0  0  0  0
  8 11  1  0  0  0  0
 11 12  1  0  0  0  0
 11 13  1  0  0  0  0
 11 14  1  0  0  0  0
 14 15  1  0  0  0  0
 14 16  1  0  0  0  0
 14 17  1  0  0  0  0
 17 18  1  0  0  0  0
 17 19  1  0  0  0  0
 17 20  1  0  0  0  0
 20 21  1  0  0  0  0
 20 22  1  0  0  0  0
 22 23  1  0  0  0  0
 22 24  1  0  0  0  0
 22 25  1  0  0  0  0
 20 26  1  0  0  0  0
 26 27  1  0  0  0  0
 26 28  1  0  0  0  0
 26 29  1  0  0  0  0
M  END
> <VConfSearch Rank>
750

> <Conf_Id>
135

> <Delta U+W>
1.581

> <U+W>
-26.245

> <U>
25.974

> <W>
-52.219

> <W(PB)>
-54.709

> <W(SA)>
2.490

> <Valence>
4.811

> <Coulomb>
19.700

> <VdW>
1.463

> <VdW6>
-9.391

> <VdW12>
10.854

> <Bond>
0.285

> <Angle>
1.671

> <Pdih>
2.855

> <Idih>
0.000

> <Tether>
0.000

$$$$
VeraChem MOL file


 29 28  0  0  0  0  0  0  0  0999 V2000     
   16.2058   17.9421   21.9157 C   0  0  0  0  0  0  0  0  0  0  0  0
   16.3672   18.8915   21.3887 H   0  0  0  0  0  0  0  0  0  0  0  0
   16.8919   17.1953   21.4973 H   0  0  0  0  0  0  0  0  0  0  0  0
   15.1826   17.6081   21.7003 H   0  0  0  0  0  0  0  0  0  0  0  0
   16.4107   18.1102   23.4382 C   0  0  0  0  0  0  0  0  0  0  0  0
   16.2697   17.1422   23.9392 H   0  0  0  0  0  0  0  0  0  0  0  0
   15.6290   18.7759   23.8300 H   0  0  0  0  0  0  0  0  0  0  0  0
   17.7944   18.6955   23.8097 C   0  0  0  0  0  0  0  0  0  0  0  0
   17.9107   19.6749   23.3273 H   0  0  0  0  0  0  0  0  0  0  0  0
   17.8174   18.8771   24.8930 H   0  0  0  0  0  0  0  0  0  0  0  0
   18.9755   17.7689   23.4258 C   0  0  0  0  0  0  0  0  0  0  0  0
   19.0389   17.6723   22.3339 H   0  0  0  0  0  0  0  0  0  0  0  0
   18.7814   16.7602   23.8157 H   0  0  0  0  0  0  0  0  0  0  0  0
   20.3396   18.2544   23.9742 C   0  0  0  0  0  0  0  0  0  0  0  0
   20.2858   18.3111   25.0694 H   0  0  0  0  0  0  0  0  0  0  0  0
   21.1002   17.4972   23.7386 H   0  0  0  0  0  0  0  0  0  0  0  0
   20.7860   19.6188   23.3885 C   0  0  0  0  0  0  0  0  0  0  0  0
   20.1091   20.4136   23.7268 H   0  0  0  0  0  0  0  0  0  0  0  0
   20.6975   19.5760   22.2949 H   0  0  0  0  0  0  0  0  0  0  0  0
   22.2400   20.0001   23.7480 C   0  0  2  0  0  0  0  0  0  0  0  0
   22.8964   19.1818   23.4364 H   0  0  0  0  0  0  0  0  0  0  0  0
   22.4229   20.2228   25.2599 C   0  0  0  0  0  0  0  0  0  0  0  0
   21.7403   20.9968   25.6324 H   0  0  0  0  0  0  0  0  0  0  0  0
   22.2383   19.3011   25.8237 H   0  0  0  0  0  0  0  0  0  0  0  0
   23.4495   20.5390   25.4824 H   0  0  0  0  0  0  0  0  0  0  0  0
   22.6867   21.2160   22.9849 N   0  3  0  0  0  0  0  0  0  0  0  0
   23.6626   21.4487   23.1904 H   0  0  0  0  0  0  0  0  0  0  0  0
   22.1209   22.0353   23.2222 H   0  0  0  0  0  0  0  0  0  0  0  0
   22.6141   21.0741   21.9732 H   0  0  0  0  0  0  0  0  0  0  0  0
  1  2  1  0  0  0  0
  1  3  1  0  0  0  0
  1  4  1  0  0  0  0
  1  5  1  0  0  0  0
  5  6  1  0  0  0  0
  5  7  1  0  0  0  0
  5  8  1  0  0  0  0
  8  9  1  0  0  0  0
  8 10  1  0  0  0  0
  8 11  1  0  0  0  0
 11 12  1  0  0  0  0
 11 13  1  0  0  0  0
 11 14  1  0  0  0  0
 14 15  1  0  0  0  0
 14 16  1  0  0  0  0
 14 17  1  0  0  0  0
 17 18  1  0  0  0  0
 17 19  1  0  0  0  0
 17 20  1  0  0  0  0
 20 21  1  0  0  0  0
 20 22  1  0  0  0  0
 22 23  1  0  0  0  0
 22 24  1  0  0  0  0
 22 25  1  0  0  0  0
 20 26  1  0  0  0  0
 26 27  1  0  0  0  0
 26 28  1  0  0  0  0
 26 29  1  0  0  0  0
M  END
> <VConfSearch Rank>
751

> <Conf_Id>
130

> <Delta U+W>
1.359

> <U+W>
-26.467

> <U>
25.687

> <W>
-52.154

> <W(PB)>
-54.643

> <W(SA)>
2.489

> <Valence>
4.682

> <Coulomb>
19.653

> <VdW>
1.352

> <VdW6>
-9.477

> <VdW12>
10.829

> <Bond>
0.274

> <Angle>
1.550

> <Pdih>
2.858

> <Idih>
0.000

> <Tether>
0.000

$$$$
VeraChem MOL file


 29 28  0  0  0  0  0  0  0  0999 V2000     
   23.7052   19.4177   24.5583 C   0  0  0  0  0  0  0  0  0  0  0  0
   24.4900   20.1187   24.8704 H   0  0  0  0  0  0  0  0  0  0  0  0
   24.0022   18.4132   24.8868 H   0  0  0  0  0  0  0  0  0  0  0  0
   23.6732   19.4262   23.4619 H   0  0  0  0  0  0  0  0  0  0  0  0
   22.3446   19.8226   25.1697 C   0  0  0  0  0  0  0  0  0  0  0  0
   22.0542   20.8159   24.7999 H   0  0  0  0  0  0  0  0  0  0  0  0
   22.4619   19.9220   26.2578 H   0  0  0  0  0  0  0  0  0  0  0  0
   21.2126   18.8063   24.8839 C   0  0  0  0  0  0  0  0  0  0  0  0
   21.5010   17.8198   25.2719 H   0  0  0  0  0  0  0  0  0  0  0  0
   20.3268   19.1126   25.4543 H   0  0  0  0  0  0  0  0  0  0  0  0
   20.8550   18.6901   23.3799 C   0  0  0  0  0  0  0  0  0  0  0  0
   21.7302   18.3181   22.8317 H   0  0  0  0  0  0  0  0  0  0  0  0
   20.6382   19.6857   22.9744 H   0  0  0  0  0  0  0  0  0  0  0  0
   19.6732   17.7233   23.1082 C   0  0  0  0  0  0  0  0  0  0  0  0
   19.6577   17.4519   22.0436 H   0  0  0  0  0  0  0  0  0  0  0  0
   19.8642   16.7842   23.6458 H   0  0  0  0  0  0  0  0  0  0  0  0
   18.2778   18.2680   23.5220 C   0  0  0  0  0  0  0  0  0  0  0  0
   18.3656   18.9896   24.3428 H   0  0  0  0  0  0  0  0  0  0  0  0
   17.6975   17.4273   23.9244 H   0  0  0  0  0  0  0  0  0  0  0  0
   17.4589   18.8881   22.3647 C   0  0  2  0  0  0  0  0  0  0  0  0
   17.3533   18.1335   21.5793 H   0  0  0  0  0  0  0  0  0  0  0  0
   18.1369   20.1260   21.7538 C   0  0  0  0  0  0  0  0  0  0  0  0
   19.0786   19.8562   21.2621 H   0  0  0  0  0  0  0  0  0  0  0  0
   17.4941   20.5827   20.9912 H   0  0  0  0  0  0  0  0  0  0  0  0
   18.3476   20.8826   22.5198 H   0  0  0  0  0  0  0  0  0  0  0  0
   16.0645   19.2283   22.8128 N   0  3  0  0  0  0  0  0  0  0  0  0
   15.5756   18.4070   23.1806 H   0  0  0  0  0  0  0  0  0  0  0  0
   15.5028   19.5961   22.0396 H   0  0  0  0  0  0  0  0  0  0  0  0
   16.0716   19.9383   23.5500 H   0  0  0  0  0  0  0  0  0  0  0  0
  1  2  1  0  0  0  0
  1  3  1  0  0  0  0
  1  4  1  0  0  0  0
  1  5  1  0  0  0  0
  5  6  1  0  0  0  0
  5  7  1  0  0  0  0
  5  8  1  0  0  0  0
  8  9  1  0  0  0  0
  8 10  1  0  0  0  0
  8 11  1  0  0  0  0
 11 12  1  0  0  0  0
 11 13  1  0  0  0  0
 11 14  1  0  0  0  0
 14 15  1  0  0  0  0
 14 16  1  0  0  0  0
 14 17  1  0  0  0  0
 17 18  1  0  0  0  0
 17 19  1  0  0  0  0
 17 20  1  0  0  0  0
 20 21  1  0  0  0  0
 20 22  1  0  0  0  0
 22 23  1  0  0  0  0
 22 24  1  0  0  0  0
 22 25  1  0  0  0  0
 20 26  1  0  0  0  0
 26 27  1  0  0  0  0
 26 28  1  0  0  0  0
 26 29  1  0  0  0  0
M  END
> <VConfSearch Rank>
752

> <Conf_Id>
157

> <Delta U+W>
4.354

> <U+W>
-23.472

> <U>
28.780

> <W>
-52.252

> <W(PB)>
-54.715

> <W(SA)>
2.462

> <Valence>
7.566

> <Coulomb>
19.822

> <VdW>
1.392

> <VdW6>
-10.248

> <VdW12>
11.641

> <Bond>
0.340

> <Angle>
2.096

> <Pdih>
5.129

> <Idih>
0.000

> <Tether>
0.000

$$$$
VeraChem MOL file


 29 28  0  0  0  0  0  0  0  0999 V2000     
   17.1716   21.4658   22.2328 C   0  0  0  0  0  0  0  0  0  0  0  0
   16.7387   22.4641   22.3773 H   0  0  0  0  0  0  0  0  0  0  0  0
   18.2579   21.5830   22.1527 H   0  0  0  0  0  0  0  0  0  0  0  0
   16.8026   21.0787   21.2741 H   0  0  0  0  0  0  0  0  0  0  0  0
   16.7711   20.5290   23.3962 C   0  0  0  0  0  0  0  0  0  0  0  0
   15.6737   20.4750   23.4247 H   0  0  0  0  0  0  0  0  0  0  0  0
   17.0771   20.9620   24.3587 H   0  0  0  0  0  0  0  0  0  0  0  0
   17.3329   19.0915   23.2484 C   0  0  0  0  0  0  0  0  0  0  0  0
   16.5773   18.3891   23.6266 H   0  0  0  0  0  0  0  0  0  0  0  0
   17.4627   18.8416   22.1864 H   0  0  0  0  0  0  0  0  0  0  0  0
   18.6483   18.8220   24.0238 C   0  0  0  0  0  0  0  0  0  0  0  0
   18.8977   17.7604   23.8999 H   0  0  0  0  0  0  0  0  0  0  0  0
   18.4744   18.9719   25.0983 H   0  0  0  0  0  0  0  0  0  0  0  0
   19.8446   19.6950   23.5711 C   0  0  0  0  0  0  0  0  0  0  0  0
   19.9734   19.6180   22.4834 H   0  0  0  0  0  0  0  0  0  0  0  0
   19.6208   20.7484   23.7825 H   0  0  0  0  0  0  0  0  0  0  0  0
   21.1706   19.3395   24.2918 C   0  0  0  0  0  0  0  0  0  0  0  0
   21.0415   19.5031   25.3700 H   0  0  0  0  0  0  0  0  0  0  0  0
   21.9510   20.0405   23.9671 H   0  0  0  0  0  0  0  0  0  0  0  0
   21.6581   17.8920   24.0568 C   0  0  2  0  0  0  0  0  0  0  0  0
   20.8856   17.2046   24.4134 H   0  0  0  0  0  0  0  0  0  0  0  0
   22.9421   17.6239   24.8576 C   0  0  0  0  0  0  0  0  0  0  0  0
   23.7568   18.2842   24.5348 H   0  0  0  0  0  0  0  0  0  0  0  0
   22.7740   17.7875   25.9294 H   0  0  0  0  0  0  0  0  0  0  0  0
   23.2715   16.5857   24.7270 H   0  0  0  0  0  0  0  0  0  0  0  0
   21.8693   17.5872   22.5993 N   0  3  0  0  0  0  0  0  0  0  0  0
   21.0082   17.7258   22.0634 H   0  0  0  0  0  0  0  0  0  0  0  0
   22.1677   16.6178   22.4585 H   0  0  0  0  0  0  0  0  0  0  0  0
   22.5877   18.1921   22.1926 H   0  0  0  0  0  0  0  0  0  0  0  0
  1  2  1  0  0  0  0
  1  3  1  0  0  0  0
  1  4  1  0  0  0  0
  1  5  1  0  0  0  0
  5  6  1  0  0  0  0
  5  7  1  0  0  0  0
  5  8  1  0  0  0  0
  8  9  1  0  0  0  0
  8 10  1  0  0  0  0
  8 11  1  0  0  0  0
 11 12  1  0  0  0  0
 11 13  1  0  0  0  0
 11 14  1  0  0  0  0
 14 15  1  0  0  0  0
 14 16  1  0  0  0  0
 14 17  1  0  0  0  0
 17 18  1  0  0  0  0
 17 19  1  0  0  0  0
 17 20  1  0  0  0  0
 20 21  1  0  0  0  0
 20 22  1  0  0  0  0
 22 23  1  0  0  0  0
 22 24  1  0  0  0  0
 22 25  1  0  0  0  0
 20 26  1  0  0  0  0
 26 27  1  0  0  0  0
 26 28  1  0  0  0  0
 26 29  1  0  0  0  0
M  END
> <VConfSearch Rank>
753

> <Conf_Id>
158

> <Delta U+W>
3.648

> <U+W>
-24.178

> <U>
28.057

> <W>
-52.235

> <W(PB)>
-54.696

> <W(SA)>
2.460

> <Valence>
6.543

> <Coulomb>
20.387

> <VdW>
1.127

> <VdW6>
-10.342

> <VdW12>
11.469

> <Bond>
0.308

> <Angle>
1.938

> <Pdih>
4.297

> <Idih>
0.000

> <Tether>
0.000

$$$$
VeraChem MOL file


 29 28  0  0  0  0  0  0  0  0999 V2000     
   20.1513   17.3928   20.2065 C   0  0  0  0  0  0  0  0  0  0  0  0
   21.0266   18.0285   20.0199 H   0  0  0  0  0  0  0  0  0  0  0  0
   20.3160   16.8462   21.1432 H   0  0  0  0  0  0  0  0  0  0  0  0
   20.0959   16.6522   19.3982 H   0  0  0  0  0  0  0  0  0  0  0  0
   18.8553   18.2332   20.2592 C   0  0  0  0  0  0  0  0  0  0  0  0
   17.9995   17.5797   20.4790 H   0  0  0  0  0  0  0  0  0  0  0  0
   18.6691   18.6590   19.2633 H   0  0  0  0  0  0  0  0  0  0  0  0
   18.9114   19.3868   21.2894 C   0  0  0  0  0  0  0  0  0  0  0  0
   19.7577   20.0469   21.0544 H   0  0  0  0  0  0  0  0  0  0  0  0
   18.0039   19.9967   21.1800 H   0  0  0  0  0  0  0  0  0  0  0  0
   19.0201   18.9005   22.7543 C   0  0  0  0  0  0  0  0  0  0  0  0
   19.9495   18.3362   22.8874 H   0  0  0  0  0  0  0  0  0  0  0  0
   18.1970   18.2051   22.9691 H   0  0  0  0  0  0  0  0  0  0  0  0
   18.9672   20.0816   23.7542 C   0  0  0  0  0  0  0  0  0  0  0  0
   19.7360   20.8276   23.5094 H   0  0  0  0  0  0  0  0  0  0  0  0
   18.0013   20.5910   23.6309 H   0  0  0  0  0  0  0  0  0  0  0  0
   19.1050   19.6412   25.2358 C   0  0  0  0  0  0  0  0  0  0  0  0
   18.7385   18.6140   25.3638 H   0  0  0  0  0  0  0  0  0  0  0  0
   18.4375   20.2734   25.8363 H   0  0  0  0  0  0  0  0  0  0  0  0
   20.5295   19.7782   25.8254 C   0  0  2  0  0  0  0  0  0  0  0  0
   20.8402   20.8227   25.7249 H   0  0  0  0  0  0  0  0  0  0  0  0
   21.5637   18.8993   25.1020 C   0  0  0  0  0  0  0  0  0  0  0  0
   21.2530   17.8472   25.0901 H   0  0  0  0  0  0  0  0  0  0  0  0
   21.7084   19.2328   24.0679 H   0  0  0  0  0  0  0  0  0  0  0  0
   22.5394   18.9608   25.5995 H   0  0  0  0  0  0  0  0  0  0  0  0
   20.5331   19.4775   27.2985 N   0  3  0  0  0  0  0  0  0  0  0  0
   19.8860   20.0852   27.8092 H   0  0  0  0  0  0  0  0  0  0  0  0
   21.4631   19.6126   27.7054 H   0  0  0  0  0  0  0  0  0  0  0  0
   20.2567   18.5094   27.4830 H   0  0  0  0  0  0  0  0  0  0  0  0
  1  2  1  0  0  0  0
  1  3  1  0  0  0  0
  1  4  1  0  0  0  0
  1  5  1  0  0  0  0
  5  6  1  0  0  0  0
  5  7  1  0  0  0  0
  5  8  1  0  0  0  0
  8  9  1  0  0  0  0
  8 10  1  0  0  0  0
  8 11  1  0  0  0  0
 11 12  1  0  0  0  0
 11 13  1  0  0  0  0
 11 14  1  0  0  0  0
 14 15  1  0  0  0  0
 14 16  1  0  0  0  0
 14 17  1  0  0  0  0
 17 18  1  0  0  0  0
 17 19  1  0  0  0  0
 17 20  1  0  0  0  0
 20 21  1  0  0  0  0
 20 22  1  0  0  0  0
 22 23  1  0  0  0  0
 22 24  1  0  0  0  0
 22 25  1  0  0  0  0
 20 26  1  0  0  0  0
 26 27  1  0  0  0  0
 26 28  1  0  0  0  0
 26 29  1  0  0  0  0
M  END
> <VConfSearch Rank>
754

> <Conf_Id>
156

> <Delta U+W>
3.393

> <U+W>
-24.433

> <U>
27.713

> <W>
-52.146

> <W(PB)>
-54.603

> <W(SA)>
2.458

> <Valence>
6.758

> <Coulomb>
19.720

> <VdW>
1.235

> <VdW6>
-9.782

> <VdW12>
11.017

> <Bond>
0.287

> <Angle>
1.880

> <Pdih>
4.591

> <Idih>
0.000

> <Tether>
0.000

$$$$
VeraChem MOL file


 29 28  0  0  0  0  0  0  0  0999 V2000     
   15.8777   18.6747   23.5111 C   0  0  0  0  0  0  0  0  0  0  0  0
   15.9696   18.5746   22.4217 H   0  0  0  0  0  0  0  0  0  0  0  0
   15.3424   17.7950   23.8916 H   0  0  0  0  0  0  0  0  0  0  0  0
   15.2615   19.5594   23.7177 H   0  0  0  0  0  0  0  0  0  0  0  0
   17.2648   18.8102   24.1740 C   0  0  0  0  0  0  0  0  0  0  0  0
   17.1402   18.9382   25.2583 H   0  0  0  0  0  0  0  0  0  0  0  0
   17.7511   19.7203   23.7987 H   0  0  0  0  0  0  0  0  0  0  0  0
   18.1539   17.5761   23.8929 C   0  0  0  0  0  0  0  0  0  0  0  0
   17.6157   16.6707   24.2056 H   0  0  0  0  0  0  0  0  0  0  0  0
   18.3131   17.4713   22.8117 H   0  0  0  0  0  0  0  0  0  0  0  0
   19.5173   17.6104   24.6310 C   0  0  0  0  0  0  0  0  0  0  0  0
   20.0693   16.6903   24.3945 H   0  0  0  0  0  0  0  0  0  0  0  0
   19.3344   17.5798   25.7140 H   0  0  0  0  0  0  0  0  0  0  0  0
   20.4182   18.8324   24.3146 C   0  0  0  0  0  0  0  0  0  0  0  0
   19.9273   19.7511   24.6591 H   0  0  0  0  0  0  0  0  0  0  0  0
   21.3336   18.7358   24.9121 H   0  0  0  0  0  0  0  0  0  0  0  0
   20.7891   18.9525   22.8111 C   0  0  0  0  0  0  0  0  0  0  0  0
   19.8757   19.0782   22.2168 H   0  0  0  0  0  0  0  0  0  0  0  0
   21.2446   18.0125   22.4729 H   0  0  0  0  0  0  0  0  0  0  0  0
   21.7429   20.1209   22.4673 C   0  0  2  0  0  0  0  0  0  0  0  0
   21.8762   20.1215   21.3810 H   0  0  0  0  0  0  0  0  0  0  0  0
   23.1324   19.9439   23.1041 C   0  0  0  0  0  0  0  0  0  0  0  0
   23.8255   20.7066   22.7284 H   0  0  0  0  0  0  0  0  0  0  0  0
   23.0944   20.0362   24.1958 H   0  0  0  0  0  0  0  0  0  0  0  0
   23.5530   18.9616   22.8558 H   0  0  0  0  0  0  0  0  0  0  0  0
   21.1570   21.4613   22.8160 N   0  3  0  0  0  0  0  0  0  0  0  0
   20.2532   21.6067   22.3571 H   0  0  0  0  0  0  0  0  0  0  0  0
   21.7741   22.2255   22.5266 H   0  0  0  0  0  0  0  0  0  0  0  0
   21.0100   21.5502   23.8245 H   0  0  0  0  0  0  0  0  0  0  0  0
  1  2  1  0  0  0  0
  1  3  1  0  0  0  0
  1  4  1  0  0  0  0
  1  5  1  0  0  0  0
  5  6  1  0  0  0  0
  5  7  1  0  0  0  0
  5  8  1  0  0  0  0
  8  9  1  0  0  0  0
  8 10  1  0  0  0  0
  8 11  1  0  0  0  0
 11 12  1  0  0  0  0
 11 13  1  0  0  0  0
 11 14  1  0  0  0  0
 14 15  1  0  0  0  0
 14 16  1  0  0  0  0
 14 17  1  0  0  0  0
 17 18  1  0  0  0  0
 17 19  1  0  0  0  0
 17 20  1  0  0  0  0
 20 21  1  0  0  0  0
 20 22  1  0  0  0  0
 22 23  1  0  0  0  0
 22 24  1  0  0  0  0
 22 25  1  0  0  0  0
 20 26  1  0  0  0  0
 26 27  1  0  0  0  0
 26 28  1  0  0  0  0
 26 29  1  0  0  0  0
M  END
> <VConfSearch Rank>
755

> <Conf_Id>
78

> <Delta U+W>
1.477

> <U+W>
-26.349

> <U>
26.385

> <W>
-52.734

> <W(PB)>
-55.179

> <W(SA)>
2.445

> <Valence>
4.726

> <Coulomb>
20.482

> <VdW>
1.177

> <VdW6>
-10.349

> <VdW12>
11.526

> <Bond>
0.319

> <Angle>
1.933

> <Pdih>
2.474

> <Idih>
0.000

> <Tether>
0.000

$$$$
VeraChem MOL file


 29 28  0  0  0  0  0  0  0  0999 V2000     
   21.5366   18.2545   20.3418 C   0  0  0  0  0  0  0  0  0  0  0  0
   22.2174   19.0778   20.0893 H   0  0  0  0  0  0  0  0  0  0  0  0
   21.8082   17.8865   21.3373 H   0  0  0  0  0  0  0  0  0  0  0  0
   21.7167   17.4422   19.6258 H   0  0  0  0  0  0  0  0  0  0  0  0
   20.0628   18.7180   20.2744 C   0  0  0  0  0  0  0  0  0  0  0  0
   19.3867   17.8701   20.4517 H   0  0  0  0  0  0  0  0  0  0  0  0
   19.8608   19.0558   19.2483 H   0  0  0  0  0  0  0  0  0  0  0  0
   19.7394   19.8790   21.2498 C   0  0  0  0  0  0  0  0  0  0  0  0
   20.6378   20.4849   21.4307 H   0  0  0  0  0  0  0  0  0  0  0  0
   19.0246   20.5513   20.7553 H   0  0  0  0  0  0  0  0  0  0  0  0
   19.1114   19.4424   22.5985 C   0  0  0  0  0  0  0  0  0  0  0  0
   18.1576   18.9315   22.4079 H   0  0  0  0  0  0  0  0  0  0  0  0
   18.8649   20.3517   23.1618 H   0  0  0  0  0  0  0  0  0  0  0  0
   20.0204   18.5300   23.4582 C   0  0  0  0  0  0  0  0  0  0  0  0
   20.1941   17.5881   22.9226 H   0  0  0  0  0  0  0  0  0  0  0  0
   21.0055   18.9972   23.5870 H   0  0  0  0  0  0  0  0  0  0  0  0
   19.4089   18.1813   24.8402 C   0  0  0  0  0  0  0  0  0  0  0  0
   20.0911   17.5025   25.3690 H   0  0  0  0  0  0  0  0  0  0  0  0
   18.4829   17.6146   24.6763 H   0  0  0  0  0  0  0  0  0  0  0  0
   19.0940   19.3931   25.7491 C   0  0  2  0  0  0  0  0  0  0  0  0
   18.3997   20.0521   25.2199 H   0  0  0  0  0  0  0  0  0  0  0  0
   20.3577   20.1982   26.1001 C   0  0  0  0  0  0  0  0  0  0  0  0
   20.1150   21.0192   26.7859 H   0  0  0  0  0  0  0  0  0  0  0  0
   21.1116   19.5633   26.5819 H   0  0  0  0  0  0  0  0  0  0  0  0
   20.8054   20.6452   25.2048 H   0  0  0  0  0  0  0  0  0  0  0  0
   18.3875   18.9592   27.0032 N   0  3  0  0  0  0  0  0  0  0  0  0
   18.9739   18.3374   27.5665 H   0  0  0  0  0  0  0  0  0  0  0  0
   17.5200   18.4572   26.7929 H   0  0  0  0  0  0  0  0  0  0  0  0
   18.1408   19.7612   27.5902 H   0  0  0  0  0  0  0  0  0  0  0  0
  1  2  1  0  0  0  0
  1  3  1  0  0  0  0
  1  4  1  0  0  0  0
  1  5  1  0  0  0  0
  5  6  1  0  0  0  0
  5  7  1  0  0  0  0
  5  8  1  0  0  0  0
  8  9  1  0  0  0  0
  8 10  1  0  0  0  0
  8 11  1  0  0  0  0
 11 12  1  0  0  0  0
 11 13  1  0  0  0  0
 11 14  1  0  0  0  0
 14 15  1  0  0  0  0
 14 16  1  0  0  0  0
 14 17  1  0  0  0  0
 17 18  1  0  0  0  0
 17 19  1  0  0  0  0
 17 20  1  0  0  0  0
 20 21  1  0  0  0  0
 20 22  1  0  0  0  0
 22 23  1  0  0  0  0
 22 24  1  0  0  0  0
 22 25  1  0  0  0  0
 20 26  1  0  0  0  0
 26 27  1  0  0  0  0
 26 28  1  0  0  0  0
 26 29  1  0  0  0  0
M  END
> <VConfSearch Rank>
756

> <Conf_Id>
145

> <Delta U+W>
3.784

> <U+W>
-24.042

> <U>
28.220

> <W>
-52.262

> <W(PB)>
-54.724

> <W(SA)>
2.462

> <Valence>
7.040

> <Coulomb>
19.984

> <VdW>
1.197

> <VdW6>
-10.566

> <VdW12>
11.763

> <Bond>
0.320

> <Angle>
2.280

> <Pdih>
4.439

> <Idih>
0.000

> <Tether>
0.000

$$$$
VeraChem MOL file


 29 28  0  0  0  0  0  0  0  0999 V2000     
   15.9495   19.3117   24.4024 C   0  0  0  0  0  0  0  0  0  0  0  0
   15.5011   18.8679   25.3008 H   0  0  0  0  0  0  0  0  0  0  0  0
   16.2304   20.3470   24.6359 H   0  0  0  0  0  0  0  0  0  0  0  0
   15.1798   19.3395   23.6202 H   0  0  0  0  0  0  0  0  0  0  0  0
   17.1739   18.4978   23.9334 C   0  0  0  0  0  0  0  0  0  0  0  0
   17.5696   18.9421   23.0122 H   0  0  0  0  0  0  0  0  0  0  0  0
   16.8536   17.4787   23.6752 H   0  0  0  0  0  0  0  0  0  0  0  0
   18.2687   18.4346   25.0256 C   0  0  0  0  0  0  0  0  0  0  0  0
   18.5517   19.4471   25.3447 H   0  0  0  0  0  0  0  0  0  0  0  0
   17.8385   17.9477   25.9117 H   0  0  0  0  0  0  0  0  0  0  0  0
   19.5278   17.6398   24.5912 C   0  0  0  0  0  0  0  0  0  0  0  0
   19.2604   16.8792   23.8448 H   0  0  0  0  0  0  0  0  0  0  0  0
   19.8964   17.0811   25.4626 H   0  0  0  0  0  0  0  0  0  0  0  0
   20.6981   18.5120   24.0678 C   0  0  0  0  0  0  0  0  0  0  0  0
   21.0221   19.1917   24.8671 H   0  0  0  0  0  0  0  0  0  0  0  0
   21.5468   17.8458   23.8675 H   0  0  0  0  0  0  0  0  0  0  0  0
   20.3607   19.3262   22.7903 C   0  0  0  0  0  0  0  0  0  0  0  0
   19.5722   20.0521   23.0230 H   0  0  0  0  0  0  0  0  0  0  0  0
   19.9474   18.6542   22.0269 H   0  0  0  0  0  0  0  0  0  0  0  0
   21.5509   20.1034   22.1796 C   0  0  2  0  0  0  0  0  0  0  0  0
   21.1601   20.6868   21.3401 H   0  0  0  0  0  0  0  0  0  0  0  0
   22.6352   19.1637   21.6237 C   0  0  0  0  0  0  0  0  0  0  0  0
   23.3913   19.7359   21.0723 H   0  0  0  0  0  0  0  0  0  0  0  0
   23.1486   18.6161   22.4227 H   0  0  0  0  0  0  0  0  0  0  0  0
   22.2005   18.4333   20.9301 H   0  0  0  0  0  0  0  0  0  0  0  0
   22.1406   21.0986   23.1404 N   0  3  0  0  0  0  0  0  0  0  0  0
   22.5422   20.6315   23.9572 H   0  0  0  0  0  0  0  0  0  0  0  0
   21.4341   21.7585   23.4781 H   0  0  0  0  0  0  0  0  0  0  0  0
   22.8864   21.6460   22.7013 H   0  0  0  0  0  0  0  0  0  0  0  0
  1  2  1  0  0  0  0
  1  3  1  0  0  0  0
  1  4  1  0  0  0  0
  1  5  1  0  0  0  0
  5  6  1  0  0  0  0
  5  7  1  0  0  0  0
  5  8  1  0  0  0  0
  8  9  1  0  0  0  0
  8 10  1  0  0  0  0
  8 11  1  0  0  0  0
 11 12  1  0  0  0  0
 11 13  1  0  0  0  0
 11 14  1  0  0  0  0
 14 15  1  0  0  0  0
 14 16  1  0  0  0  0
 14 17  1  0  0  0  0
 17 18  1  0  0  0  0
 17 19  1  0  0  0  0
 17 20  1  0  0  0  0
 20 21  1  0  0  0  0
 20 22  1  0  0  0  0
 22 23  1  0  0  0  0
 22 24  1  0  0  0  0
 22 25  1  0  0  0  0
 20 26  1  0  0  0  0
 26 27  1  0  0  0  0
 26 28  1  0  0  0  0
 26 29  1  0  0  0  0
M  END
> <VConfSearch Rank>
757

> <Conf_Id>
71

> <Delta U+W>
3.542

> <U+W>
-24.284

> <U>
28.217

> <W>
-52.501

> <W(PB)>
-54.947

> <W(SA)>
2.446

> <Valence>
6.821

> <Coulomb>
20.147

> <VdW>
1.249

> <VdW6>
-10.237

> <VdW12>
11.486

> <Bond>
0.317

> <Angle>
1.990

> <Pdih>
4.515

> <Idih>
0.000

> <Tether>
0.000

$$$$
VeraChem MOL file


 29 28  0  0  0  0  0  0  0  0999 V2000     
   20.4902   15.3103   22.7219 C   0  0  0  0  0  0  0  0  0  0  0  0
   20.9585   15.3578   23.7137 H   0  0  0  0  0  0  0  0  0  0  0  0
   19.7184   14.5299   22.7451 H   0  0  0  0  0  0  0  0  0  0  0  0
   21.2586   15.0029   22.0007 H   0  0  0  0  0  0  0  0  0  0  0  0
   19.8878   16.6753   22.3277 C   0  0  0  0  0  0  0  0  0  0  0  0
   19.4583   16.6034   21.3187 H   0  0  0  0  0  0  0  0  0  0  0  0
   20.6912   17.4194   22.2717 H   0  0  0  0  0  0  0  0  0  0  0  0
   18.7929   17.1243   23.3253 C   0  0  0  0  0  0  0  0  0  0  0  0
   17.9980   16.3657   23.3226 H   0  0  0  0  0  0  0  0  0  0  0  0
   19.1908   17.1418   24.3492 H   0  0  0  0  0  0  0  0  0  0  0  0
   18.1617   18.4969   22.9742 C   0  0  0  0  0  0  0  0  0  0  0  0
   17.0934   18.4560   23.2282 H   0  0  0  0  0  0  0  0  0  0  0  0
   18.2007   18.6692   21.8898 H   0  0  0  0  0  0  0  0  0  0  0  0
   18.7737   19.7047   23.7296 C   0  0  0  0  0  0  0  0  0  0  0  0
   18.1950   20.5986   23.4631 H   0  0  0  0  0  0  0  0  0  0  0  0
   18.6326   19.5573   24.8086 H   0  0  0  0  0  0  0  0  0  0  0  0
   20.2754   19.9491   23.4245 C   0  0  0  0  0  0  0  0  0  0  0  0
   20.4282   19.9572   22.3375 H   0  0  0  0  0  0  0  0  0  0  0  0
   20.8667   19.1114   23.8145 H   0  0  0  0  0  0  0  0  0  0  0  0
   20.8525   21.2591   24.0110 C   0  0  2  0  0  0  0  0  0  0  0  0
   21.9076   21.3066   23.7242 H   0  0  0  0  0  0  0  0  0  0  0  0
   20.7859   21.2821   25.5480 C   0  0  0  0  0  0  0  0  0  0  0  0
   21.2578   20.3871   25.9720 H   0  0  0  0  0  0  0  0  0  0  0  0
   21.3174   22.1569   25.9420 H   0  0  0  0  0  0  0  0  0  0  0  0
   19.7511   21.3286   25.9078 H   0  0  0  0  0  0  0  0  0  0  0  0
   20.2073   22.4848   23.4252 N   0  3  0  0  0  0  0  0  0  0  0  0
   20.2851   22.4984   22.4042 H   0  0  0  0  0  0  0  0  0  0  0  0
   20.6439   23.3417   23.7771 H   0  0  0  0  0  0  0  0  0  0  0  0
   19.2124   22.5288   23.6593 H   0  0  0  0  0  0  0  0  0  0  0  0
  1  2  1  0  0  0  0
  1  3  1  0  0  0  0
  1  4  1  0  0  0  0
  1  5  1  0  0  0  0
  5  6  1  0  0  0  0
  5  7  1  0  0  0  0
  5  8  1  0  0  0  0
  8  9  1  0  0  0  0
  8 10  1  0  0  0  0
  8 11  1  0  0  0  0
 11 12  1  0  0  0  0
 11 13  1  0  0  0  0
 11 14  1  0  0  0  0
 14 15  1  0  0  0  0
 14 16  1  0  0  0  0
 14 17  1  0  0  0  0
 17 18  1  0  0  0  0
 17 19  1  0  0  0  0
 17 20  1  0  0  0  0
 20 21  1  0  0  0  0
 20 22  1  0  0  0  0
 22 23  1  0  0  0  0
 22 24  1  0  0  0  0
 22 25  1  0  0  0  0
 20 26  1  0  0  0  0
 26 27  1  0  0  0  0
 26 28  1  0  0  0  0
 26 29  1  0  0  0  0
M  END
> <VConfSearch Rank>
758

> <Conf_Id>
163

> <Delta U+W>
3.309

> <U+W>
-24.517

> <U>
27.916

> <W>
-52.433

> <W(PB)>
-54.866

> <W(SA)>
2.433

> <Valence>
6.693

> <Coulomb>
20.015

> <VdW>
1.208

> <VdW6>
-10.294

> <VdW12>
11.503

> <Bond>
0.312

> <Angle>
1.939

> <Pdih>
4.441

> <Idih>
0.000

> <Tether>
0.000

$$$$
VeraChem MOL file


 29 28  0  0  0  0  0  0  0  0999 V2000     
   16.1038   17.7633   23.0804 C   0  0  0  0  0  0  0  0  0  0  0  0
   15.9116   17.8825   22.0062 H   0  0  0  0  0  0  0  0  0  0  0  0
   16.6698   16.8354   23.2281 H   0  0  0  0  0  0  0  0  0  0  0  0
   15.1356   17.6417   23.5831 H   0  0  0  0  0  0  0  0  0  0  0  0
   16.8577   18.9868   23.6491 C   0  0  0  0  0  0  0  0  0  0  0  0
   17.0693   18.8282   24.7158 H   0  0  0  0  0  0  0  0  0  0  0  0
   16.1980   19.8639   23.5938 H   0  0  0  0  0  0  0  0  0  0  0  0
   18.1717   19.3076   22.8965 C   0  0  0  0  0  0  0  0  0  0  0  0
   17.9548   19.4693   21.8317 H   0  0  0  0  0  0  0  0  0  0  0  0
   18.5584   20.2595   23.2827 H   0  0  0  0  0  0  0  0  0  0  0  0
   19.2536   18.2086   23.0491 C   0  0  0  0  0  0  0  0  0  0  0  0
   18.8642   17.2577   22.6634 H   0  0  0  0  0  0  0  0  0  0  0  0
   19.4621   18.0411   24.1139 H   0  0  0  0  0  0  0  0  0  0  0  0
   20.5690   18.5254   22.2909 C   0  0  0  0  0  0  0  0  0  0  0  0
   21.2552   17.6751   22.4024 H   0  0  0  0  0  0  0  0  0  0  0  0
   20.3542   18.5922   21.2155 H   0  0  0  0  0  0  0  0  0  0  0  0
   21.2884   19.8264   22.7371 C   0  0  0  0  0  0  0  0  0  0  0  0
   20.6836   20.6930   22.4410 H   0  0  0  0  0  0  0  0  0  0  0  0
   22.2327   19.9185   22.1844 H   0  0  0  0  0  0  0  0  0  0  0  0
   21.5748   19.9013   24.2531 C   0  0  2  0  0  0  0  0  0  0  0  0
   20.6242   19.8116   24.7874 H   0  0  0  0  0  0  0  0  0  0  0  0
   22.2017   21.2571   24.6139 C   0  0  0  0  0  0  0  0  0  0  0  0
   22.3727   21.3303   25.6950 H   0  0  0  0  0  0  0  0  0  0  0  0
   23.1636   21.3978   24.1052 H   0  0  0  0  0  0  0  0  0  0  0  0
   21.5385   22.0821   24.3252 H   0  0  0  0  0  0  0  0  0  0  0  0
   22.4469   18.7708   24.7255 N   0  3  0  0  0  0  0  0  0  0  0  0
   22.0226   17.8631   24.5161 H   0  0  0  0  0  0  0  0  0  0  0  0
   22.6017   18.8137   25.7368 H   0  0  0  0  0  0  0  0  0  0  0  0
   23.3645   18.7944   24.2729 H   0  0  0  0  0  0  0  0  0  0  0  0
  1  2  1  0  0  0  0
  1  3  1  0  0  0  0
  1  4  1  0  0  0  0
  1  5  1  0  0  0  0
  5  6  1  0  0  0  0
  5  7  1  0  0  0  0
  5  8  1  0  0  0  0
  8  9  1  0  0  0  0
  8 10  1  0  0  0  0
  8 11  1  0  0  0  0
 11 12  1  0  0  0  0
 11 13  1  0  0  0  0
 11 14  1  0  0  0  0
 14 15  1  0  0  0  0
 14 16  1  0  0  0  0
 14 17  1  0  0  0  0
 17 18  1  0  0  0  0
 17 19  1  0  0  0  0
 17 20  1  0  0  0  0
 20 21  1  0  0  0  0
 20 22  1  0  0  0  0
 22 23  1  0  0  0  0
 22 24  1  0  0  0  0
 22 25  1  0  0  0  0
 20 26  1  0  0  0  0
 26 27  1  0  0  0  0
 26 28  1  0  0  0  0
 26 29  1  0  0  0  0
M  END
> <VConfSearch Rank>
759

> <Conf_Id>
173

> <Delta U+W>
1.363

> <U+W>
-26.462

> <U>
25.816

> <W>
-52.279

> <W(PB)>
-54.727

> <W(SA)>
2.449

> <Valence>
4.504

> <Coulomb>
20.342

> <VdW>
0.971

> <VdW6>
-10.532

> <VdW12>
11.503

> <Bond>
0.307

> <Angle>
1.715

> <Pdih>
2.481

> <Idih>
0.000

> <Tether>
0.000

$$$$
VeraChem MOL file


 29 28  0  0  0  0  0  0  0  0999 V2000     
   18.0792   21.2919   20.8786 C   0  0  0  0  0  0  0  0  0  0  0  0
   17.2230   21.6221   21.4812 H   0  0  0  0  0  0  0  0  0  0  0  0
   18.5404   22.1787   20.4246 H   0  0  0  0  0  0  0  0  0  0  0  0
   17.6966   20.6588   20.0675 H   0  0  0  0  0  0  0  0  0  0  0  0
   19.0974   20.5163   21.7409 C   0  0  0  0  0  0  0  0  0  0  0  0
   19.9279   20.1765   21.1067 H   0  0  0  0  0  0  0  0  0  0  0  0
   18.6085   19.6200   22.1446 H   0  0  0  0  0  0  0  0  0  0  0  0
   19.6432   21.3844   22.8975 C   0  0  0  0  0  0  0  0  0  0  0  0
   20.0208   22.3306   22.4860 H   0  0  0  0  0  0  0  0  0  0  0  0
   18.8183   21.6527   23.5720 H   0  0  0  0  0  0  0  0  0  0  0  0
   20.7815   20.7213   23.7154 C   0  0  0  0  0  0  0  0  0  0  0  0
   21.1078   21.4458   24.4744 H   0  0  0  0  0  0  0  0  0  0  0  0
   21.6573   20.5511   23.0742 H   0  0  0  0  0  0  0  0  0  0  0  0
   20.3791   19.4102   24.4397 C   0  0  0  0  0  0  0  0  0  0  0  0
   20.8928   19.3842   25.4098 H   0  0  0  0  0  0  0  0  0  0  0  0
   19.3049   19.4301   24.6639 H   0  0  0  0  0  0  0  0  0  0  0  0
   20.7608   18.1314   23.6434 C   0  0  0  0  0  0  0  0  0  0  0  0
   21.8473   18.1219   23.4862 H   0  0  0  0  0  0  0  0  0  0  0  0
   20.3178   18.1604   22.6417 H   0  0  0  0  0  0  0  0  0  0  0  0
   20.3564   16.8000   24.3190 C   0  0  2  0  0  0  0  0  0  0  0  0
   20.7368   15.9885   23.6909 H   0  0  0  0  0  0  0  0  0  0  0  0
   18.8287   16.6395   24.4090 C   0  0  0  0  0  0  0  0  0  0  0  0
   18.3635   16.7764   23.4249 H   0  0  0  0  0  0  0  0  0  0  0  0
   18.5695   15.6339   24.7619 H   0  0  0  0  0  0  0  0  0  0  0  0
   18.3839   17.3622   25.1031 H   0  0  0  0  0  0  0  0  0  0  0  0
   20.9983   16.6195   25.6670 N   0  3  0  0  0  0  0  0  0  0  0  0
   22.0188   16.6803   25.6079 H   0  0  0  0  0  0  0  0  0  0  0  0
   20.7686   15.7073   26.0716 H   0  0  0  0  0  0  0  0  0  0  0  0
   20.6840   17.3360   26.3261 H   0  0  0  0  0  0  0  0  0  0  0  0
  1  2  1  0  0  0  0
  1  3  1  0  0  0  0
  1  4  1  0  0  0  0
  1  5  1  0  0  0  0
  5  6  1  0  0  0  0
  5  7  1  0  0  0  0
  5  8  1  0  0  0  0
  8  9  1  0  0  0  0
  8 10  1  0  0  0  0
  8 11  1  0  0  0  0
 11 12  1  0  0  0  0
 11 13  1  0  0  0  0
 11 14  1  0  0  0  0
 14 15  1  0  0  0  0
 14 16  1  0  0  0  0
 14 17  1  0  0  0  0
 17 18  1  0  0  0  0
 17 19  1  0  0  0  0
 17 20  1  0  0  0  0
 20 21  1  0  0  0  0
 20 22  1  0  0  0  0
 22 23  1  0  0  0  0
 22 24  1  0  0  0  0
 22 25  1  0  0  0  0
 20 26  1  0  0  0  0
 26 27  1  0  0  0  0
 26 28  1  0  0  0  0
 26 29  1  0  0  0  0
M  END
> <VConfSearch Rank>
760

> <Conf_Id>
117

> <Delta U+W>
3.377

> <U+W>
-24.449

> <U>
27.947

> <W>
-52.396

> <W(PB)>
-54.842

> <W(SA)>
2.447

> <Valence>
6.731

> <Coulomb>
20.067

> <VdW>
1.149

> <VdW6>
-10.427

> <VdW12>
11.575

> <Bond>
0.324

> <Angle>
1.943

> <Pdih>
4.465

> <Idih>
0.000

> <Tether>
0.000

$$$$
VeraChem MOL file


 29 28  0  0  0  0  0  0  0  0999 V2000     
   19.4464   23.0827   26.2896 C   0  0  0  0  0  0  0  0  0  0  0  0
   19.6630   22.5232   27.2090 H   0  0  0  0  0  0  0  0  0  0  0  0
   20.3833   23.5299   25.9326 H   0  0  0  0  0  0  0  0  0  0  0  0
   18.7593   23.8995   26.5461 H   0  0  0  0  0  0  0  0  0  0  0  0
   18.8252   22.1651   25.2154 C   0  0  0  0  0  0  0  0  0  0  0  0
   18.5887   22.7589   24.3212 H   0  0  0  0  0  0  0  0  0  0  0  0
   17.8739   21.7599   25.5878 H   0  0  0  0  0  0  0  0  0  0  0  0
   19.7730   21.0059   24.8359 C   0  0  0  0  0  0  0  0  0  0  0  0
   20.7232   21.4158   24.4665 H   0  0  0  0  0  0  0  0  0  0  0  0
   20.0083   20.4169   25.7332 H   0  0  0  0  0  0  0  0  0  0  0  0
   19.1544   20.0849   23.7603 C   0  0  0  0  0  0  0  0  0  0  0  0
   18.9183   20.6756   22.8642 H   0  0  0  0  0  0  0  0  0  0  0  0
   18.2044   19.6752   24.1306 H   0  0  0  0  0  0  0  0  0  0  0  0
   20.1031   18.9257   23.3804 C   0  0  0  0  0  0  0  0  0  0  0  0
   21.0516   19.3363   23.0068 H   0  0  0  0  0  0  0  0  0  0  0  0
   20.3393   18.3444   24.2816 H   0  0  0  0  0  0  0  0  0  0  0  0
   19.4805   18.0040   22.3037 C   0  0  0  0  0  0  0  0  0  0  0  0
   19.2019   18.6131   21.4334 H   0  0  0  0  0  0  0  0  0  0  0  0
   18.5516   17.5606   22.6863 H   0  0  0  0  0  0  0  0  0  0  0  0
   20.4385   16.8848   21.8416 C   0  0  2  0  0  0  0  0  0  0  0  0
   21.3640   17.3498   21.4880 H   0  0  0  0  0  0  0  0  0  0  0  0
   19.8180   16.0976   20.6764 C   0  0  0  0  0  0  0  0  0  0  0  0
   20.5088   15.3240   20.3190 H   0  0  0  0  0  0  0  0  0  0  0  0
   18.8843   15.6082   20.9807 H   0  0  0  0  0  0  0  0  0  0  0  0
   19.5963   16.7616   19.8316 H   0  0  0  0  0  0  0  0  0  0  0  0
   20.8208   15.9555   22.9610 N   0  3  0  0  0  0  0  0  0  0  0  0
   21.2761   16.4600   23.7265 H   0  0  0  0  0  0  0  0  0  0  0  0
   21.4712   15.2322   22.6410 H   0  0  0  0  0  0  0  0  0  0  0  0
   20.0007   15.4811   23.3483 H   0  0  0  0  0  0  0  0  0  0  0  0
  1  2  1  0  0  0  0
  1  3  1  0  0  0  0
  1  4  1  0  0  0  0
  1  5  1  0  0  0  0
  5  6  1  0  0  0  0
  5  7  1  0  0  0  0
  5  8  1  0  0  0  0
  8  9  1  0  0  0  0
  8 10  1  0  0  0  0
  8 11  1  0  0  0  0
 11 12  1  0  0  0  0
 11 13  1  0  0  0  0
 11 14  1  0  0  0  0
 14 15  1  0  0  0  0
 14 16  1  0  0  0  0
 14 17  1  0  0  0  0
 17 18  1  0  0  0  0
 17 19  1  0  0  0  0
 17 20  1  0  0  0  0
 20 21  1  0  0  0  0
 20 22  1  0  0  0  0
 22 23  1  0  0  0  0
 22 24  1  0  0  0  0
 22 25  1  0  0  0  0
 20 26  1  0  0  0  0
 26 27  1  0  0  0  0
 26 28  1  0  0  0  0
 26 29  1  0  0  0  0
M  END
> <VConfSearch Rank>
761

> <Conf_Id>
164

> <Delta U+W>
0.000

> <U+W>
-27.826

> <U>
23.963

> <W>
-51.789

> <W(PB)>
-54.342

> <W(SA)>
2.554

> <Valence>
3.166

> <Coulomb>
19.734

> <VdW>
1.062

> <VdW6>
-7.938

> <VdW12>
9.001

> <Bond>
0.188

> <Angle>
0.880

> <Pdih>
2.098

> <Idih>
0.000

> <Tether>
0.000

$$$$
VeraChem MOL file


 29 28  0  0  0  0  0  0  0  0999 V2000     
   24.3391   20.8390   23.3355 C   0  0  0  0  0  0  0  0  0  0  0  0
   24.6501   20.2111   22.4904 H   0  0  0  0  0  0  0  0  0  0  0  0
   24.0161   21.8105   22.9391 H   0  0  0  0  0  0  0  0  0  0  0  0
   25.2182   21.0094   23.9704 H   0  0  0  0  0  0  0  0  0  0  0  0
   23.2081   20.1648   24.1406 C   0  0  0  0  0  0  0  0  0  0  0  0
   22.9420   20.7996   24.9974 H   0  0  0  0  0  0  0  0  0  0  0  0
   23.5712   19.2126   24.5521 H   0  0  0  0  0  0  0  0  0  0  0  0
   21.9575   19.9134   23.2695 C   0  0  0  0  0  0  0  0  0  0  0  0
   21.5998   20.8676   22.8585 H   0  0  0  0  0  0  0  0  0  0  0  0
   22.2289   19.2803   22.4133 H   0  0  0  0  0  0  0  0  0  0  0  0
   20.8227   19.2383   24.0723 C   0  0  0  0  0  0  0  0  0  0  0  0
   20.5516   19.8721   24.9281 H   0  0  0  0  0  0  0  0  0  0  0  0
   21.1824   18.2850   24.4837 H   0  0  0  0  0  0  0  0  0  0  0  0
   19.5719   18.9865   23.2002 C   0  0  0  0  0  0  0  0  0  0  0  0
   19.2261   19.9433   22.7875 H   0  0  0  0  0  0  0  0  0  0  0  0
   19.8421   18.3485   22.3472 H   0  0  0  0  0  0  0  0  0  0  0  0
   18.4347   18.3143   24.0081 C   0  0  0  0  0  0  0  0  0  0  0  0
   18.1168   18.9783   24.8230 H   0  0  0  0  0  0  0  0  0  0  0  0
   18.8323   17.4075   24.4828 H   0  0  0  0  0  0  0  0  0  0  0  0
   17.2103   17.9201   23.1509 C   0  0  2  0  0  0  0  0  0  0  0  0
   17.5579   17.2943   22.3232 H   0  0  0  0  0  0  0  0  0  0  0  0
   16.4920   19.1488   22.5647 C   0  0  0  0  0  0  0  0  0  0  0  0
   16.1793   19.8409   23.3565 H   0  0  0  0  0  0  0  0  0  0  0  0
   17.1382   19.6936   21.8669 H   0  0  0  0  0  0  0  0  0  0  0  0
   15.5979   18.8439   22.0071 H   0  0  0  0  0  0  0  0  0  0  0  0
   16.2441   17.0810   23.9400 N   0  3  0  0  0  0  0  0  0  0  0  0
   15.4504   16.7841   23.3650 H   0  0  0  0  0  0  0  0  0  0  0  0
   15.8663   17.5973   24.7390 H   0  0  0  0  0  0  0  0  0  0  0  0
   16.6901   16.2339   24.3039 H   0  0  0  0  0  0  0  0  0  0  0  0
  1  2  1  0  0  0  0
  1  3  1  0  0  0  0
  1  4  1  0  0  0  0
  1  5  1  0  0  0  0
  5  6  1  0  0  0  0
  5  7  1  0  0  0  0
  5  8  1  0  0  0  0
  8  9  1  0  0  0  0
  8 10  1  0  0  0  0
  8 11  1  0  0  0  0
 11 12  1  0  0  0  0
 11 13  1  0  0  0  0
 11 14  1  0  0  0  0
 14 15  1  0  0  0  0
 14 16  1  0  0  0  0
 14 17  1  0  0  0  0
 17 18  1  0  0  0  0
 17 19  1  0  0  0  0
 17 20  1  0  0  0  0
 20 21  1  0  0  0  0
 20 22  1  0  0  0  0
 22 23  1  0  0  0  0
 22 24  1  0  0  0  0
 22 25  1  0  0  0  0
 20 26  1  0  0  0  0
 26 27  1  0  0  0  0
 26 28  1  0  0  0  0
 26 29  1  0  0  0  0
M  END
> <VConfSearch Rank>
762

> <Conf_Id>
58

> <Delta U+W>
0.412

> <U+W>
-27.414

> <U>
24.279

> <W>
-51.694

> <W(PB)>
-54.271

> <W(SA)>
2.577

> <Valence>
3.709

> <Coulomb>
19.380

> <VdW>
1.191

> <VdW6>
-8.093

> <VdW12>
9.284

> <Bond>
0.200

> <Angle>
1.161

> <Pdih>
2.348

> <Idih>
0.000

> <Tether>
0.000

$$$$
VeraChem MOL file


 29 28  0  0  0  0  0  0  0  0999 V2000     
   22.1361   17.0371   26.9474 C   0  0  0  0  0  0  0  0  0  0  0  0
   21.4915   17.4669   27.7252 H   0  0  0  0  0  0  0  0  0  0  0  0
   21.7446   16.0445   26.6888 H   0  0  0  0  0  0  0  0  0  0  0  0
   23.1379   16.9032   27.3758 H   0  0  0  0  0  0  0  0  0  0  0  0
   22.1924   17.9518   25.7057 C   0  0  0  0  0  0  0  0  0  0  0  0
   22.8701   17.5131   24.9600 H   0  0  0  0  0  0  0  0  0  0  0  0
   22.6188   18.9245   25.9884 H   0  0  0  0  0  0  0  0  0  0  0  0
   20.7939   18.1569   25.0826 C   0  0  0  0  0  0  0  0  0  0  0  0
   20.3709   17.1819   24.8036 H   0  0  0  0  0  0  0  0  0  0  0  0
   20.1195   18.5933   25.8323 H   0  0  0  0  0  0  0  0  0  0  0  0
   20.8463   19.0727   23.8390 C   0  0  0  0  0  0  0  0  0  0  0  0
   21.5215   18.6356   23.0903 H   0  0  0  0  0  0  0  0  0  0  0  0
   21.2699   20.0472   24.1190 H   0  0  0  0  0  0  0  0  0  0  0  0
   19.4470   19.2779   23.2159 C   0  0  0  0  0  0  0  0  0  0  0  0
   19.0290   18.3008   22.9398 H   0  0  0  0  0  0  0  0  0  0  0  0
   18.7790   19.7101   23.9725 H   0  0  0  0  0  0  0  0  0  0  0  0
   19.5057   20.2004   21.9706 C   0  0  0  0  0  0  0  0  0  0  0  0
   20.2147   19.7812   21.2445 H   0  0  0  0  0  0  0  0  0  0  0  0
   19.9140   21.1774   22.2617 H   0  0  0  0  0  0  0  0  0  0  0  0
   18.1503   20.4208   21.2582 C   0  0  2  0  0  0  0  0  0  0  0  0
   18.3398   21.0582   20.3890 H   0  0  0  0  0  0  0  0  0  0  0  0
   17.1357   21.1492   22.1567 C   0  0  0  0  0  0  0  0  0  0  0  0
   16.2374   21.4127   21.5850 H   0  0  0  0  0  0  0  0  0  0  0  0
   16.8228   20.5265   23.0032 H   0  0  0  0  0  0  0  0  0  0  0  0
   17.5626   22.0791   22.5525 H   0  0  0  0  0  0  0  0  0  0  0  0
   17.5711   19.1421   20.7187 N   0  3  0  0  0  0  0  0  0  0  0  0
   18.2235   18.6728   20.0839 H   0  0  0  0  0  0  0  0  0  0  0  0
   16.7066   19.3138   20.1972 H   0  0  0  0  0  0  0  0  0  0  0  0
   17.3498   18.4876   21.4731 H   0  0  0  0  0  0  0  0  0  0  0  0
  1  2  1  0  0  0  0
  1  3  1  0  0  0  0
  1  4  1  0  0  0  0
  1  5  1  0  0  0  0
  5  6  1  0  0  0  0
  5  7  1  0  0  0  0
  5  8  1  0  0  0  0
  8  9  1  0  0  0  0
  8 10  1  0  0  0  0
  8 11  1  0  0  0  0
 11 12  1  0  0  0  0
 11 13  1  0  0  0  0
 11 14  1  0  0  0  0
 14 15  1  0  0  0  0
 14 16  1  0  0  0  0
 14 17  1  0  0  0  0
 17 18  1  0  0  0  0
 17 19  1  0  0  0  0
 17 20  1  0  0  0  0
 20 21  1  0  0  0  0
 20 22  1  0  0  0  0
 22 23  1  0  0  0  0
 22 24  1  0  0  0  0
 22 25  1  0  0  0  0
 20 26  1  0  0  0  0
 26 27  1  0  0  0  0
 26 28  1  0  0  0  0
 26 29  1  0  0  0  0
M  END
> <VConfSearch Rank>
763

> <Conf_Id>
137

> <Delta U+W>
0.280

> <U+W>
-27.546

> <U>
24.513

> <W>
-52.059

> <W(PB)>
-54.556

> <W(SA)>
2.497

> <Valence>
3.677

> <Coulomb>
19.662

> <VdW>
1.174

> <VdW6>
-8.569

> <VdW12>
9.743

> <Bond>
0.224

> <Angle>
1.211

> <Pdih>
2.243

> <Idih>
0.000

> <Tether>
0.000

$$$$
VeraChem MOL file


 29 28  0  0  0  0  0  0  0  0999 V2000     
   20.3984   17.6850   19.3539 C   0  0  0  0  0  0  0  0  0  0  0  0
   21.2739   18.3444   19.4180 H   0  0  0  0  0  0  0  0  0  0  0  0
   20.7054   16.6779   19.6647 H   0  0  0  0  0  0  0  0  0  0  0  0
   20.0913   17.6340   18.3013 H   0  0  0  0  0  0  0  0  0  0  0  0
   19.2437   18.2090   20.2337 C   0  0  0  0  0  0  0  0  0  0  0  0
   18.3721   17.5489   20.1215 H   0  0  0  0  0  0  0  0  0  0  0  0
   18.9367   19.2028   19.8787 H   0  0  0  0  0  0  0  0  0  0  0  0
   19.6496   18.2898   21.7219 C   0  0  0  0  0  0  0  0  0  0  0  0
   19.9532   17.2937   22.0725 H   0  0  0  0  0  0  0  0  0  0  0  0
   20.5263   18.9433   21.8171 H   0  0  0  0  0  0  0  0  0  0  0  0
   18.4932   18.8193   22.6039 C   0  0  0  0  0  0  0  0  0  0  0  0
   17.6012   18.2023   22.4278 H   0  0  0  0  0  0  0  0  0  0  0  0
   18.2274   19.8397   22.2949 H   0  0  0  0  0  0  0  0  0  0  0  0
   18.8065   18.8010   24.1206 C   0  0  0  0  0  0  0  0  0  0  0  0
   17.8814   19.0480   24.6568 H   0  0  0  0  0  0  0  0  0  0  0  0
   19.0797   17.7818   24.4273 H   0  0  0  0  0  0  0  0  0  0  0  0
   19.9269   19.7905   24.5343 C   0  0  0  0  0  0  0  0  0  0  0  0
   19.6491   20.8105   24.2373 H   0  0  0  0  0  0  0  0  0  0  0  0
   20.8428   19.5440   23.9840 H   0  0  0  0  0  0  0  0  0  0  0  0
   20.2573   19.7609   26.0444 C   0  0  2  0  0  0  0  0  0  0  0  0
   20.4708   18.7260   26.3290 H   0  0  0  0  0  0  0  0  0  0  0  0
   19.0901   20.2737   26.9073 C   0  0  0  0  0  0  0  0  0  0  0  0
   18.7934   21.2876   26.6113 H   0  0  0  0  0  0  0  0  0  0  0  0
   18.2140   19.6206   26.8244 H   0  0  0  0  0  0  0  0  0  0  0  0
   19.3750   20.2987   27.9663 H   0  0  0  0  0  0  0  0  0  0  0  0
   21.5040   20.5473   26.3411 N   0  3  0  0  0  0  0  0  0  0  0  0
   22.3071   20.1954   25.8118 H   0  0  0  0  0  0  0  0  0  0  0  0
   21.7491   20.4988   27.3342 H   0  0  0  0  0  0  0  0  0  0  0  0
   21.3878   21.5361   26.1032 H   0  0  0  0  0  0  0  0  0  0  0  0
  1  2  1  0  0  0  0
  1  3  1  0  0  0  0
  1  4  1  0  0  0  0
  1  5  1  0  0  0  0
  5  6  1  0  0  0  0
  5  7  1  0  0  0  0
  5  8  1  0  0  0  0
  8  9  1  0  0  0  0
  8 10  1  0  0  0  0
  8 11  1  0  0  0  0
 11 12  1  0  0  0  0
 11 13  1  0  0  0  0
 11 14  1  0  0  0  0
 14 15  1  0  0  0  0
 14 16  1  0  0  0  0
 14 17  1  0  0  0  0
 17 18  1  0  0  0  0
 17 19  1  0  0  0  0
 17 20  1  0  0  0  0
 20 21  1  0  0  0  0
 20 22  1  0  0  0  0
 22 23  1  0  0  0  0
 22 24  1  0  0  0  0
 22 25  1  0  0  0  0
 20 26  1  0  0  0  0
 26 27  1  0  0  0  0
 26 28  1  0  0  0  0
 26 29  1  0  0  0  0
M  END
> <VConfSearch Rank>
764

> <Conf_Id>
40

> <Delta U+W>
1.128

> <U+W>
-26.698

> <U>
25.442

> <W>
-52.140

> <W(PB)>
-54.658

> <W(SA)>
2.519

> <Valence>
4.343

> <Coulomb>
19.740

> <VdW>
1.360

> <VdW6>
-8.739

> <VdW12>
10.099

> <Bond>
0.251

> <Angle>
1.483

> <Pdih>
2.608

> <Idih>
0.000

> <Tether>
0.000

$$$$
VeraChem MOL file


 29 28  0  0  0  0  0  0  0  0999 V2000     
   19.4804   18.1078   27.7468 C   0  0  0  0  0  0  0  0  0  0  0  0
   19.0734   19.1263   27.7321 H   0  0  0  0  0  0  0  0  0  0  0  0
   18.6536   17.4038   27.5866 H   0  0  0  0  0  0  0  0  0  0  0  0
   19.8831   17.9290   28.7522 H   0  0  0  0  0  0  0  0  0  0  0  0
   20.5846   17.9202   26.6816 C   0  0  0  0  0  0  0  0  0  0  0  0
   21.0462   16.9329   26.8234 H   0  0  0  0  0  0  0  0  0  0  0  0
   21.3829   18.6583   26.8417 H   0  0  0  0  0  0  0  0  0  0  0  0
   20.0640   18.0186   25.2272 C   0  0  0  0  0  0  0  0  0  0  0  0
   20.8842   17.7355   24.5556 H   0  0  0  0  0  0  0  0  0  0  0  0
   19.2665   17.2789   25.0727 H   0  0  0  0  0  0  0  0  0  0  0  0
   19.5479   19.4312   24.8515 C   0  0  0  0  0  0  0  0  0  0  0  0
   20.3468   20.1705   25.0003 H   0  0  0  0  0  0  0  0  0  0  0  0
   18.7351   19.7138   25.5327 H   0  0  0  0  0  0  0  0  0  0  0  0
   19.0104   19.5319   23.4023 C   0  0  0  0  0  0  0  0  0  0  0  0
   18.2250   18.7789   23.2487 H   0  0  0  0  0  0  0  0  0  0  0  0
   18.5260   20.5106   23.2894 H   0  0  0  0  0  0  0  0  0  0  0  0
   20.1085   19.3718   22.3192 C   0  0  0  0  0  0  0  0  0  0  0  0
   20.5727   18.3828   22.4150 H   0  0  0  0  0  0  0  0  0  0  0  0
   20.9040   20.1105   22.4844 H   0  0  0  0  0  0  0  0  0  0  0  0
   19.5610   19.5124   20.8821 C   0  0  2  0  0  0  0  0  0  0  0  0
   18.7463   18.7931   20.7535 H   0  0  0  0  0  0  0  0  0  0  0  0
   20.6593   19.1857   19.8576 C   0  0  0  0  0  0  0  0  0  0  0  0
   20.2678   19.2496   18.8348 H   0  0  0  0  0  0  0  0  0  0  0  0
   21.5032   19.8815   19.9449 H   0  0  0  0  0  0  0  0  0  0  0  0
   21.0396   18.1671   20.0048 H   0  0  0  0  0  0  0  0  0  0  0  0
   18.9825   20.8752   20.6148 N   0  3  0  0  0  0  0  0  0  0  0  0
   19.6896   21.6076   20.7201 H   0  0  0  0  0  0  0  0  0  0  0  0
   18.2172   21.0898   21.2596 H   0  0  0  0  0  0  0  0  0  0  0  0
   18.6095   20.9431   19.6635 H   0  0  0  0  0  0  0  0  0  0  0  0
  1  2  1  0  0  0  0
  1  3  1  0  0  0  0
  1  4  1  0  0  0  0
  1  5  1  0  0  0  0
  5  6  1  0  0  0  0
  5  7  1  0  0  0  0
  5  8  1  0  0  0  0
  8  9  1  0  0  0  0
  8 10  1  0  0  0  0
  8 11  1  0  0  0  0
 11 12  1  0  0  0  0
 11 13  1  0  0  0  0
 11 14  1  0  0  0  0
 14 15  1  0  0  0  0
 14 16  1  0  0  0  0
 14 17  1  0  0  0  0
 17 18  1  0  0  0  0
 17 19  1  0  0  0  0
 17 20  1  0  0  0  0
 20 21  1  0  0  0  0
 20 22  1  0  0  0  0
 22 23  1  0  0  0  0
 22 24  1  0  0  0  0
 22 25  1  0  0  0  0
 20 26  1  0  0  0  0
 26 27  1  0  0  0  0
 26 28  1  0  0  0  0
 26 29  1  0  0  0  0
M  END
> <VConfSearch Rank>
765

> <Conf_Id>
134

> <Delta U+W>
1.228

> <U+W>
-26.598

> <U>
25.451

> <W>
-52.048

> <W(PB)>
-54.539

> <W(SA)>
2.490

> <Valence>
4.319

> <Coulomb>
19.732

> <VdW>
1.400

> <VdW6>
-9.173

> <VdW12>
10.573

> <Bond>
0.281

> <Angle>
1.459

> <Pdih>
2.580

> <Idih>
0.000

> <Tether>
0.000

$$$$
VeraChem MOL file


 29 28  0  0  0  0  0  0  0  0999 V2000     
   20.2366   15.0162   22.1171 C   0  0  0  0  0  0  0  0  0  0  0  0
   20.2228   15.5332   21.1497 H   0  0  0  0  0  0  0  0  0  0  0  0
   21.2735   14.9839   22.4759 H   0  0  0  0  0  0  0  0  0  0  0  0
   19.9095   13.9830   21.9427 H   0  0  0  0  0  0  0  0  0  0  0  0
   19.3137   15.7085   23.1457 C   0  0  0  0  0  0  0  0  0  0  0  0
   19.2625   15.0845   24.0489 H   0  0  0  0  0  0  0  0  0  0  0  0
   18.2901   15.7598   22.7493 H   0  0  0  0  0  0  0  0  0  0  0  0
   19.7907   17.1248   23.5491 C   0  0  0  0  0  0  0  0  0  0  0  0
   19.1562   17.4736   24.3739 H   0  0  0  0  0  0  0  0  0  0  0  0
   20.8133   17.0678   23.9466 H   0  0  0  0  0  0  0  0  0  0  0  0
   19.7373   18.1480   22.3862 C   0  0  0  0  0  0  0  0  0  0  0  0
   18.7143   18.2059   21.9899 H   0  0  0  0  0  0  0  0  0  0  0  0
   20.3689   17.7960   21.5605 H   0  0  0  0  0  0  0  0  0  0  0  0
   20.2202   19.5636   22.7874 C   0  0  0  0  0  0  0  0  0  0  0  0
   21.2483   19.4971   23.1673 H   0  0  0  0  0  0  0  0  0  0  0  0
   20.2626   20.1857   21.8826 H   0  0  0  0  0  0  0  0  0  0  0  0
   19.3068   20.2564   23.8315 C   0  0  0  0  0  0  0  0  0  0  0  0
   19.3644   19.7300   24.7925 H   0  0  0  0  0  0  0  0  0  0  0  0
   18.2653   20.1783   23.4926 H   0  0  0  0  0  0  0  0  0  0  0  0
   19.6402   21.7497   24.0494 C   0  0  2  0  0  0  0  0  0  0  0  0
   19.6122   22.2529   23.0780 H   0  0  0  0  0  0  0  0  0  0  0  0
   21.0392   21.9470   24.6601 C   0  0  0  0  0  0  0  0  0  0  0  0
   21.1360   21.4097   25.6118 H   0  0  0  0  0  0  0  0  0  0  0  0
   21.8236   21.5904   23.9826 H   0  0  0  0  0  0  0  0  0  0  0  0
   21.2320   23.0103   24.8486 H   0  0  0  0  0  0  0  0  0  0  0  0
   18.5999   22.4191   24.9038 N   0  3  0  0  0  0  0  0  0  0  0  0
   17.6652   22.3372   24.4934 H   0  0  0  0  0  0  0  0  0  0  0  0
   18.7959   23.4178   25.0178 H   0  0  0  0  0  0  0  0  0  0  0  0
   18.5624   22.0064   25.8398 H   0  0  0  0  0  0  0  0  0  0  0  0
  1  2  1  0  0  0  0
  1  3  1  0  0  0  0
  1  4  1  0  0  0  0
  1  5  1  0  0  0  0
  5  6  1  0  0  0  0
  5  7  1  0  0  0  0
  5  8  1  0  0  0  0
  8  9  1  0  0  0  0
  8 10  1  0  0  0  0
  8 11  1  0  0  0  0
 11 12  1  0  0  0  0
 11 13  1  0  0  0  0
 11 14  1  0  0  0  0
 14 15  1  0  0  0  0
 14 16  1  0  0  0  0
 14 17  1  0  0  0  0
 17 18  1  0  0  0  0
 17 19  1  0  0  0  0
 17 20  1  0  0  0  0
 20 21  1  0  0  0  0
 20 22  1  0  0  0  0
 22 23  1  0  0  0  0
 22 24  1  0  0  0  0
 22 25  1  0  0  0  0
 20 26  1  0  0  0  0
 26 27  1  0  0  0  0
 26 28  1  0  0  0  0
 26 29  1  0  0  0  0
M  END
> <VConfSearch Rank>
766

> <Conf_Id>
73

> <Delta U+W>
1.580

> <U+W>
-26.246

> <U>
25.821

> <W>
-52.067

> <W(PB)>
-54.581

> <W(SA)>
2.514

> <Valence>
4.779

> <Coulomb>
19.614

> <VdW>
1.428

> <VdW6>
-9.390

> <VdW12>
10.818

> <Bond>
0.283

> <Angle>
1.640

> <Pdih>
2.856

> <Idih>
0.000

> <Tether>
0.000

$$$$
VeraChem MOL file


 29 28  0  0  0  0  0  0  0  0999 V2000     
   15.6961   20.4087   24.5541 C   0  0  0  0  0  0  0  0  0  0  0  0
   15.8697   21.1041   23.7225 H   0  0  0  0  0  0  0  0  0  0  0  0
   14.6176   20.2121   24.6096 H   0  0  0  0  0  0  0  0  0  0  0  0
   15.9962   20.9072   25.4851 H   0  0  0  0  0  0  0  0  0  0  0  0
   16.4797   19.0947   24.3512 C   0  0  0  0  0  0  0  0  0  0  0  0
   16.1352   18.6030   23.4307 H   0  0  0  0  0  0  0  0  0  0  0  0
   16.2587   18.4073   25.1798 H   0  0  0  0  0  0  0  0  0  0  0  0
   18.0022   19.3432   24.2707 C   0  0  0  0  0  0  0  0  0  0  0  0
   18.2069   20.0385   23.4463 H   0  0  0  0  0  0  0  0  0  0  0  0
   18.3421   19.8323   25.1940 H   0  0  0  0  0  0  0  0  0  0  0  0
   18.7882   18.0263   24.0624 C   0  0  0  0  0  0  0  0  0  0  0  0
   18.4931   17.5647   23.1099 H   0  0  0  0  0  0  0  0  0  0  0  0
   18.5052   17.3145   24.8502 H   0  0  0  0  0  0  0  0  0  0  0  0
   20.3259   18.2069   24.0972 C   0  0  0  0  0  0  0  0  0  0  0  0
   20.6202   18.6658   25.0513 H   0  0  0  0  0  0  0  0  0  0  0  0
   20.7845   17.2096   24.0796 H   0  0  0  0  0  0  0  0  0  0  0  0
   20.8770   19.0513   22.9194 C   0  0  0  0  0  0  0  0  0  0  0  0
   20.4365   20.0552   22.9553 H   0  0  0  0  0  0  0  0  0  0  0  0
   20.5671   18.6052   21.9651 H   0  0  0  0  0  0  0  0  0  0  0  0
   22.4143   19.1951   22.9496 C   0  0  2  0  0  0  0  0  0  0  0  0
   22.7013   19.6067   23.9222 H   0  0  0  0  0  0  0  0  0  0  0  0
   22.8813   20.1696   21.8565 C   0  0  0  0  0  0  0  0  0  0  0  0
   22.4202   21.1561   21.9903 H   0  0  0  0  0  0  0  0  0  0  0  0
   23.9695   20.3034   21.8947 H   0  0  0  0  0  0  0  0  0  0  0  0
   22.6169   19.8014   20.8572 H   0  0  0  0  0  0  0  0  0  0  0  0
   23.1209   17.8741   22.8121 N   0  3  0  0  0  0  0  0  0  0  0  0
   24.1378   17.9880   22.8519 H   0  0  0  0  0  0  0  0  0  0  0  0
   22.8974   17.4226   21.9212 H   0  0  0  0  0  0  0  0  0  0  0  0
   22.8557   17.2283   23.5606 H   0  0  0  0  0  0  0  0  0  0  0  0
  1  2  1  0  0  0  0
  1  3  1  0  0  0  0
  1  4  1  0  0  0  0
  1  5  1  0  0  0  0
  5  6  1  0  0  0  0
  5  7  1  0  0  0  0
  5  8  1  0  0  0  0
  8  9  1  0  0  0  0
  8 10  1  0  0  0  0
  8 11  1  0  0  0  0
 11 12  1  0  0  0  0
 11 13  1  0  0  0  0
 11 14  1  0  0  0  0
 14 15  1  0  0  0  0
 14 16  1  0  0  0  0
 14 17  1  0  0  0  0
 17 18  1  0  0  0  0
 17 19  1  0  0  0  0
 17 20  1  0  0  0  0
 20 21  1  0  0  0  0
 20 22  1  0  0  0  0
 22 23  1  0  0  0  0
 22 24  1  0  0  0  0
 22 25  1  0  0  0  0
 20 26  1  0  0  0  0
 26 27  1  0  0  0  0
 26 28  1  0  0  0  0
 26 29  1  0  0  0  0
M  END
> <VConfSearch Rank>
767

> <Conf_Id>
111

> <Delta U+W>
0.580

> <U+W>
-27.246

> <U>
24.710

> <W>
-51.957

> <W(PB)>
-54.511

> <W(SA)>
2.555

> <Valence>
3.735

> <Coulomb>
19.760

> <VdW>
1.216

> <VdW6>
-8.624

> <VdW12>
9.840

> <Bond>
0.236

> <Angle>
1.168

> <Pdih>
2.330

> <Idih>
0.000

> <Tether>
0.000

$$$$
VeraChem MOL file


 29 28  0  0  0  0  0  0  0  0999 V2000     
   15.8646   17.0909   23.0271 C   0  0  0  0  0  0  0  0  0  0  0  0
   15.8540   16.7611   24.0741 H   0  0  0  0  0  0  0  0  0  0  0  0
   15.5096   18.1292   22.9919 H   0  0  0  0  0  0  0  0  0  0  0  0
   15.1493   16.4710   22.4711 H   0  0  0  0  0  0  0  0  0  0  0  0
   17.2787   16.9674   22.4211 C   0  0  0  0  0  0  0  0  0  0  0  0
   17.2512   17.2726   21.3657 H   0  0  0  0  0  0  0  0  0  0  0  0
   17.5917   15.9141   22.4388 H   0  0  0  0  0  0  0  0  0  0  0  0
   18.3061   17.8304   23.1864 C   0  0  0  0  0  0  0  0  0  0  0  0
   17.9775   18.8778   23.1690 H   0  0  0  0  0  0  0  0  0  0  0  0
   18.3315   17.5206   24.2402 H   0  0  0  0  0  0  0  0  0  0  0  0
   19.7237   17.7106   22.5772 C   0  0  0  0  0  0  0  0  0  0  0  0
   19.7122   18.0688   21.5386 H   0  0  0  0  0  0  0  0  0  0  0  0
   20.0064   16.6496   22.5341 H   0  0  0  0  0  0  0  0  0  0  0  0
   20.8063   18.4745   23.3783 C   0  0  0  0  0  0  0  0  0  0  0  0
   20.8314   18.0874   24.4055 H   0  0  0  0  0  0  0  0  0  0  0  0
   21.7880   18.2521   22.9376 H   0  0  0  0  0  0  0  0  0  0  0  0
   20.5945   20.0105   23.3900 C   0  0  0  0  0  0  0  0  0  0  0  0
   19.6849   20.2614   23.9501 H   0  0  0  0  0  0  0  0  0  0  0  0
   20.4315   20.3494   22.3585 H   0  0  0  0  0  0  0  0  0  0  0  0
   21.7885   20.7945   23.9803 C   0  0  2  0  0  0  0  0  0  0  0  0
   22.6920   20.5063   23.4342 H   0  0  0  0  0  0  0  0  0  0  0  0
   22.0022   20.4859   25.4730 C   0  0  0  0  0  0  0  0  0  0  0  0
   21.0989   20.7037   26.0565 H   0  0  0  0  0  0  0  0  0  0  0  0
   22.2666   19.4336   25.6286 H   0  0  0  0  0  0  0  0  0  0  0  0
   22.8231   21.0900   25.8787 H   0  0  0  0  0  0  0  0  0  0  0  0
   21.6217   22.2742   23.7733 N   0  3  0  0  0  0  0  0  0  0  0  0
   21.5210   22.5072   22.7811 H   0  0  0  0  0  0  0  0  0  0  0  0
   22.4294   22.7946   24.1276 H   0  0  0  0  0  0  0  0  0  0  0  0
   20.7931   22.6288   24.2585 H   0  0  0  0  0  0  0  0  0  0  0  0
  1  2  1  0  0  0  0
  1  3  1  0  0  0  0
  1  4  1  0  0  0  0
  1  5  1  0  0  0  0
  5  6  1  0  0  0  0
  5  7  1  0  0  0  0
  5  8  1  0  0  0  0
  8  9  1  0  0  0  0
  8 10  1  0  0  0  0
  8 11  1  0  0  0  0
 11 12  1  0  0  0  0
 11 13  1  0  0  0  0
 11 14  1  0  0  0  0
 14 15  1  0  0  0  0
 14 16  1  0  0  0  0
 14 17  1  0  0  0  0
 17 18  1  0  0  0  0
 17 19  1  0  0  0  0
 17 20  1  0  0  0  0
 20 21  1  0  0  0  0
 20 22  1  0  0  0  0
 22 23  1  0  0  0  0
 22 24  1  0  0  0  0
 22 25  1  0  0  0  0
 20 26  1  0  0  0  0
 26 27  1  0  0  0  0
 26 28  1  0  0  0  0
 26 29  1  0  0  0  0
M  END
> <VConfSearch Rank>
768

> <Conf_Id>
39

> <Delta U+W>
0.965

> <U+W>
-26.861

> <U>
25.129

> <W>
-51.990

> <W(PB)>
-54.526

> <W(SA)>
2.536

> <Valence>
4.206

> <Coulomb>
19.678

> <VdW>
1.245

> <VdW6>
-8.834

> <VdW12>
10.079

> <Bond>
0.240

> <Angle>
1.353

> <Pdih>
2.613

> <Idih>
0.000

> <Tether>
0.000

$$$$
VeraChem MOL file


 29 28  0  0  0  0  0  0  0  0999 V2000     
   23.2090   17.7062   25.5589 C   0  0  0  0  0  0  0  0  0  0  0  0
   22.5829   17.2857   26.3565 H   0  0  0  0  0  0  0  0  0  0  0  0
   23.1610   17.0346   24.6930 H   0  0  0  0  0  0  0  0  0  0  0  0
   24.2475   17.7106   25.9146 H   0  0  0  0  0  0  0  0  0  0  0  0
   22.7570   19.1386   25.1943 C   0  0  0  0  0  0  0  0  0  0  0  0
   23.3750   19.5238   24.3712 H   0  0  0  0  0  0  0  0  0  0  0  0
   22.9454   19.7968   26.0540 H   0  0  0  0  0  0  0  0  0  0  0  0
   21.2594   19.2366   24.8151 C   0  0  0  0  0  0  0  0  0  0  0  0
   20.6462   18.8512   25.6412 H   0  0  0  0  0  0  0  0  0  0  0  0
   21.0062   20.2992   24.7101 H   0  0  0  0  0  0  0  0  0  0  0  0
   20.9047   18.4869   23.5057 C   0  0  0  0  0  0  0  0  0  0  0  0
   21.1665   17.4262   23.6107 H   0  0  0  0  0  0  0  0  0  0  0  0
   21.5146   18.8753   22.6786 H   0  0  0  0  0  0  0  0  0  0  0  0
   19.4047   18.5727   23.1299 C   0  0  0  0  0  0  0  0  0  0  0  0
   19.2290   17.9038   22.2774 H   0  0  0  0  0  0  0  0  0  0  0  0
   18.8039   18.1804   23.9610 H   0  0  0  0  0  0  0  0  0  0  0  0
   18.9399   20.0092   22.7646 C   0  0  0  0  0  0  0  0  0  0  0  0
   19.6209   20.4296   22.0130 H   0  0  0  0  0  0  0  0  0  0  0  0
   19.0195   20.6593   23.6445 H   0  0  0  0  0  0  0  0  0  0  0  0
   17.4939   20.1050   22.2233 C   0  0  2  0  0  0  0  0  0  0  0  0
   17.2995   21.1586   22.0000 H   0  0  0  0  0  0  0  0  0  0  0  0
   16.4564   19.6503   23.2645 C   0  0  0  0  0  0  0  0  0  0  0  0
   16.5323   18.5758   23.4695 H   0  0  0  0  0  0  0  0  0  0  0  0
   16.5898   20.1912   24.2096 H   0  0  0  0  0  0  0  0  0  0  0  0
   15.4395   19.8522   22.9063 H   0  0  0  0  0  0  0  0  0  0  0  0
   17.3150   19.3654   20.9260 N   0  3  0  0  0  0  0  0  0  0  0  0
   17.9741   19.6924   20.2136 H   0  0  0  0  0  0  0  0  0  0  0  0
   16.3707   19.4919   20.5505 H   0  0  0  0  0  0  0  0  0  0  0  0
   17.4652   18.3609   21.0473 H   0  0  0  0  0  0  0  0  0  0  0  0
  1  2  1  0  0  0  0
  1  3  1  0  0  0  0
  1  4  1  0  0  0  0
  1  5  1  0  0  0  0
  5  6  1  0  0  0  0
  5  7  1  0  0  0  0
  5  8  1  0  0  0  0
  8  9  1  0  0  0  0
  8 10  1  0  0  0  0
  8 11  1  0  0  0  0
 11 12  1  0  0  0  0
 11 13  1  0  0  0  0
 11 14  1  0  0  0  0
 14 15  1  0  0  0  0
 14 16  1  0  0  0  0
 14 17  1  0  0  0  0
 17 18  1  0  0  0  0
 17 19  1  0  0  0  0
 17 20  1  0  0  0  0
 20 21  1  0  0  0  0
 20 22  1  0  0  0  0
 22 23  1  0  0  0  0
 22 24  1  0  0  0  0
 22 25  1  0  0  0  0
 20 26  1  0  0  0  0
 26 27  1  0  0  0  0
 26 28  1  0  0  0  0
 26 29  1  0  0  0  0
M  END
> <VConfSearch Rank>
769

> <Conf_Id>
155

> <Delta U+W>
1.624

> <U+W>
-26.202

> <U>
25.894

> <W>
-52.096

> <W(PB)>
-54.602

> <W(SA)>
2.506

> <Valence>
4.779

> <Coulomb>
19.659

> <VdW>
1.456

> <VdW6>
-9.843

> <VdW12>
11.299

> <Bond>
0.315

> <Angle>
1.725

> <Pdih>
2.740

> <Idih>
0.000

> <Tether>
0.000

$$$$
VeraChem MOL file


 29 28  0  0  0  0  0  0  0  0999 V2000     
   21.8262   16.8885   26.2314 C   0  0  0  0  0  0  0  0  0  0  0  0
   21.0668   16.1939   25.8515 H   0  0  0  0  0  0  0  0  0  0  0  0
   22.5852   17.0294   25.4509 H   0  0  0  0  0  0  0  0  0  0  0  0
   22.3128   16.4085   27.0904 H   0  0  0  0  0  0  0  0  0  0  0  0
   21.2012   18.2390   26.6486 C   0  0  0  0  0  0  0  0  0  0  0  0
   21.9749   18.8551   27.1277 H   0  0  0  0  0  0  0  0  0  0  0  0
   20.4282   18.0685   27.4109 H   0  0  0  0  0  0  0  0  0  0  0  0
   20.6007   19.0292   25.4612 C   0  0  0  0  0  0  0  0  0  0  0  0
   20.2712   20.0116   25.8266 H   0  0  0  0  0  0  0  0  0  0  0  0
   21.3909   19.2199   24.7234 H   0  0  0  0  0  0  0  0  0  0  0  0
   19.4037   18.3098   24.7894 C   0  0  0  0  0  0  0  0  0  0  0  0
   18.6882   18.0080   25.5667 H   0  0  0  0  0  0  0  0  0  0  0  0
   19.7434   17.3846   24.3053 H   0  0  0  0  0  0  0  0  0  0  0  0
   18.6578   19.1837   23.7510 C   0  0  0  0  0  0  0  0  0  0  0  0
   17.7569   18.6397   23.4398 H   0  0  0  0  0  0  0  0  0  0  0  0
   18.3107   20.1094   24.2305 H   0  0  0  0  0  0  0  0  0  0  0  0
   19.5140   19.5289   22.5047 C   0  0  0  0  0  0  0  0  0  0  0  0
   19.8510   18.6038   22.0185 H   0  0  0  0  0  0  0  0  0  0  0  0
   20.4183   20.0583   22.8283 H   0  0  0  0  0  0  0  0  0  0  0  0
   18.7832   20.4209   21.4748 C   0  0  2  0  0  0  0  0  0  0  0  0
   18.4047   21.3063   21.9948 H   0  0  0  0  0  0  0  0  0  0  0  0
   17.5955   19.6971   20.8149 C   0  0  0  0  0  0  0  0  0  0  0  0
   17.9160   18.7631   20.3368 H   0  0  0  0  0  0  0  0  0  0  0  0
   16.8153   19.4591   21.5467 H   0  0  0  0  0  0  0  0  0  0  0  0
   17.1354   20.3312   20.0472 H   0  0  0  0  0  0  0  0  0  0  0  0
   19.7330   20.9217   20.4223 N   0  3  0  0  0  0  0  0  0  0  0  0
   20.5098   21.4469   20.8342 H   0  0  0  0  0  0  0  0  0  0  0  0
   19.2621   21.5445   19.7597 H   0  0  0  0  0  0  0  0  0  0  0  0
   20.1346   20.1498   19.8833 H   0  0  0  0  0  0  0  0  0  0  0  0
  1  2  1  0  0  0  0
  1  3  1  0  0  0  0
  1  4  1  0  0  0  0
  1  5  1  0  0  0  0
  5  6  1  0  0  0  0
  5  7  1  0  0  0  0
  5  8  1  0  0  0  0
  8  9  1  0  0  0  0
  8 10  1  0  0  0  0
  8 11  1  0  0  0  0
 11 12  1  0  0  0  0
 11 13  1  0  0  0  0
 11 14  1  0  0  0  0
 14 15  1  0  0  0  0
 14 16  1  0  0  0  0
 14 17  1  0  0  0  0
 17 18  1  0  0  0  0
 17 19  1  0  0  0  0
 17 20  1  0  0  0  0
 20 21  1  0  0  0  0
 20 22  1  0  0  0  0
 22 23  1  0  0  0  0
 22 24  1  0  0  0  0
 22 25  1  0  0  0  0
 20 26  1  0  0  0  0
 26 27  1  0  0  0  0
 26 28  1  0  0  0  0
 26 29  1  0  0  0  0
M  END
> <VConfSearch Rank>
770

> <Conf_Id>
135

> <Delta U+W>
1.581

> <U+W>
-26.245

> <U>
25.974

> <W>
-52.219

> <W(PB)>
-54.709

> <W(SA)>
2.490

> <Valence>
4.811

> <Coulomb>
19.700

> <VdW>
1.463

> <VdW6>
-9.391

> <VdW12>
10.854

> <Bond>
0.285

> <Angle>
1.671

> <Pdih>
2.855

> <Idih>
0.000

> <Tether>
0.000

$$$$
VeraChem MOL file


 29 28  0  0  0  0  0  0  0  0999 V2000     
   16.6148   21.4822   24.6256 C   0  0  0  0  0  0  0  0  0  0  0  0
   16.9124   21.9578   23.6820 H   0  0  0  0  0  0  0  0  0  0  0  0
   16.1026   20.5411   24.3900 H   0  0  0  0  0  0  0  0  0  0  0  0
   15.8870   22.1399   25.1183 H   0  0  0  0  0  0  0  0  0  0  0  0
   17.8385   21.2484   25.5400 C   0  0  0  0  0  0  0  0  0  0  0  0
   17.5185   20.7485   26.4649 H   0  0  0  0  0  0  0  0  0  0  0  0
   18.2465   22.2229   25.8426 H   0  0  0  0  0  0  0  0  0  0  0  0
   18.9621   20.4276   24.8627 C   0  0  0  0  0  0  0  0  0  0  0  0
   19.2931   20.9521   23.9567 H   0  0  0  0  0  0  0  0  0  0  0  0
   19.8278   20.3963   25.5384 H   0  0  0  0  0  0  0  0  0  0  0  0
   18.5383   18.9784   24.5144 C   0  0  0  0  0  0  0  0  0  0  0  0
   17.7516   18.9898   23.7485 H   0  0  0  0  0  0  0  0  0  0  0  0
   18.0973   18.5098   25.4050 H   0  0  0  0  0  0  0  0  0  0  0  0
   19.7129   18.0964   24.0249 C   0  0  0  0  0  0  0  0  0  0  0  0
   20.4800   18.0538   24.8093 H   0  0  0  0  0  0  0  0  0  0  0  0
   19.3464   17.0692   23.8917 H   0  0  0  0  0  0  0  0  0  0  0  0
   20.3357   18.5879   22.6927 C   0  0  0  0  0  0  0  0  0  0  0  0
   20.8265   19.5580   22.8416 H   0  0  0  0  0  0  0  0  0  0  0  0
   19.5272   18.7534   21.9685 H   0  0  0  0  0  0  0  0  0  0  0  0
   21.3473   17.5934   22.0791 C   0  0  2  0  0  0  0  0  0  0  0  0
   20.8525   16.6233   21.9711 H   0  0  0  0  0  0  0  0  0  0  0  0
   22.5904   17.4102   22.9680 C   0  0  0  0  0  0  0  0  0  0  0  0
   23.0895   18.3692   23.1549 H   0  0  0  0  0  0  0  0  0  0  0  0
   22.3271   16.9654   23.9346 H   0  0  0  0  0  0  0  0  0  0  0  0
   23.3129   16.7386   22.4880 H   0  0  0  0  0  0  0  0  0  0  0  0
   21.7546   18.0181   20.6956 N   0  3  0  0  0  0  0  0  0  0  0  0
   22.3944   17.3411   20.2700 H   0  0  0  0  0  0  0  0  0  0  0  0
   22.2318   18.9235   20.7075 H   0  0  0  0  0  0  0  0  0  0  0  0
   20.9453   18.1045   20.0741 H   0  0  0  0  0  0  0  0  0  0  0  0
  1  2  1  0  0  0  0
  1  3  1  0  0  0  0
  1  4  1  0  0  0  0
  1  5  1  0  0  0  0
  5  6  1  0  0  0  0
  5  7  1  0  0  0  0
  5  8  1  0  0  0  0
  8  9  1  0  0  0  0
  8 10  1  0  0  0  0
  8 11  1  0  0  0  0
 11 12  1  0  0  0  0
 11 13  1  0  0  0  0
 11 14  1  0  0  0  0
 14 15  1  0  0  0  0
 14 16  1  0  0  0  0
 14 17  1  0  0  0  0
 17 18  1  0  0  0  0
 17 19  1  0  0  0  0
 17 20  1  0  0  0  0
 20 21  1  0  0  0  0
 20 22  1  0  0  0  0
 22 23  1  0  0  0  0
 22 24  1  0  0  0  0
 22 25  1  0  0  0  0
 20 26  1  0  0  0  0
 26 27  1  0  0  0  0
 26 28  1  0  0  0  0
 26 29  1  0  0  0  0
M  END
> <VConfSearch Rank>
771

> <Conf_Id>
130

> <Delta U+W>
1.359

> <U+W>
-26.467

> <U>
25.687

> <W>
-52.154

> <W(PB)>
-54.643

> <W(SA)>
2.489

> <Valence>
4.682

> <Coulomb>
19.653

> <VdW>
1.352

> <VdW6>
-9.477

> <VdW12>
10.829

> <Bond>
0.274

> <Angle>
1.550

> <Pdih>
2.858

> <Idih>
0.000

> <Tether>
0.000

$$$$
VeraChem MOL file


 29 28  0  0  0  0  0  0  0  0999 V2000     
   22.7586   20.7924   25.6838 C   0  0  0  0  0  0  0  0  0  0  0  0
   23.8301   20.7664   25.9209 H   0  0  0  0  0  0  0  0  0  0  0  0
   22.3872   21.7985   25.9182 H   0  0  0  0  0  0  0  0  0  0  0  0
   22.2572   20.0769   26.3472 H   0  0  0  0  0  0  0  0  0  0  0  0
   22.5259   20.4468   24.1955 C   0  0  0  0  0  0  0  0  0  0  0  0
   22.8750   19.4244   23.9945 H   0  0  0  0  0  0  0  0  0  0  0  0
   23.1466   21.1106   23.5775 H   0  0  0  0  0  0  0  0  0  0  0  0
   21.0503   20.5926   23.7515 C   0  0  0  0  0  0  0  0  0  0  0  0
   20.7127   21.6214   23.9380 H   0  0  0  0  0  0  0  0  0  0  0  0
   21.0048   20.4478   22.6648 H   0  0  0  0  0  0  0  0  0  0  0  0
   20.0944   19.5953   24.4550 C   0  0  0  0  0  0  0  0  0  0  0  0
   20.0985   19.7964   25.5341 H   0  0  0  0  0  0  0  0  0  0  0  0
   20.4714   18.5730   24.3309 H   0  0  0  0  0  0  0  0  0  0  0  0
   18.6302   19.6991   23.9541 C   0  0  0  0  0  0  0  0  0  0  0  0
   17.9606   19.2038   24.6707 H   0  0  0  0  0  0  0  0  0  0  0  0
   18.3359   20.7577   23.9635 H   0  0  0  0  0  0  0  0  0  0  0  0
   18.3852   19.1189   22.5335 C   0  0  0  0  0  0  0  0  0  0  0  0
   19.2965   19.1703   21.9258 H   0  0  0  0  0  0  0  0  0  0  0  0
   17.6542   19.7656   22.0305 H   0  0  0  0  0  0  0  0  0  0  0  0
   17.8233   17.6772   22.5141 C   0  0  2  0  0  0  0  0  0  0  0  0
   16.8950   17.6654   23.0934 H   0  0  0  0  0  0  0  0  0  0  0  0
   18.7900   16.6544   23.1344 C   0  0  0  0  0  0  0  0  0  0  0  0
   18.9277   16.8426   24.2054 H   0  0  0  0  0  0  0  0  0  0  0  0
   18.3933   15.6366   23.0341 H   0  0  0  0  0  0  0  0  0  0  0  0
   19.7715   16.6876   22.6453 H   0  0  0  0  0  0  0  0  0  0  0  0
   17.4540   17.2613   21.1172 N   0  3  0  0  0  0  0  0  0  0  0  0
   16.7734   17.9029   20.7001 H   0  0  0  0  0  0  0  0  0  0  0  0
   17.0383   16.3255   21.1035 H   0  0  0  0  0  0  0  0  0  0  0  0
   18.2735   17.2405   20.5044 H   0  0  0  0  0  0  0  0  0  0  0  0
  1  2  1  0  0  0  0
  1  3  1  0  0  0  0
  1  4  1  0  0  0  0
  1  5  1  0  0  0  0
  5  6  1  0  0  0  0
  5  7  1  0  0  0  0
  5  8  1  0  0  0  0
  8  9  1  0  0  0  0
  8 10  1  0  0  0  0
  8 11  1  0  0  0  0
 11 12  1  0  0  0  0
 11 13  1  0  0  0  0
 11 14  1  0  0  0  0
 14 15  1  0  0  0  0
 14 16  1  0  0  0  0
 14 17  1  0  0  0  0
 17 18  1  0  0  0  0
 17 19  1  0  0  0  0
 17 20  1  0  0  0  0
 20 21  1  0  0  0  0
 20 22  1  0  0  0  0
 22 23  1  0  0  0  0
 22 24  1  0  0  0  0
 22 25  1  0  0  0  0
 20 26  1  0  0  0  0
 26 27  1  0  0  0  0
 26 28  1  0  0  0  0
 26 29  1  0  0  0  0
M  END
> <VConfSearch Rank>
772

> <Conf_Id>
157

> <Delta U+W>
4.354

> <U+W>
-23.472

> <U>
28.780

> <W>
-52.252

> <W(PB)>
-54.715

> <W(SA)>
2.462

> <Valence>
7.566

> <Coulomb>
19.822

> <VdW>
1.392

> <VdW6>
-10.248

> <VdW12>
11.641

> <Bond>
0.340

> <Angle>
2.096

> <Pdih>
5.129

> <Idih>
0.000

> <Tether>
0.000

$$$$
VeraChem MOL file


 29 28  0  0  0  0  0  0  0  0999 V2000     
   18.2403   16.7213   25.9182 C   0  0  0  0  0  0  0  0  0  0  0  0
   17.8055   15.7161   25.9913 H   0  0  0  0  0  0  0  0  0  0  0  0
   19.2128   16.6275   25.4225 H   0  0  0  0  0  0  0  0  0  0  0  0
   18.4158   17.0832   26.9396 H   0  0  0  0  0  0  0  0  0  0  0  0
   17.2862   17.6690   25.1543 C   0  0  0  0  0  0  0  0  0  0  0  0
   16.3316   17.6984   25.6980 H   0  0  0  0  0  0  0  0  0  0  0  0
   17.0553   17.2598   24.1609 H   0  0  0  0  0  0  0  0  0  0  0  0
   17.8285   19.1160   25.0290 C   0  0  0  0  0  0  0  0  0  0  0  0
   16.9788   19.8075   25.1144 H   0  0  0  0  0  0  0  0  0  0  0  0
   18.4858   19.3503   25.8776 H   0  0  0  0  0  0  0  0  0  0  0  0
   18.5508   19.4290   23.6932 C   0  0  0  0  0  0  0  0  0  0  0  0
   18.8172   20.4937   23.6988 H   0  0  0  0  0  0  0  0  0  0  0  0
   17.8482   19.2940   22.8594 H   0  0  0  0  0  0  0  0  0  0  0  0
   19.8180   18.5758   23.4396 C   0  0  0  0  0  0  0  0  0  0  0  0
   20.4897   18.6367   24.3060 H   0  0  0  0  0  0  0  0  0  0  0  0
   19.5282   17.5214   23.3460 H   0  0  0  0  0  0  0  0  0  0  0  0
   20.5769   18.9740   22.1474 C   0  0  0  0  0  0  0  0  0  0  0  0
   19.9109   18.8263   21.2868 H   0  0  0  0  0  0  0  0  0  0  0  0
   21.4201   18.2854   22.0034 H   0  0  0  0  0  0  0  0  0  0  0  0
   21.1004   20.4279   22.1354 C   0  0  2  0  0  0  0  0  0  0  0  0
   20.2476   21.1036   22.2475 H   0  0  0  0  0  0  0  0  0  0  0  0
   21.7828   20.7391   20.7940 C   0  0  0  0  0  0  0  0  0  0  0  0
   22.6540   20.0921   20.6319 H   0  0  0  0  0  0  0  0  0  0  0  0
   21.0866   20.5905   19.9591 H   0  0  0  0  0  0  0  0  0  0  0  0
   22.1213   21.7821   20.7635 H   0  0  0  0  0  0  0  0  0  0  0  0
   22.0313   20.7120   23.2819 N   0  3  0  0  0  0  0  0  0  0  0  0
   21.5726   20.5445   24.1816 H   0  0  0  0  0  0  0  0  0  0  0  0
   22.3492   21.6854   23.2743 H   0  0  0  0  0  0  0  0  0  0  0  0
   22.8628   20.1166   23.2429 H   0  0  0  0  0  0  0  0  0  0  0  0
  1  2  1  0  0  0  0
  1  3  1  0  0  0  0
  1  4  1  0  0  0  0
  1  5  1  0  0  0  0
  5  6  1  0  0  0  0
  5  7  1  0  0  0  0
  5  8  1  0  0  0  0
  8  9  1  0  0  0  0
  8 10  1  0  0  0  0
  8 11  1  0  0  0  0
 11 12  1  0  0  0  0
 11 13  1  0  0  0  0
 11 14  1  0  0  0  0
 14 15  1  0  0  0  0
 14 16  1  0  0  0  0
 14 17  1  0  0  0  0
 17 18  1  0  0  0  0
 17 19  1  0  0  0  0
 17 20  1  0  0  0  0
 20 21  1  0  0  0  0
 20 22  1  0  0  0  0
 22 23  1  0  0  0  0
 22 24  1  0  0  0  0
 22 25  1  0  0  0  0
 20 26  1  0  0  0  0
 26 27  1  0  0  0  0
 26 28  1  0  0  0  0
 26 29  1  0  0  0  0
M  END
> <VConfSearch Rank>
773

> <Conf_Id>
158

> <Delta U+W>
3.648

> <U+W>
-24.178

> <U>
28.057

> <W>
-52.235

> <W(PB)>
-54.696

> <W(SA)>
2.460

> <Valence>
6.543

> <Coulomb>
20.387

> <VdW>
1.127

> <VdW6>
-10.342

> <VdW12>
11.469

> <Bond>
0.308

> <Angle>
1.938

> <Pdih>
4.297

> <Idih>
0.000

> <Tether>
0.000

$$$$
VeraChem MOL file


 29 28  0  0  0  0  0  0  0  0999 V2000     
   21.4553   17.0417   20.8516 C   0  0  0  0  0  0  0  0  0  0  0  0
   22.0070   17.9464   20.5652 H   0  0  0  0  0  0  0  0  0  0  0  0
   21.6379   16.8494   21.9161 H   0  0  0  0  0  0  0  0  0  0  0  0
   21.8762   16.1992   20.2877 H   0  0  0  0  0  0  0  0  0  0  0  0
   19.9466   17.1926   20.5520 C   0  0  0  0  0  0  0  0  0  0  0  0
   19.4128   16.2886   20.8769 H   0  0  0  0  0  0  0  0  0  0  0  0
   19.8068   17.2578   19.4639 H   0  0  0  0  0  0  0  0  0  0  0  0
   19.3105   18.4410   21.2095 C   0  0  0  0  0  0  0  0  0  0  0  0
   19.8362   19.3431   20.8674 H   0  0  0  0  0  0  0  0  0  0  0  0
   18.2749   18.5331   20.8540 H   0  0  0  0  0  0  0  0  0  0  0  0
   19.3116   18.3915   22.7560 C   0  0  0  0  0  0  0  0  0  0  0  0
   20.3430   18.3538   23.1230 H   0  0  0  0  0  0  0  0  0  0  0  0
   18.8252   17.4650   23.0909 H   0  0  0  0  0  0  0  0  0  0  0  0
   18.5735   19.6076   23.3676 C   0  0  0  0  0  0  0  0  0  0  0  0
   18.9969   20.5466   22.9850 H   0  0  0  0  0  0  0  0  0  0  0  0
   17.5305   19.5834   23.0226 H   0  0  0  0  0  0  0  0  0  0  0  0
   18.5780   19.6145   24.9193 C   0  0  0  0  0  0  0  0  0  0  0  0
   18.6518   18.5890   25.3049 H   0  0  0  0  0  0  0  0  0  0  0  0
   17.6025   19.9903   25.2551 H   0  0  0  0  0  0  0  0  0  0  0  0
   19.6664   20.5073   25.5627 C   0  0  2  0  0  0  0  0  0  0  0  0
   19.5304   21.5286   25.1938 H   0  0  0  0  0  0  0  0  0  0  0  0
   21.0945   20.0573   25.2112 C   0  0  0  0  0  0  0  0  0  0  0  0
   21.2563   19.0049   25.4751 H   0  0  0  0  0  0  0  0  0  0  0  0
   21.2943   20.1842   24.1409 H   0  0  0  0  0  0  0  0  0  0  0  0
   21.8343   20.6615   25.7505 H   0  0  0  0  0  0  0  0  0  0  0  0
   19.4957   20.5723   27.0551 N   0  3  0  0  0  0  0  0  0  0  0  0
   18.5665   20.9166   27.3139 H   0  0  0  0  0  0  0  0  0  0  0  0
   20.1829   21.1995   27.4830 H   0  0  0  0  0  0  0  0  0  0  0  0
   19.6135   19.6510   27.4852 H   0  0  0  0  0  0  0  0  0  0  0  0
  1  2  1  0  0  0  0
  1  3  1  0  0  0  0
  1  4  1  0  0  0  0
  1  5  1  0  0  0  0
  5  6  1  0  0  0  0
  5  7  1  0  0  0  0
  5  8  1  0  0  0  0
  8  9  1  0  0  0  0
  8 10  1  0  0  0  0
  8 11  1  0  0  0  0
 11 12  1  0  0  0  0
 11 13  1  0  0  0  0
 11 14  1  0  0  0  0
 14 15  1  0  0  0  0
 14 16  1  0  0  0  0
 14 17  1  0  0  0  0
 17 18  1  0  0  0  0
 17 19  1  0  0  0  0
 17 20  1  0  0  0  0
 20 21  1  0  0  0  0
 20 22  1  0  0  0  0
 22 23  1  0  0  0  0
 22 24  1  0  0  0  0
 22 25  1  0  0  0  0
 20 26  1  0  0  0  0
 26 27  1  0  0  0  0
 26 28  1  0  0  0  0
 26 29  1  0  0  0  0
M  END
> <VConfSearch Rank>
774

> <Conf_Id>
156

> <Delta U+W>
3.393

> <U+W>
-24.433

> <U>
27.713

> <W>
-52.146

> <W(PB)>
-54.603

> <W(SA)>
2.458

> <Valence>
6.758

> <Coulomb>
19.720

> <VdW>
1.235

> <VdW6>
-9.782

> <VdW12>
11.017

> <Bond>
0.287

> <Angle>
1.880

> <Pdih>
4.591

> <Idih>
0.000

> <Tether>
0.000

$$$$
VeraChem MOL file


 29 28  0  0  0  0  0  0  0  0999 V2000     
   16.9875   16.6694   22.3501 C   0  0  0  0  0  0  0  0  0  0  0  0
   17.7144   15.8786   22.5771 H   0  0  0  0  0  0  0  0  0  0  0  0
   16.0575   16.4439   22.8882 H   0  0  0  0  0  0  0  0  0  0  0  0
   16.7720   16.6308   21.2744 H   0  0  0  0  0  0  0  0  0  0  0  0
   17.5359   18.0564   22.7464 C   0  0  0  0  0  0  0  0  0  0  0  0
   16.8009   18.8290   22.4810 H   0  0  0  0  0  0  0  0  0  0  0  0
   18.4411   18.2619   22.1599 H   0  0  0  0  0  0  0  0  0  0  0  0
   17.8516   18.1338   24.2586 C   0  0  0  0  0  0  0  0  0  0  0  0
   16.9539   17.8498   24.8248 H   0  0  0  0  0  0  0  0  0  0  0  0
   18.6164   17.3898   24.5172 H   0  0  0  0  0  0  0  0  0  0  0  0
   18.2980   19.5422   24.7297 C   0  0  0  0  0  0  0  0  0  0  0  0
   18.4767   19.5111   25.8133 H   0  0  0  0  0  0  0  0  0  0  0  0
   17.4659   20.2447   24.5836 H   0  0  0  0  0  0  0  0  0  0  0  0
   19.5580   20.1133   24.0288 C   0  0  0  0  0  0  0  0  0  0  0  0
   19.3498   20.2638   22.9621 H   0  0  0  0  0  0  0  0  0  0  0  0
   19.7475   21.1114   24.4441 H   0  0  0  0  0  0  0  0  0  0  0  0
   20.8201   19.2265   24.2102 C   0  0  0  0  0  0  0  0  0  0  0  0
   20.6408   18.2384   23.7691 H   0  0  0  0  0  0  0  0  0  0  0  0
   20.9926   19.0546   25.2808 H   0  0  0  0  0  0  0  0  0  0  0  0
   22.1131   19.7983   23.5823 C   0  0  2  0  0  0  0  0  0  0  0  0
   22.9032   19.0566   23.7351 H   0  0  0  0  0  0  0  0  0  0  0  0
   22.5638   21.1018   24.2645 C   0  0  0  0  0  0  0  0  0  0  0  0
   23.5525   21.4038   23.8976 H   0  0  0  0  0  0  0  0  0  0  0  0
   21.8684   21.9260   24.0669 H   0  0  0  0  0  0  0  0  0  0  0  0
   22.6393   20.9676   25.3507 H   0  0  0  0  0  0  0  0  0  0  0  0
   21.9958   19.9815   22.0942 N   0  3  0  0  0  0  0  0  0  0  0  0
   21.7428   19.1061   21.6271 H   0  0  0  0  0  0  0  0  0  0  0  0
   22.8786   20.3024   21.6865 H   0  0  0  0  0  0  0  0  0  0  0  0
   21.2801   20.6745   21.8617 H   0  0  0  0  0  0  0  0  0  0  0  0
  1  2  1  0  0  0  0
  1  3  1  0  0  0  0
  1  4  1  0  0  0  0
  1  5  1  0  0  0  0
  5  6  1  0  0  0  0
  5  7  1  0  0  0  0
  5  8  1  0  0  0  0
  8  9  1  0  0  0  0
  8 10  1  0  0  0  0
  8 11  1  0  0  0  0
 11 12  1  0  0  0  0
 11 13  1  0  0  0  0
 11 14  1  0  0  0  0
 14 15  1  0  0  0  0
 14 16  1  0  0  0  0
 14 17  1  0  0  0  0
 17 18  1  0  0  0  0
 17 19  1  0  0  0  0
 17 20  1  0  0  0  0
 20 21  1  0  0  0  0
 20 22  1  0  0  0  0
 22 23  1  0  0  0  0
 22 24  1  0  0  0  0
 22 25  1  0  0  0  0
 20 26  1  0  0  0  0
 26 27  1  0  0  0  0
 26 28  1  0  0  0  0
 26 29  1  0  0  0  0
M  END
> <VConfSearch Rank>
775

> <Conf_Id>
78

> <Delta U+W>
1.477

> <U+W>
-26.349

> <U>
26.385

> <W>
-52.734

> <W(PB)>
-55.179

> <W(SA)>
2.445

> <Valence>
4.726

> <Coulomb>
20.482

> <VdW>
1.177

> <VdW6>
-10.349

> <VdW12>
11.526

> <Bond>
0.319

> <Angle>
1.933

> <Pdih>
2.474

> <Idih>
0.000

> <Tether>
0.000

$$$$
VeraChem MOL file


 29 28  0  0  0  0  0  0  0  0999 V2000     
   21.6645   15.8599   23.8826 C   0  0  0  0  0  0  0  0  0  0  0  0
   22.4634   15.8290   23.1304 H   0  0  0  0  0  0  0  0  0  0  0  0
   21.8071   16.7617   24.4882 H   0  0  0  0  0  0  0  0  0  0  0  0
   21.7944   14.9920   24.5420 H   0  0  0  0  0  0  0  0  0  0  0  0
   20.2725   15.8245   23.2098 C   0  0  0  0  0  0  0  0  0  0  0  0
   19.4810   15.7770   23.9706 H   0  0  0  0  0  0  0  0  0  0  0  0
   20.1971   14.8896   22.6369 H   0  0  0  0  0  0  0  0  0  0  0  0
   20.0253   17.0150   22.2478 C   0  0  0  0  0  0  0  0  0  0  0  0
   20.9773   17.3689   21.8286 H   0  0  0  0  0  0  0  0  0  0  0  0
   19.4443   16.6467   21.3910 H   0  0  0  0  0  0  0  0  0  0  0  0
   19.2421   18.2018   22.8660 C   0  0  0  0  0  0  0  0  0  0  0  0
   18.2485   17.8567   23.1834 H   0  0  0  0  0  0  0  0  0  0  0  0
   19.0710   18.9390   22.0710 H   0  0  0  0  0  0  0  0  0  0  0  0
   19.9555   18.8823   24.0601 C   0  0  0  0  0  0  0  0  0  0  0  0
   20.0481   18.1612   24.8820 H   0  0  0  0  0  0  0  0  0  0  0  0
   20.9793   19.1590   23.7764 H   0  0  0  0  0  0  0  0  0  0  0  0
   19.1972   20.1216   24.6026 C   0  0  0  0  0  0  0  0  0  0  0  0
   19.7425   20.5203   25.4683 H   0  0  0  0  0  0  0  0  0  0  0  0
   18.2217   19.7915   24.9836 H   0  0  0  0  0  0  0  0  0  0  0  0
   18.9702   21.2591   23.5787 C   0  0  2  0  0  0  0  0  0  0  0  0
   18.4104   20.8550   22.7303 H   0  0  0  0  0  0  0  0  0  0  0  0
   20.2954   21.8405   23.0551 C   0  0  0  0  0  0  0  0  0  0  0  0
   20.1071   22.6778   22.3720 H   0  0  0  0  0  0  0  0  0  0  0  0
   20.9209   22.2066   23.8787 H   0  0  0  0  0  0  0  0  0  0  0  0
   20.8660   21.0889   22.4972 H   0  0  0  0  0  0  0  0  0  0  0  0
   18.1171   22.3503   24.1630 N   0  3  0  0  0  0  0  0  0  0  0  0
   18.5723   22.7906   24.9672 H   0  0  0  0  0  0  0  0  0  0  0  0
   17.2114   21.9922   24.4799 H   0  0  0  0  0  0  0  0  0  0  0  0
   17.9302   23.0871   23.4768 H   0  0  0  0  0  0  0  0  0  0  0  0
  1  2  1  0  0  0  0
  1  3  1  0  0  0  0
  1  4  1  0  0  0  0
  1  5  1  0  0  0  0
  5  6  1  0  0  0  0
  5  7  1  0  0  0  0
  5  8  1  0  0  0  0
  8  9  1  0  0  0  0
  8 10  1  0  0  0  0
  8 11  1  0  0  0  0
 11 12  1  0  0  0  0
 11 13  1  0  0  0  0
 11 14  1  0  0  0  0
 14 15  1  0  0  0  0
 14 16  1  0  0  0  0
 14 17  1  0  0  0  0
 17 18  1  0  0  0  0
 17 19  1  0  0  0  0
 17 20  1  0  0  0  0
 20 21  1  0  0  0  0
 20 22  1  0  0  0  0
 22 23  1  0  0  0  0
 22 24  1  0  0  0  0
 22 25  1  0  0  0  0
 20 26  1  0  0  0  0
 26 27  1  0  0  0  0
 26 28  1  0  0  0  0
 26 29  1  0  0  0  0
M  END
> <VConfSearch Rank>
776

> <Conf_Id>
145

> <Delta U+W>
3.784

> <U+W>
-24.042

> <U>
28.220

> <W>
-52.262

> <W(PB)>
-54.724

> <W(SA)>
2.462

> <Valence>
7.040

> <Coulomb>
19.984

> <VdW>
1.197

> <VdW6>
-10.566

> <VdW12>
11.763

> <Bond>
0.320

> <Angle>
2.280

> <Pdih>
4.439

> <Idih>
0.000

> <Tether>
0.000

$$$$
VeraChem MOL file


 29 28  0  0  0  0  0  0  0  0999 V2000     
   21.7708   18.0571   26.7584 C   0  0  0  0  0  0  0  0  0  0  0  0
   21.3431   18.0370   27.7693 H   0  0  0  0  0  0  0  0  0  0  0  0
   21.6089   17.0733   26.2989 H   0  0  0  0  0  0  0  0  0  0  0  0
   22.8535   18.2106   26.8536 H   0  0  0  0  0  0  0  0  0  0  0  0
   21.1341   19.1770   25.9087 C   0  0  0  0  0  0  0  0  0  0  0  0
   21.6136   19.1968   24.9226 H   0  0  0  0  0  0  0  0  0  0  0  0
   21.3432   20.1492   26.3763 H   0  0  0  0  0  0  0  0  0  0  0  0
   19.6042   18.9879   25.7705 C   0  0  0  0  0  0  0  0  0  0  0  0
   19.3753   17.9918   25.3675 H   0  0  0  0  0  0  0  0  0  0  0  0
   19.1652   19.0148   26.7775 H   0  0  0  0  0  0  0  0  0  0  0  0
   18.9231   20.0827   24.9084 C   0  0  0  0  0  0  0  0  0  0  0  0
   19.4956   21.0191   24.9584 H   0  0  0  0  0  0  0  0  0  0  0  0
   17.9456   20.3106   25.3556 H   0  0  0  0  0  0  0  0  0  0  0  0
   18.6778   19.6860   23.4296 C   0  0  0  0  0  0  0  0  0  0  0  0
   18.0142   18.8117   23.3998 H   0  0  0  0  0  0  0  0  0  0  0  0
   18.1278   20.5063   22.9512 H   0  0  0  0  0  0  0  0  0  0  0  0
   19.9739   19.3895   22.6289 C   0  0  0  0  0  0  0  0  0  0  0  0
   20.4715   18.5123   23.0599 H   0  0  0  0  0  0  0  0  0  0  0  0
   20.6731   20.2285   22.7412 H   0  0  0  0  0  0  0  0  0  0  0  0
   19.7602   19.1163   21.1212 C   0  0  2  0  0  0  0  0  0  0  0  0
   20.7342   18.8500   20.6991 H   0  0  0  0  0  0  0  0  0  0  0  0
   19.2563   20.3612   20.3702 C   0  0  0  0  0  0  0  0  0  0  0  0
   19.2526   20.1799   19.2884 H   0  0  0  0  0  0  0  0  0  0  0  0
   18.2358   20.6307   20.6666 H   0  0  0  0  0  0  0  0  0  0  0  0
   19.9088   21.2223   20.5603 H   0  0  0  0  0  0  0  0  0  0  0  0
   18.8616   17.9362   20.8731 N   0  3  0  0  0  0  0  0  0  0  0  0
   17.9184   18.1077   21.2303 H   0  0  0  0  0  0  0  0  0  0  0  0
   19.2165   17.0915   21.3303 H   0  0  0  0  0  0  0  0  0  0  0  0
   18.7795   17.7322   19.8730 H   0  0  0  0  0  0  0  0  0  0  0  0
  1  2  1  0  0  0  0
  1  3  1  0  0  0  0
  1  4  1  0  0  0  0
  1  5  1  0  0  0  0
  5  6  1  0  0  0  0
  5  7  1  0  0  0  0
  5  8  1  0  0  0  0
  8  9  1  0  0  0  0
  8 10  1  0  0  0  0
  8 11  1  0  0  0  0
 11 12  1  0  0  0  0
 11 13  1  0  0  0  0
 11 14  1  0  0  0  0
 14 15  1  0  0  0  0
 14 16  1  0  0  0  0
 14 17  1  0  0  0  0
 17 18  1  0  0  0  0
 17 19  1  0  0  0  0
 17 20  1  0  0  0  0
 20 21  1  0  0  0  0
 20 22  1  0  0  0  0
 22 23  1  0  0  0  0
 22 24  1  0  0  0  0
 22 25  1  0  0  0  0
 20 26  1  0  0  0  0
 26 27  1  0  0  0  0
 26 28  1  0  0  0  0
 26 29  1  0  0  0  0
M  END
> <VConfSearch Rank>
777

> <Conf_Id>
71

> <Delta U+W>
3.542

> <U+W>
-24.284

> <U>
28.217

> <W>
-52.501

> <W(PB)>
-54.947

> <W(SA)>
2.446

> <Valence>
6.821

> <Coulomb>
20.147

> <VdW>
1.249

> <VdW6>
-10.237

> <VdW12>
11.486

> <Bond>
0.317

> <Angle>
1.990

> <Pdih>
4.515

> <Idih>
0.000

> <Tether>
0.000

$$$$
VeraChem MOL file


 29 28  0  0  0  0  0  0  0  0999 V2000     
   16.0581   20.1565   23.0097 C   0  0  0  0  0  0  0  0  0  0  0  0
   15.9488   19.5634   23.9270 H   0  0  0  0  0  0  0  0  0  0  0  0
   15.6570   21.1603   23.2016 H   0  0  0  0  0  0  0  0  0  0  0  0
   15.4408   19.6901   22.2311 H   0  0  0  0  0  0  0  0  0  0  0  0
   17.5348   20.2245   22.5665 C   0  0  0  0  0  0  0  0  0  0  0  0
   17.6055   20.7946   21.6297 H   0  0  0  0  0  0  0  0  0  0  0  0
   17.8889   19.2113   22.3417 H   0  0  0  0  0  0  0  0  0  0  0  0
   18.4235   20.8893   23.6452 C   0  0  0  0  0  0  0  0  0  0  0  0
   18.0505   21.9093   23.8124 H   0  0  0  0  0  0  0  0  0  0  0  0
   18.3163   20.3669   24.6058 H   0  0  0  0  0  0  0  0  0  0  0  0
   19.9203   20.9738   23.2475 C   0  0  0  0  0  0  0  0  0  0  0  0
   20.3231   21.9200   23.6345 H   0  0  0  0  0  0  0  0  0  0  0  0
   20.0225   21.0345   22.1552 H   0  0  0  0  0  0  0  0  0  0  0  0
   20.8052   19.8288   23.8043 C   0  0  0  0  0  0  0  0  0  0  0  0
   21.8462   20.0416   23.5285 H   0  0  0  0  0  0  0  0  0  0  0  0
   20.7668   19.8517   24.9015 H   0  0  0  0  0  0  0  0  0  0  0  0
   20.4116   18.4172   23.2939 C   0  0  0  0  0  0  0  0  0  0  0  0
   20.3177   18.4398   22.2004 H   0  0  0  0  0  0  0  0  0  0  0  0
   19.4214   18.1523   23.6847 H   0  0  0  0  0  0  0  0  0  0  0  0
   21.3978   17.2892   23.6785 C   0  0  2  0  0  0  0  0  0  0  0  0
   21.0051   16.3573   23.2601 H   0  0  0  0  0  0  0  0  0  0  0  0
   21.5019   17.1082   25.2029 C   0  0  0  0  0  0  0  0  0  0  0  0
   20.5087   16.9689   25.6475 H   0  0  0  0  0  0  0  0  0  0  0  0
   22.1016   16.2220   25.4440 H   0  0  0  0  0  0  0  0  0  0  0  0
   21.9750   17.9736   25.6821 H   0  0  0  0  0  0  0  0  0  0  0  0
   22.7574   17.4797   23.0644 N   0  3  0  0  0  0  0  0  0  0  0  0
   22.7012   17.5581   22.0449 H   0  0  0  0  0  0  0  0  0  0  0  0
   23.3775   16.6931   23.2774 H   0  0  0  0  0  0  0  0  0  0  0  0
   23.2076   18.3289   23.4147 H   0  0  0  0  0  0  0  0  0  0  0  0
  1  2  1  0  0  0  0
  1  3  1  0  0  0  0
  1  4  1  0  0  0  0
  1  5  1  0  0  0  0
  5  6  1  0  0  0  0
  5  7  1  0  0  0  0
  5  8  1  0  0  0  0
  8  9  1  0  0  0  0
  8 10  1  0  0  0  0
  8 11  1  0  0  0  0
 11 12  1  0  0  0  0
 11 13  1  0  0  0  0
 11 14  1  0  0  0  0
 14 15  1  0  0  0  0
 14 16  1  0  0  0  0
 14 17  1  0  0  0  0
 17 18  1  0  0  0  0
 17 19  1  0  0  0  0
 17 20  1  0  0  0  0
 20 21  1  0  0  0  0
 20 22  1  0  0  0  0
 22 23  1  0  0  0  0
 22 24  1  0  0  0  0
 22 25  1  0  0  0  0
 20 26  1  0  0  0  0
 26 27  1  0  0  0  0
 26 28  1  0  0  0  0
 26 29  1  0  0  0  0
M  END
> <VConfSearch Rank>
778

> <Conf_Id>
163

> <Delta U+W>
3.309

> <U+W>
-24.517

> <U>
27.916

> <W>
-52.433

> <W(PB)>
-54.866

> <W(SA)>
2.433

> <Valence>
6.693

> <Coulomb>
20.015

> <VdW>
1.208

> <VdW6>
-10.294

> <VdW12>
11.503

> <Bond>
0.312

> <Angle>
1.939

> <Pdih>
4.441

> <Idih>
0.000

> <Tether>
0.000

$$$$
VeraChem MOL file


 29 28  0  0  0  0  0  0  0  0999 V2000     
   20.0831   16.2372   26.2132 C   0  0  0  0  0  0  0  0  0  0  0  0
   19.0504   15.8757   26.3025 H   0  0  0  0  0  0  0  0  0  0  0  0
   20.5383   15.7653   25.3338 H   0  0  0  0  0  0  0  0  0  0  0  0
   20.6370   15.8919   27.0957 H   0  0  0  0  0  0  0  0  0  0  0  0
   20.1258   17.7792   26.1179 C   0  0  0  0  0  0  0  0  0  0  0  0
   21.1652   18.1139   25.9937 H   0  0  0  0  0  0  0  0  0  0  0  0
   19.7792   18.2008   27.0717 H   0  0  0  0  0  0  0  0  0  0  0  0
   19.2511   18.3524   24.9767 C   0  0  0  0  0  0  0  0  0  0  0  0
   18.2126   18.0187   25.1072 H   0  0  0  0  0  0  0  0  0  0  0  0
   19.2409   19.4455   25.0753 H   0  0  0  0  0  0  0  0  0  0  0  0
   19.7515   17.9644   23.5622 C   0  0  0  0  0  0  0  0  0  0  0  0
   19.7620   16.8710   23.4664 H   0  0  0  0  0  0  0  0  0  0  0  0
   20.7927   18.2895   23.4368 H   0  0  0  0  0  0  0  0  0  0  0  0
   18.8732   18.5328   22.4173 C   0  0  0  0  0  0  0  0  0  0  0  0
   19.2609   18.1647   21.4579 H   0  0  0  0  0  0  0  0  0  0  0  0
   17.8597   18.1176   22.5048 H   0  0  0  0  0  0  0  0  0  0  0  0
   18.7750   20.0812   22.3703 C   0  0  0  0  0  0  0  0  0  0  0  0
   18.2064   20.4334   23.2404 H   0  0  0  0  0  0  0  0  0  0  0  0
   18.1866   20.3740   21.4907 H   0  0  0  0  0  0  0  0  0  0  0  0
   20.1419   20.7995   22.3325 C   0  0  2  0  0  0  0  0  0  0  0  0
   20.7127   20.4994   23.2164 H   0  0  0  0  0  0  0  0  0  0  0  0
   19.9483   22.3232   22.3810 C   0  0  0  0  0  0  0  0  0  0  0  0
   20.9172   22.8374   22.3921 H   0  0  0  0  0  0  0  0  0  0  0  0
   19.3820   22.6795   21.5113 H   0  0  0  0  0  0  0  0  0  0  0  0
   19.4045   22.6180   23.2871 H   0  0  0  0  0  0  0  0  0  0  0  0
   20.9600   20.4064   21.1333 N   0  3  0  0  0  0  0  0  0  0  0  0
   21.1197   19.3956   21.1089 H   0  0  0  0  0  0  0  0  0  0  0  0
   21.8761   20.8640   21.1376 H   0  0  0  0  0  0  0  0  0  0  0  0
   20.4910   20.6659   20.2615 H   0  0  0  0  0  0  0  0  0  0  0  0
  1  2  1  0  0  0  0
  1  3  1  0  0  0  0
  1  4  1  0  0  0  0
  1  5  1  0  0  0  0
  5  6  1  0  0  0  0
  5  7  1  0  0  0  0
  5  8  1  0  0  0  0
  8  9  1  0  0  0  0
  8 10  1  0  0  0  0
  8 11  1  0  0  0  0
 11 12  1  0  0  0  0
 11 13  1  0  0  0  0
 11 14  1  0  0  0  0
 14 15  1  0  0  0  0
 14 16  1  0  0  0  0
 14 17  1  0  0  0  0
 17 18  1  0  0  0  0
 17 19  1  0  0  0  0
 17 20  1  0  0  0  0
 20 21  1  0  0  0  0
 20 22  1  0  0  0  0
 22 23  1  0  0  0  0
 22 24  1  0  0  0  0
 22 25  1  0  0  0  0
 20 26  1  0  0  0  0
 26 27  1  0  0  0  0
 26 28  1  0  0  0  0
 26 29  1  0  0  0  0
M  END
> <VConfSearch Rank>
779

> <Conf_Id>
173

> <Delta U+W>
1.363

> <U+W>
-26.462

> <U>
25.816

> <W>
-52.279

> <W(PB)>
-54.727

> <W(SA)>
2.449

> <Valence>
4.504

> <Coulomb>
20.342

> <VdW>
0.971

> <VdW6>
-10.532

> <VdW12>
11.503

> <Bond>
0.307

> <Angle>
1.715

> <Pdih>
2.481

> <Idih>
0.000

> <Tether>
0.000

$$$$
VeraChem MOL file


 29 28  0  0  0  0  0  0  0  0999 V2000     
   23.2339   17.3783   24.1573 C   0  0  0  0  0  0  0  0  0  0  0  0
   23.5733   18.0157   24.9843 H   0  0  0  0  0  0  0  0  0  0  0  0
   23.3641   16.3304   24.4575 H   0  0  0  0  0  0  0  0  0  0  0  0
   23.8887   17.5658   23.2965 H   0  0  0  0  0  0  0  0  0  0  0  0
   21.7626   17.6743   23.7974 C   0  0  0  0  0  0  0  0  0  0  0  0
   21.4602   17.0417   22.9513 H   0  0  0  0  0  0  0  0  0  0  0  0
   21.6826   18.7185   23.4678 H   0  0  0  0  0  0  0  0  0  0  0  0
   20.8212   17.4276   24.9983 C   0  0  0  0  0  0  0  0  0  0  0  0
   21.0006   16.4171   25.3906 H   0  0  0  0  0  0  0  0  0  0  0  0
   21.0788   18.1206   25.8111 H   0  0  0  0  0  0  0  0  0  0  0  0
   19.3120   17.5601   24.6681 C   0  0  0  0  0  0  0  0  0  0  0  0
   18.7519   17.3250   25.5838 H   0  0  0  0  0  0  0  0  0  0  0  0
   19.0169   16.7949   23.9370 H   0  0  0  0  0  0  0  0  0  0  0  0
   18.8767   18.9675   24.1828 C   0  0  0  0  0  0  0  0  0  0  0  0
   17.8806   19.1778   24.5942 H   0  0  0  0  0  0  0  0  0  0  0  0
   19.5479   19.7253   24.6068 H   0  0  0  0  0  0  0  0  0  0  0  0
   18.8074   19.0847   22.6347 C   0  0  0  0  0  0  0  0  0  0  0  0
   18.0875   18.3481   22.2546 H   0  0  0  0  0  0  0  0  0  0  0  0
   19.7708   18.8131   22.1890 H   0  0  0  0  0  0  0  0  0  0  0  0
   18.3995   20.4799   22.1060 C   0  0  2  0  0  0  0  0  0  0  0  0
   18.3284   20.4062   21.0164 H   0  0  0  0  0  0  0  0  0  0  0  0
   19.4556   21.5510   22.4302 C   0  0  0  0  0  0  0  0  0  0  0  0
   20.4482   21.2376   22.0837 H   0  0  0  0  0  0  0  0  0  0  0  0
   19.2109   22.4946   21.9274 H   0  0  0  0  0  0  0  0  0  0  0  0
   19.5146   21.7515   23.5064 H   0  0  0  0  0  0  0  0  0  0  0  0
   17.0379   20.9022   22.5848 N   0  3  0  0  0  0  0  0  0  0  0  0
   16.3217   20.2150   22.3330 H   0  0  0  0  0  0  0  0  0  0  0  0
   16.7592   21.7990   22.1765 H   0  0  0  0  0  0  0  0  0  0  0  0
   17.0194   21.0088   23.6021 H   0  0  0  0  0  0  0  0  0  0  0  0
  1  2  1  0  0  0  0
  1  3  1  0  0  0  0
  1  4  1  0  0  0  0
  1  5  1  0  0  0  0
  5  6  1  0  0  0  0
  5  7  1  0  0  0  0
  5  8  1  0  0  0  0
  8  9  1  0  0  0  0
  8 10  1  0  0  0  0
  8 11  1  0  0  0  0
 11 12  1  0  0  0  0
 11 13  1  0  0  0  0
 11 14  1  0  0  0  0
 14 15  1  0  0  0  0
 14 16  1  0  0  0  0
 14 17  1  0  0  0  0
 17 18  1  0  0  0  0
 17 19  1  0  0  0  0
 17 20  1  0  0  0  0
 20 21  1  0  0  0  0
 20 22  1  0  0  0  0
 22 23  1  0  0  0  0
 22 24  1  0  0  0  0
 22 25  1  0  0  0  0
 20 26  1  0  0  0  0
 26 27  1  0  0  0  0
 26 28  1  0  0  0  0
 26 29  1  0  0  0  0
M  END
> <VConfSearch Rank>
780

> <Conf_Id>
117

> <Delta U+W>
3.377

> <U+W>
-24.449

> <U>
27.947

> <W>
-52.396

> <W(PB)>
-54.842

> <W(SA)>
2.447

> <Valence>
6.731

> <Coulomb>
20.067

> <VdW>
1.149

> <VdW6>
-10.427

> <VdW12>
11.575

> <Bond>
0.324

> <Angle>
1.943

> <Pdih>
4.465

> <Idih>
0.000

> <Tether>
0.000

$$$$
VeraChem MOL file


 29 28  0  0  0  0  0  0  0  0999 V2000     
   22.0107   22.7089   21.1436 C   0  0  0  0  0  0  0  0  0  0  0  0
   21.7426   22.3031   20.1594 H   0  0  0  0  0  0  0  0  0  0  0  0
   21.2744   23.4790   21.4082 H   0  0  0  0  0  0  0  0  0  0  0  0
   22.9901   23.1963   21.0518 H   0  0  0  0  0  0  0  0  0  0  0  0
   22.0547   21.5941   22.2098 C   0  0  0  0  0  0  0  0  0  0  0  0
   22.3581   22.0241   23.1747 H   0  0  0  0  0  0  0  0  0  0  0  0
   22.8227   20.8573   21.9355 H   0  0  0  0  0  0  0  0  0  0  0  0
   20.6874   20.8912   22.3591 C   0  0  0  0  0  0  0  0  0  0  0  0
   19.9227   21.6319   22.6310 H   0  0  0  0  0  0  0  0  0  0  0  0
   20.3874   20.4650   21.3917 H   0  0  0  0  0  0  0  0  0  0  0  0
   20.7275   19.7741   23.4261 C   0  0  0  0  0  0  0  0  0  0  0  0
   21.0290   20.2015   24.3925 H   0  0  0  0  0  0  0  0  0  0  0  0
   21.4923   19.0337   23.1532 H   0  0  0  0  0  0  0  0  0  0  0  0
   19.3592   19.0716   23.5756 C   0  0  0  0  0  0  0  0  0  0  0  0
   18.5957   19.8122   23.8519 H   0  0  0  0  0  0  0  0  0  0  0  0
   19.0620   18.6531   22.6048 H   0  0  0  0  0  0  0  0  0  0  0  0
   19.4025   17.9524   24.6441 C   0  0  0  0  0  0  0  0  0  0  0  0
   19.7538   18.3806   25.5924 H   0  0  0  0  0  0  0  0  0  0  0  0
   20.1371   17.1895   24.3534 H   0  0  0  0  0  0  0  0  0  0  0  0
   18.0283   17.2882   24.8770 C   0  0  2  0  0  0  0  0  0  0  0  0
   17.3097   18.0701   25.1413 H   0  0  0  0  0  0  0  0  0  0  0  0
   18.1076   16.2910   26.0440 C   0  0  0  0  0  0  0  0  0  0  0  0
   17.1257   15.8422   26.2386 H   0  0  0  0  0  0  0  0  0  0  0  0
   18.8165   15.4821   25.8274 H   0  0  0  0  0  0  0  0  0  0  0  0
   18.4322   16.7927   26.9641 H   0  0  0  0  0  0  0  0  0  0  0  0
   17.4986   16.6126   23.6417 N   0  3  0  0  0  0  0  0  0  0  0  0
   17.3983   17.2747   22.8676 H   0  0  0  0  0  0  0  0  0  0  0  0
   16.5786   16.1951   23.8090 H   0  0  0  0  0  0  0  0  0  0  0  0
   18.1229   15.8642   23.3292 H   0  0  0  0  0  0  0  0  0  0  0  0
  1  2  1  0  0  0  0
  1  3  1  0  0  0  0
  1  4  1  0  0  0  0
  1  5  1  0  0  0  0
  5  6  1  0  0  0  0
  5  7  1  0  0  0  0
  5  8  1  0  0  0  0
  8  9  1  0  0  0  0
  8 10  1  0  0  0  0
  8 11  1  0  0  0  0
 11 12  1  0  0  0  0
 11 13  1  0  0  0  0
 11 14  1  0  0  0  0
 14 15  1  0  0  0  0
 14 16  1  0  0  0  0
 14 17  1  0  0  0  0
 17 18  1  0  0  0  0
 17 19  1  0  0  0  0
 17 20  1  0  0  0  0
 20 21  1  0  0  0  0
 20 22  1  0  0  0  0
 22 23  1  0  0  0  0
 22 24  1  0  0  0  0
 22 25  1  0  0  0  0
 20 26  1  0  0  0  0
 26 27  1  0  0  0  0
 26 28  1  0  0  0  0
 26 29  1  0  0  0  0
M  END
> <VConfSearch Rank>
781

> <Conf_Id>
164

> <Delta U+W>
0.000

> <U+W>
-27.826

> <U>
23.963

> <W>
-51.789

> <W(PB)>
-54.342

> <W(SA)>
2.554

> <Valence>
3.166

> <Coulomb>
19.734

> <VdW>
1.062

> <VdW6>
-7.938

> <VdW12>
9.001

> <Bond>
0.188

> <Angle>
0.880

> <Pdih>
2.098

> <Idih>
0.000

> <Tether>
0.000

$$$$
VeraChem MOL file


 29 28  0  0  0  0  0  0  0  0999 V2000     
   19.8782   14.4270   22.2270 C   0  0  0  0  0  0  0  0  0  0  0  0
   19.0294   14.1435   22.8630 H   0  0  0  0  0  0  0  0  0  0  0  0
   19.4959   14.6348   21.2191 H   0  0  0  0  0  0  0  0  0  0  0  0
   20.5526   13.5635   22.1603 H   0  0  0  0  0  0  0  0  0  0  0  0
   20.6178   15.6529   22.8032 C   0  0  0  0  0  0  0  0  0  0  0  0
   21.4802   15.8915   22.1651 H   0  0  0  0  0  0  0  0  0  0  0  0
   21.0173   15.4040   23.7964 H   0  0  0  0  0  0  0  0  0  0  0  0
   19.6900   16.8835   22.9077 C   0  0  0  0  0  0  0  0  0  0  0  0
   19.2913   17.1268   21.9132 H   0  0  0  0  0  0  0  0  0  0  0  0
   18.8285   16.6395   23.5447 H   0  0  0  0  0  0  0  0  0  0  0  0
   20.4272   18.1132   23.4844 C   0  0  0  0  0  0  0  0  0  0  0  0
   21.2884   18.3567   22.8468 H   0  0  0  0  0  0  0  0  0  0  0  0
   20.8265   17.8677   24.4782 H   0  0  0  0  0  0  0  0  0  0  0  0
   19.4984   19.3440   23.5892 C   0  0  0  0  0  0  0  0  0  0  0  0
   19.0986   19.5752   22.5932 H   0  0  0  0  0  0  0  0  0  0  0  0
   18.6399   19.1018   24.2309 H   0  0  0  0  0  0  0  0  0  0  0  0
   20.2408   20.5759   24.1628 C   0  0  0  0  0  0  0  0  0  0  0  0
   21.0601   20.8613   23.4896 H   0  0  0  0  0  0  0  0  0  0  0  0
   20.7061   20.2909   25.1157 H   0  0  0  0  0  0  0  0  0  0  0  0
   19.3240   21.7953   24.4123 C   0  0  2  0  0  0  0  0  0  0  0  0
   18.4942   21.4760   25.0503 H   0  0  0  0  0  0  0  0  0  0  0  0
   18.7432   22.3624   23.1045 C   0  0  0  0  0  0  0  0  0  0  0  0
   19.5405   22.6388   22.4033 H   0  0  0  0  0  0  0  0  0  0  0  0
   18.0875   21.6358   22.6110 H   0  0  0  0  0  0  0  0  0  0  0  0
   18.1416   23.2574   23.3053 H   0  0  0  0  0  0  0  0  0  0  0  0
   20.0499   22.8729   25.1687 N   0  3  0  0  0  0  0  0  0  0  0  0
   19.4352   23.6666   25.3710 H   0  0  0  0  0  0  0  0  0  0  0  0
   20.8468   23.2319   24.6359 H   0  0  0  0  0  0  0  0  0  0  0  0
   20.4081   22.5292   26.0645 H   0  0  0  0  0  0  0  0  0  0  0  0
  1  2  1  0  0  0  0
  1  3  1  0  0  0  0
  1  4  1  0  0  0  0
  1  5  1  0  0  0  0
  5  6  1  0  0  0  0
  5  7  1  0  0  0  0
  5  8  1  0  0  0  0
  8  9  1  0  0  0  0
  8 10  1  0  0  0  0
  8 11  1  0  0  0  0
 11 12  1  0  0  0  0
 11 13  1  0  0  0  0
 11 14  1  0  0  0  0
 14 15  1  0  0  0  0
 14 16  1  0  0  0  0
 14 17  1  0  0  0  0
 17 18  1  0  0  0  0
 17 19  1  0  0  0  0
 17 20  1  0  0  0  0
 20 21  1  0  0  0  0
 20 22  1  0  0  0  0
 22 23  1  0  0  0  0
 22 24  1  0  0  0  0
 22 25  1  0  0  0  0
 20 26  1  0  0  0  0
 26 27  1  0  0  0  0
 26 28  1  0  0  0  0
 26 29  1  0  0  0  0
M  END
> <VConfSearch Rank>
782

> <Conf_Id>
58

> <Delta U+W>
0.412

> <U+W>
-27.414

> <U>
24.279

> <W>
-51.694

> <W(PB)>
-54.271

> <W(SA)>
2.577

> <Valence>
3.709

> <Coulomb>
19.380

> <VdW>
1.191

> <VdW6>
-8.093

> <VdW12>
9.284

> <Bond>
0.200

> <Angle>
1.161

> <Pdih>
2.348

> <Idih>
0.000

> <Tether>
0.000

$$$$
VeraChem MOL file


 29 28  0  0  0  0  0  0  0  0999 V2000     
   15.8733   21.7366   22.9242 C   0  0  0  0  0  0  0  0  0  0  0  0
   16.1159   21.9612   21.8773 H   0  0  0  0  0  0  0  0  0  0  0  0
   15.2150   20.8583   22.9419 H   0  0  0  0  0  0  0  0  0  0  0  0
   15.3110   22.5876   23.3299 H   0  0  0  0  0  0  0  0  0  0  0  0
   17.1537   21.4867   23.7489 C   0  0  0  0  0  0  0  0  0  0  0  0
   16.8814   21.2986   24.7969 H   0  0  0  0  0  0  0  0  0  0  0  0
   17.7754   22.3930   23.7404 H   0  0  0  0  0  0  0  0  0  0  0  0
   17.9646   20.2929   23.1983 C   0  0  0  0  0  0  0  0  0  0  0  0
   17.3384   19.3900   23.2068 H   0  0  0  0  0  0  0  0  0  0  0  0
   18.2322   20.4844   22.1500 H   0  0  0  0  0  0  0  0  0  0  0  0
   19.2477   20.0398   24.0215 C   0  0  0  0  0  0  0  0  0  0  0  0
   18.9788   19.8490   25.0697 H   0  0  0  0  0  0  0  0  0  0  0  0
   19.8729   20.9434   24.0128 H   0  0  0  0  0  0  0  0  0  0  0  0
   20.0589   18.8454   23.4705 C   0  0  0  0  0  0  0  0  0  0  0  0
   19.4283   17.9466   23.4805 H   0  0  0  0  0  0  0  0  0  0  0  0
   20.3184   19.0432   22.4221 H   0  0  0  0  0  0  0  0  0  0  0  0
   21.3468   18.5987   24.2985 C   0  0  0  0  0  0  0  0  0  0  0  0
   21.0753   18.4519   25.3522 H   0  0  0  0  0  0  0  0  0  0  0  0
   21.9740   19.4997   24.2711 H   0  0  0  0  0  0  0  0  0  0  0  0
   22.1949   17.3889   23.8398 C   0  0  2  0  0  0  0  0  0  0  0  0
   23.0475   17.3124   24.5217 H   0  0  0  0  0  0  0  0  0  0  0  0
   22.7520   17.5782   22.4182 C   0  0  0  0  0  0  0  0  0  0  0  0
   23.4565   16.7742   22.1724 H   0  0  0  0  0  0  0  0  0  0  0  0
   21.9551   17.5664   21.6651 H   0  0  0  0  0  0  0  0  0  0  0  0
   23.2911   18.5300   22.3342 H   0  0  0  0  0  0  0  0  0  0  0  0
   21.4495   16.0880   23.9573 N   0  3  0  0  0  0  0  0  0  0  0  0
   21.1133   15.9330   24.9121 H   0  0  0  0  0  0  0  0  0  0  0  0
   22.0444   15.2923   23.7092 H   0  0  0  0  0  0  0  0  0  0  0  0
   20.6364   16.0689   23.3368 H   0  0  0  0  0  0  0  0  0  0  0  0
  1  2  1  0  0  0  0
  1  3  1  0  0  0  0
  1  4  1  0  0  0  0
  1  5  1  0  0  0  0
  5  6  1  0  0  0  0
  5  7  1  0  0  0  0
  5  8  1  0  0  0  0
  8  9  1  0  0  0  0
  8 10  1  0  0  0  0
  8 11  1  0  0  0  0
 11 12  1  0  0  0  0
 11 13  1  0  0  0  0
 11 14  1  0  0  0  0
 14 15  1  0  0  0  0
 14 16  1  0  0  0  0
 14 17  1  0  0  0  0
 17 18  1  0  0  0  0
 17 19  1  0  0  0  0
 17 20  1  0  0  0  0
 20 21  1  0  0  0  0
 20 22  1  0  0  0  0
 22 23  1  0  0  0  0
 22 24  1  0  0  0  0
 22 25  1  0  0  0  0
 20 26  1  0  0  0  0
 26 27  1  0  0  0  0
 26 28  1  0  0  0  0
 26 29  1  0  0  0  0
M  END
> <VConfSearch Rank>
783

> <Conf_Id>
137

> <Delta U+W>
0.280

> <U+W>
-27.546

> <U>
24.513

> <W>
-52.059

> <W(PB)>
-54.556

> <W(SA)>
2.497

> <Valence>
3.677

> <Coulomb>
19.662

> <VdW>
1.174

> <VdW6>
-8.569

> <VdW12>
9.743

> <Bond>
0.224

> <Angle>
1.211

> <Pdih>
2.243

> <Idih>
0.000

> <Tether>
0.000

$$$$
VeraChem MOL file


 29 28  0  0  0  0  0  0  0  0999 V2000     
   16.8880   16.4283   25.6055 C   0  0  0  0  0  0  0  0  0  0  0  0
   17.2277   15.7238   24.8350 H   0  0  0  0  0  0  0  0  0  0  0  0
   17.5239   16.2994   26.4910 H   0  0  0  0  0  0  0  0  0  0  0  0
   15.8623   16.1540   25.8843 H   0  0  0  0  0  0  0  0  0  0  0  0
   16.9423   17.8822   25.0906 C   0  0  0  0  0  0  0  0  0  0  0  0
   16.5643   18.5587   25.8698 H   0  0  0  0  0  0  0  0  0  0  0  0
   16.2722   17.9882   24.2260 H   0  0  0  0  0  0  0  0  0  0  0  0
   18.3766   18.2945   24.6917 C   0  0  0  0  0  0  0  0  0  0  0  0
   19.0419   18.1891   25.5598 H   0  0  0  0  0  0  0  0  0  0  0  0
   18.7443   17.6047   23.9213 H   0  0  0  0  0  0  0  0  0  0  0  0
   18.4308   19.7512   24.1712 C   0  0  0  0  0  0  0  0  0  0  0  0
   17.9792   20.4137   24.9226 H   0  0  0  0  0  0  0  0  0  0  0  0
   17.8137   19.8458   23.2670 H   0  0  0  0  0  0  0  0  0  0  0  0
   19.8652   20.2554   23.8762 C   0  0  0  0  0  0  0  0  0  0  0  0
   19.8052   21.3301   23.6622 H   0  0  0  0  0  0  0  0  0  0  0  0
   20.4837   20.1532   24.7786 H   0  0  0  0  0  0  0  0  0  0  0  0
   20.5467   19.5264   22.6888 C   0  0  0  0  0  0  0  0  0  0  0  0
   19.9339   19.6375   21.7845 H   0  0  0  0  0  0  0  0  0  0  0  0
   20.5902   18.4524   22.9061 H   0  0  0  0  0  0  0  0  0  0  0  0
   21.9866   20.0123   22.4038 C   0  0  2  0  0  0  0  0  0  0  0  0
   22.5605   19.9497   23.3334 H   0  0  0  0  0  0  0  0  0  0  0  0
   22.0230   21.4680   21.9044 C   0  0  0  0  0  0  0  0  0  0  0  0
   21.4031   21.5958   21.0082 H   0  0  0  0  0  0  0  0  0  0  0  0
   21.6658   22.1636   22.6721 H   0  0  0  0  0  0  0  0  0  0  0  0
   23.0489   21.7641   21.6527 H   0  0  0  0  0  0  0  0  0  0  0  0
   22.6769   19.1103   21.4185 N   0  3  0  0  0  0  0  0  0  0  0  0
   22.7058   18.1416   21.7497 H   0  0  0  0  0  0  0  0  0  0  0  0
   23.6440   19.4052   21.2557 H   0  0  0  0  0  0  0  0  0  0  0  0
   22.2005   19.1119   20.5126 H   0  0  0  0  0  0  0  0  0  0  0  0
  1  2  1  0  0  0  0
  1  3  1  0  0  0  0
  1  4  1  0  0  0  0
  1  5  1  0  0  0  0
  5  6  1  0  0  0  0
  5  7  1  0  0  0  0
  5  8  1  0  0  0  0
  8  9  1  0  0  0  0
  8 10  1  0  0  0  0
  8 11  1  0  0  0  0
 11 12  1  0  0  0  0
 11 13  1  0  0  0  0
 11 14  1  0  0  0  0
 14 15  1  0  0  0  0
 14 16  1  0  0  0  0
 14 17  1  0  0  0  0
 17 18  1  0  0  0  0
 17 19  1  0  0  0  0
 17 20  1  0  0  0  0
 20 21  1  0  0  0  0
 20 22  1  0  0  0  0
 22 23  1  0  0  0  0
 22 24  1  0  0  0  0
 22 25  1  0  0  0  0
 20 26  1  0  0  0  0
 26 27  1  0  0  0  0
 26 28  1  0  0  0  0
 26 29  1  0  0  0  0
M  END
> <VConfSearch Rank>
784

> <Conf_Id>
40

> <Delta U+W>
1.128

> <U+W>
-26.698

> <U>
25.442

> <W>
-52.140

> <W(PB)>
-54.658

> <W(SA)>
2.519

> <Valence>
4.343

> <Coulomb>
19.740

> <VdW>
1.360

> <VdW6>
-8.739

> <VdW12>
10.099

> <Bond>
0.251

> <Angle>
1.483

> <Pdih>
2.608

> <Idih>
0.000

> <Tether>
0.000

$$$$
VeraChem MOL file


 29 28  0  0  0  0  0  0  0  0999 V2000     
   22.1541   20.5496   20.1628 C   0  0  0  0  0  0  0  0  0  0  0  0
   22.1658   21.4195   20.8308 H   0  0  0  0  0  0  0  0  0  0  0  0
   23.0111   19.9110   20.4134 H   0  0  0  0  0  0  0  0  0  0  0  0
   22.2990   20.9189   19.1393 H   0  0  0  0  0  0  0  0  0  0  0  0
   20.8264   19.7659   20.2713 C   0  0  0  0  0  0  0  0  0  0  0  0
   20.8125   18.9878   19.4954 H   0  0  0  0  0  0  0  0  0  0  0  0
   19.9825   20.4346   20.0508 H   0  0  0  0  0  0  0  0  0  0  0  0
   20.6158   19.0938   21.6498 C   0  0  0  0  0  0  0  0  0  0  0  0
   19.7265   18.4547   21.5810 H   0  0  0  0  0  0  0  0  0  0  0  0
   21.4618   18.4267   21.8651 H   0  0  0  0  0  0  0  0  0  0  0  0
   20.4397   20.1073   22.8094 C   0  0  0  0  0  0  0  0  0  0  0  0
   19.5903   20.7709   22.5972 H   0  0  0  0  0  0  0  0  0  0  0  0
   21.3270   20.7507   22.8670 H   0  0  0  0  0  0  0  0  0  0  0  0
   20.2450   19.4407   24.1938 C   0  0  0  0  0  0  0  0  0  0  0  0
   21.0854   18.7623   24.3964 H   0  0  0  0  0  0  0  0  0  0  0  0
   20.2930   20.2282   24.9572 H   0  0  0  0  0  0  0  0  0  0  0  0
   18.9058   18.6709   24.3305 C   0  0  0  0  0  0  0  0  0  0  0  0
   18.8708   17.8664   23.5859 H   0  0  0  0  0  0  0  0  0  0  0  0
   18.0664   19.3429   24.1080 H   0  0  0  0  0  0  0  0  0  0  0  0
   18.7119   18.0448   25.7289 C   0  0  2  0  0  0  0  0  0  0  0  0
   19.5770   17.4097   25.9433 H   0  0  0  0  0  0  0  0  0  0  0  0
   17.4510   17.1660   25.7506 C   0  0  0  0  0  0  0  0  0  0  0  0
   17.3261   16.6902   26.7311 H   0  0  0  0  0  0  0  0  0  0  0  0
   16.5511   17.7577   25.5405 H   0  0  0  0  0  0  0  0  0  0  0  0
   17.5183   16.3684   25.0002 H   0  0  0  0  0  0  0  0  0  0  0  0
   18.6508   19.0776   26.8210 N   0  3  0  0  0  0  0  0  0  0  0  0
   17.8626   19.7165   26.6864 H   0  0  0  0  0  0  0  0  0  0  0  0
   19.5042   19.6419   26.8505 H   0  0  0  0  0  0  0  0  0  0  0  0
   18.5394   18.6426   27.7413 H   0  0  0  0  0  0  0  0  0  0  0  0
  1  2  1  0  0  0  0
  1  3  1  0  0  0  0
  1  4  1  0  0  0  0
  1  5  1  0  0  0  0
  5  6  1  0  0  0  0
  5  7  1  0  0  0  0
  5  8  1  0  0  0  0
  8  9  1  0  0  0  0
  8 10  1  0  0  0  0
  8 11  1  0  0  0  0
 11 12  1  0  0  0  0
 11 13  1  0  0  0  0
 11 14  1  0  0  0  0
 14 15  1  0  0  0  0
 14 16  1  0  0  0  0
 14 17  1  0  0  0  0
 17 18  1  0  0  0  0
 17 19  1  0  0  0  0
 17 20  1  0  0  0  0
 20 21  1  0  0  0  0
 20 22  1  0  0  0  0
 22 23  1  0  0  0  0
 22 24  1  0  0  0  0
 22 25  1  0  0  0  0
 20 26  1  0  0  0  0
 26 27  1  0  0  0  0
 26 28  1  0  0  0  0
 26 29  1  0  0  0  0
M  END
> <VConfSearch Rank>
785

> <Conf_Id>
134

> <Delta U+W>
1.228

> <U+W>
-26.598

> <U>
25.451

> <W>
-52.048

> <W(PB)>
-54.539

> <W(SA)>
2.490

> <Valence>
4.319

> <Coulomb>
19.732

> <VdW>
1.400

> <VdW6>
-9.173

> <VdW12>
10.573

> <Bond>
0.281

> <Angle>
1.459

> <Pdih>
2.580

> <Idih>
0.000

> <Tether>
0.000

$$$$
VeraChem MOL file


 29 28  0  0  0  0  0  0  0  0999 V2000     
   19.0179   15.8686   26.2992 C   0  0  0  0  0  0  0  0  0  0  0  0
   17.9888   16.2136   26.1405 H   0  0  0  0  0  0  0  0  0  0  0  0
   19.2521   15.1186   25.5327 H   0  0  0  0  0  0  0  0  0  0  0  0
   19.0509   15.3707   27.2770 H   0  0  0  0  0  0  0  0  0  0  0  0
   20.0244   17.0408   26.2558 C   0  0  0  0  0  0  0  0  0  0  0  0
   21.0154   16.6649   26.5465 H   0  0  0  0  0  0  0  0  0  0  0  0
   19.7488   17.7936   27.0075 H   0  0  0  0  0  0  0  0  0  0  0  0
   20.1369   17.7076   24.8635 C   0  0  0  0  0  0  0  0  0  0  0  0
   20.9645   18.4276   24.8987 H   0  0  0  0  0  0  0  0  0  0  0  0
   20.4146   16.9515   24.1163 H   0  0  0  0  0  0  0  0  0  0  0  0
   18.8399   18.4307   24.4195 C   0  0  0  0  0  0  0  0  0  0  0  0
   18.5632   19.1877   25.1660 H   0  0  0  0  0  0  0  0  0  0  0  0
   18.0123   17.7105   24.3886 H   0  0  0  0  0  0  0  0  0  0  0  0
   18.9496   19.0928   23.0238 C   0  0  0  0  0  0  0  0  0  0  0  0
   19.2109   18.3256   22.2830 H   0  0  0  0  0  0  0  0  0  0  0  0
   17.9584   19.4735   22.7410 H   0  0  0  0  0  0  0  0  0  0  0  0
   19.9701   20.2591   22.9706 C   0  0  0  0  0  0  0  0  0  0  0  0
   20.9893   19.8760   23.1067 H   0  0  0  0  0  0  0  0  0  0  0  0
   19.7736   20.9353   23.8129 H   0  0  0  0  0  0  0  0  0  0  0  0
   19.9054   21.0768   21.6606 C   0  0  2  0  0  0  0  0  0  0  0  0
   18.8763   21.4222   21.5221 H   0  0  0  0  0  0  0  0  0  0  0  0
   20.3070   20.2376   20.4344 C   0  0  0  0  0  0  0  0  0  0  0  0
   21.3141   19.8188   20.5527 H   0  0  0  0  0  0  0  0  0  0  0  0
   19.6073   19.4097   20.2717 H   0  0  0  0  0  0  0  0  0  0  0  0
   20.2989   20.8526   19.5260 H   0  0  0  0  0  0  0  0  0  0  0  0
   20.7588   22.3114   21.7488 N   0  3  0  0  0  0  0  0  0  0  0  0
   20.4802   22.9071   22.5339 H   0  0  0  0  0  0  0  0  0  0  0  0
   20.6877   22.8765   20.8977 H   0  0  0  0  0  0  0  0  0  0  0  0
   21.7465   22.0751   21.8769 H   0  0  0  0  0  0  0  0  0  0  0  0
  1  2  1  0  0  0  0
  1  3  1  0  0  0  0
  1  4  1  0  0  0  0
  1  5  1  0  0  0  0
  5  6  1  0  0  0  0
  5  7  1  0  0  0  0
  5  8  1  0  0  0  0
  8  9  1  0  0  0  0
  8 10  1  0  0  0  0
  8 11  1  0  0  0  0
 11 12  1  0  0  0  0
 11 13  1  0  0  0  0
 11 14  1  0  0  0  0
 14 15  1  0  0  0  0
 14 16  1  0  0  0  0
 14 17  1  0  0  0  0
 17 18  1  0  0  0  0
 17 19  1  0  0  0  0
 17 20  1  0  0  0  0
 20 21  1  0  0  0  0
 20 22  1  0  0  0  0
 22 23  1  0  0  0  0
 22 24  1  0  0  0  0
 22 25  1  0  0  0  0
 20 26  1  0  0  0  0
 26 27  1  0  0  0  0
 26 28  1  0  0  0  0
 26 29  1  0  0  0  0
M  END
> <VConfSearch Rank>
786

> <Conf_Id>
73

> <Delta U+W>
1.580

> <U+W>
-26.246

> <U>
25.821

> <W>
-52.067

> <W(PB)>
-54.581

> <W(SA)>
2.514

> <Valence>
4.779

> <Coulomb>
19.614

> <VdW>
1.428

> <VdW6>
-9.390

> <VdW12>
10.818

> <Bond>
0.283

> <Angle>
1.640

> <Pdih>
2.856

> <Idih>
0.000

> <Tether>
0.000

$$$$
VeraChem MOL file


 29 28  0  0  0  0  0  0  0  0999 V2000     
   18.5197   22.1793   26.4497 C   0  0  0  0  0  0  0  0  0  0  0  0
   18.7626   21.3870   27.1698 H   0  0  0  0  0  0  0  0  0  0  0  0
   18.6724   23.1456   26.9477 H   0  0  0  0  0  0  0  0  0  0  0  0
   17.4550   22.0957   26.1954 H   0  0  0  0  0  0  0  0  0  0  0  0
   19.4014   22.0713   25.1877 C   0  0  0  0  0  0  0  0  0  0  0  0
   20.4571   22.1914   25.4689 H   0  0  0  0  0  0  0  0  0  0  0  0
   19.1598   22.8964   24.5030 H   0  0  0  0  0  0  0  0  0  0  0  0
   19.2048   20.7195   24.4665 C   0  0  0  0  0  0  0  0  0  0  0  0
   19.4396   19.9056   25.1644 H   0  0  0  0  0  0  0  0  0  0  0  0
   18.1489   20.6055   24.1851 H   0  0  0  0  0  0  0  0  0  0  0  0
   20.0924   20.6087   23.2034 C   0  0  0  0  0  0  0  0  0  0  0  0
   21.1522   20.6629   23.4886 H   0  0  0  0  0  0  0  0  0  0  0  0
   19.9026   21.4774   22.5578 H   0  0  0  0  0  0  0  0  0  0  0  0
   19.8422   19.3228   22.3775 C   0  0  0  0  0  0  0  0  0  0  0  0
   18.7829   19.2712   22.0903 H   0  0  0  0  0  0  0  0  0  0  0  0
   20.4123   19.4044   21.4428 H   0  0  0  0  0  0  0  0  0  0  0  0
   20.2465   18.0224   23.1189 C   0  0  0  0  0  0  0  0  0  0  0  0
   19.6566   17.9309   24.0391 H   0  0  0  0  0  0  0  0  0  0  0  0
   21.2997   18.0805   23.4242 H   0  0  0  0  0  0  0  0  0  0  0  0
   20.0219   16.7516   22.2707 C   0  0  2  0  0  0  0  0  0  0  0  0
   18.9762   16.7347   21.9483 H   0  0  0  0  0  0  0  0  0  0  0  0
   20.2875   15.4934   23.1128 C   0  0  0  0  0  0  0  0  0  0  0  0
   19.6309   15.4661   23.9913 H   0  0  0  0  0  0  0  0  0  0  0  0
   20.0961   14.5862   22.5265 H   0  0  0  0  0  0  0  0  0  0  0  0
   21.3272   15.4618   23.4621 H   0  0  0  0  0  0  0  0  0  0  0  0
   20.8610   16.7345   21.0222 N   0  3  0  0  0  0  0  0  0  0  0  0
   20.6854   15.8934   20.4650 H   0  0  0  0  0  0  0  0  0  0  0  0
   21.8600   16.7524   21.2440 H   0  0  0  0  0  0  0  0  0  0  0  0
   20.6624   17.5430   20.4268 H   0  0  0  0  0  0  0  0  0  0  0  0
  1  2  1  0  0  0  0
  1  3  1  0  0  0  0
  1  4  1  0  0  0  0
  1  5  1  0  0  0  0
  5  6  1  0  0  0  0
  5  7  1  0  0  0  0
  5  8  1  0  0  0  0
  8  9  1  0  0  0  0
  8 10  1  0  0  0  0
  8 11  1  0  0  0  0
 11 12  1  0  0  0  0
 11 13  1  0  0  0  0
 11 14  1  0  0  0  0
 14 15  1  0  0  0  0
 14 16  1  0  0  0  0
 14 17  1  0  0  0  0
 17 18  1  0  0  0  0
 17 19  1  0  0  0  0
 17 20  1  0  0  0  0
 20 21  1  0  0  0  0
 20 22  1  0  0  0  0
 22 23  1  0  0  0  0
 22 24  1  0  0  0  0
 22 25  1  0  0  0  0
 20 26  1  0  0  0  0
 26 27  1  0  0  0  0
 26 28  1  0  0  0  0
 26 29  1  0  0  0  0
M  END
> <VConfSearch Rank>
787

> <Conf_Id>
111

> <Delta U+W>
0.580

> <U+W>
-27.246

> <U>
24.710

> <W>
-51.957

> <W(PB)>
-54.511

> <W(SA)>
2.555

> <Valence>
3.735

> <Coulomb>
19.760

> <VdW>
1.216

> <VdW6>
-8.624

> <VdW12>
9.840

> <Bond>
0.236

> <Angle>
1.168

> <Pdih>
2.330

> <Idih>
0.000

> <Tether>
0.000

$$$$
VeraChem MOL file


 29 28  0  0  0  0  0  0  0  0999 V2000     
   20.7345   23.0605   21.9699 C   0  0  0  0  0  0  0  0  0  0  0  0
   20.5432   22.7553   20.9328 H   0  0  0  0  0  0  0  0  0  0  0  0
   19.7725   23.3120   22.4354 H   0  0  0  0  0  0  0  0  0  0  0  0
   21.3459   23.9719   21.9459 H   0  0  0  0  0  0  0  0  0  0  0  0
   21.4541   21.9422   22.7532 C   0  0  0  0  0  0  0  0  0  0  0  0
   21.6612   22.2881   23.7756 H   0  0  0  0  0  0  0  0  0  0  0  0
   22.4268   21.7372   22.2845 H   0  0  0  0  0  0  0  0  0  0  0  0
   20.6144   20.6465   22.8016 C   0  0  0  0  0  0  0  0  0  0  0  0
   19.6430   20.8666   23.2633 H   0  0  0  0  0  0  0  0  0  0  0  0
   20.4116   20.3036   21.7776 H   0  0  0  0  0  0  0  0  0  0  0  0
   21.3332   19.5257   23.5902 C   0  0  0  0  0  0  0  0  0  0  0  0
   21.4909   19.8462   24.6293 H   0  0  0  0  0  0  0  0  0  0  0  0
   22.3326   19.3700   23.1607 H   0  0  0  0  0  0  0  0  0  0  0  0
   20.5758   18.1753   23.5724 C   0  0  0  0  0  0  0  0  0  0  0  0
   20.4515   17.8483   22.5316 H   0  0  0  0  0  0  0  0  0  0  0  0
   21.2020   17.4179   24.0641 H   0  0  0  0  0  0  0  0  0  0  0  0
   19.1995   18.2318   24.2841 C   0  0  0  0  0  0  0  0  0  0  0  0
   18.5123   18.8797   23.7252 H   0  0  0  0  0  0  0  0  0  0  0  0
   19.3341   18.6943   25.2708 H   0  0  0  0  0  0  0  0  0  0  0  0
   18.5467   16.8444   24.4783 C   0  0  2  0  0  0  0  0  0  0  0  0
   19.2580   16.2011   25.0053 H   0  0  0  0  0  0  0  0  0  0  0  0
   18.1901   16.1798   23.1365 C   0  0  0  0  0  0  0  0  0  0  0  0
   17.5225   16.8169   22.5431 H   0  0  0  0  0  0  0  0  0  0  0  0
   19.0881   15.9750   22.5422 H   0  0  0  0  0  0  0  0  0  0  0  0
   17.6855   15.2201   23.3029 H   0  0  0  0  0  0  0  0  0  0  0  0
   17.3281   16.9358   25.3540 N   0  3  0  0  0  0  0  0  0  0  0  0
   17.5511   17.3362   26.2699 H   0  0  0  0  0  0  0  0  0  0  0  0
   16.9153   16.0130   25.5176 H   0  0  0  0  0  0  0  0  0  0  0  0
   16.6051   17.5227   24.9291 H   0  0  0  0  0  0  0  0  0  0  0  0
  1  2  1  0  0  0  0
  1  3  1  0  0  0  0
  1  4  1  0  0  0  0
  1  5  1  0  0  0  0
  5  6  1  0  0  0  0
  5  7  1  0  0  0  0
  5  8  1  0  0  0  0
  8  9  1  0  0  0  0
  8 10  1  0  0  0  0
  8 11  1  0  0  0  0
 11 12  1  0  0  0  0
 11 13  1  0  0  0  0
 11 14  1  0  0  0  0
 14 15  1  0  0  0  0
 14 16  1  0  0  0  0
 14 17  1  0  0  0  0
 17 18  1  0  0  0  0
 17 19  1  0  0  0  0
 17 20  1  0  0  0  0
 20 21  1  0  0  0  0
 20 22  1  0  0  0  0
 22 23  1  0  0  0  0
 22 24  1  0  0  0  0
 22 25  1  0  0  0  0
 20 26  1  0  0  0  0
 26 27  1  0  0  0  0
 26 28  1  0  0  0  0
 26 29  1  0  0  0  0
M  END
> <VConfSearch Rank>
788

> <Conf_Id>
39

> <Delta U+W>
0.965

> <U+W>
-26.861

> <U>
25.129

> <W>
-51.990

> <W(PB)>
-54.526

> <W(SA)>
2.536

> <Valence>
4.206

> <Coulomb>
19.678

> <VdW>
1.245

> <VdW6>
-8.834

> <VdW12>
10.079

> <Bond>
0.240

> <Angle>
1.353

> <Pdih>
2.613

> <Idih>
0.000

> <Tether>
0.000

$$$$
VeraChem MOL file


 29 28  0  0  0  0  0  0  0  0999 V2000     
   21.1475   20.0560   27.4058 C   0  0  0  0  0  0  0  0  0  0  0  0
   20.5064   20.9468   27.4279 H   0  0  0  0  0  0  0  0  0  0  0  0
   20.5198   19.1753   27.5892 H   0  0  0  0  0  0  0  0  0  0  0  0
   21.8578   20.1330   28.2391 H   0  0  0  0  0  0  0  0  0  0  0  0
   21.9020   19.9474   26.0612 C   0  0  0  0  0  0  0  0  0  0  0  0
   22.5084   19.0310   26.0498 H   0  0  0  0  0  0  0  0  0  0  0  0
   22.6096   20.7849   25.9860 H   0  0  0  0  0  0  0  0  0  0  0  0
   20.9702   19.9743   24.8255 C   0  0  0  0  0  0  0  0  0  0  0  0
   20.3671   20.8924   24.8412 H   0  0  0  0  0  0  0  0  0  0  0  0
   21.5999   20.0320   23.9286 H   0  0  0  0  0  0  0  0  0  0  0  0
   20.0400   18.7383   24.7276 C   0  0  0  0  0  0  0  0  0  0  0  0
   19.4174   18.6786   25.6294 H   0  0  0  0  0  0  0  0  0  0  0  0
   20.6433   17.8204   24.7073 H   0  0  0  0  0  0  0  0  0  0  0  0
   19.0979   18.7681   23.4988 C   0  0  0  0  0  0  0  0  0  0  0  0
   18.3911   17.9333   23.5921 H   0  0  0  0  0  0  0  0  0  0  0  0
   18.4980   19.6873   23.5293 H   0  0  0  0  0  0  0  0  0  0  0  0
   19.8472   18.6625   22.1423 C   0  0  0  0  0  0  0  0  0  0  0  0
   20.5282   17.8019   22.1713 H   0  0  0  0  0  0  0  0  0  0  0  0
   20.4804   19.5466   21.9990 H   0  0  0  0  0  0  0  0  0  0  0  0
   18.9305   18.5200   20.9044 C   0  0  2  0  0  0  0  0  0  0  0  0
   19.5793   18.4480   20.0260 H   0  0  0  0  0  0  0  0  0  0  0  0
   18.0229   19.7477   20.7138 C   0  0  0  0  0  0  0  0  0  0  0  0
   17.2798   19.8306   21.5158 H   0  0  0  0  0  0  0  0  0  0  0  0
   18.6149   20.6711   20.6963 H   0  0  0  0  0  0  0  0  0  0  0  0
   17.4823   19.6810   19.7616 H   0  0  0  0  0  0  0  0  0  0  0  0
   18.1228   17.2516   20.9294 N   0  3  0  0  0  0  0  0  0  0  0  0
   18.7230   16.4260   21.0131 H   0  0  0  0  0  0  0  0  0  0  0  0
   17.5702   17.1430   20.0741 H   0  0  0  0  0  0  0  0  0  0  0  0
   17.4721   17.2411   21.7187 H   0  0  0  0  0  0  0  0  0  0  0  0
  1  2  1  0  0  0  0
  1  3  1  0  0  0  0
  1  4  1  0  0  0  0
  1  5  1  0  0  0  0
  5  6  1  0  0  0  0
  5  7  1  0  0  0  0
  5  8  1  0  0  0  0
  8  9  1  0  0  0  0
  8 10  1  0  0  0  0
  8 11  1  0  0  0  0
 11 12  1  0  0  0  0
 11 13  1  0  0  0  0
 11 14  1  0  0  0  0
 14 15  1  0  0  0  0
 14 16  1  0  0  0  0
 14 17  1  0  0  0  0
 17 18  1  0  0  0  0
 17 19  1  0  0  0  0
 17 20  1  0  0  0  0
 20 21  1  0  0  0  0
 20 22  1  0  0  0  0
 22 23  1  0  0  0  0
 22 24  1  0  0  0  0
 22 25  1  0  0  0  0
 20 26  1  0  0  0  0
 26 27  1  0  0  0  0
 26 28  1  0  0  0  0
 26 29  1  0  0  0  0
M  END
> <VConfSearch Rank>
789

> <Conf_Id>
155

> <Delta U+W>
1.624

> <U+W>
-26.202

> <U>
25.894

> <W>
-52.096

> <W(PB)>
-54.602

> <W(SA)>
2.506

> <Valence>
4.779

> <Coulomb>
19.659

> <VdW>
1.456

> <VdW6>
-9.843

> <VdW12>
11.299

> <Bond>
0.315

> <Angle>
1.725

> <Pdih>
2.740

> <Idih>
0.000

> <Tether>
0.000

$$$$
VeraChem MOL file


 29 28  0  0  0  0  0  0  0  0999 V2000     
   16.7216   20.1229   20.9958 C   0  0  0  0  0  0  0  0  0  0  0  0
   16.2301   20.0400   21.9730 H   0  0  0  0  0  0  0  0  0  0  0  0
   17.3184   21.0443   20.9876 H   0  0  0  0  0  0  0  0  0  0  0  0
   15.9344   20.2258   20.2377 H   0  0  0  0  0  0  0  0  0  0  0  0
   17.6020   18.8883   20.6974 C   0  0  0  0  0  0  0  0  0  0  0  0
   17.9781   18.9612   19.6674 H   0  0  0  0  0  0  0  0  0  0  0  0
   16.9874   17.9781   20.7365 H   0  0  0  0  0  0  0  0  0  0  0  0
   18.8071   18.7483   21.6582 C   0  0  0  0  0  0  0  0  0  0  0  0
   19.4306   17.9107   21.3166 H   0  0  0  0  0  0  0  0  0  0  0  0
   19.4288   19.6501   21.5846 H   0  0  0  0  0  0  0  0  0  0  0  0
   18.3912   18.5038   23.1310 C   0  0  0  0  0  0  0  0  0  0  0  0
   17.6628   17.6819   23.1632 H   0  0  0  0  0  0  0  0  0  0  0  0
   17.8773   19.3886   23.5295 H   0  0  0  0  0  0  0  0  0  0  0  0
   19.5773   18.1427   24.0590 C   0  0  0  0  0  0  0  0  0  0  0  0
   19.1647   17.8568   25.0350 H   0  0  0  0  0  0  0  0  0  0  0  0
   20.0930   17.2546   23.6684 H   0  0  0  0  0  0  0  0  0  0  0  0
   20.5934   19.3000   24.2421 C   0  0  0  0  0  0  0  0  0  0  0  0
   20.0803   20.1838   24.6437 H   0  0  0  0  0  0  0  0  0  0  0  0
   20.9875   19.5877   23.2600 H   0  0  0  0  0  0  0  0  0  0  0  0
   21.7924   18.9383   25.1487 C   0  0  2  0  0  0  0  0  0  0  0  0
   22.2498   18.0217   24.7637 H   0  0  0  0  0  0  0  0  0  0  0  0
   21.3678   18.6963   26.6085 C   0  0  0  0  0  0  0  0  0  0  0  0
   20.8412   19.5672   27.0182 H   0  0  0  0  0  0  0  0  0  0  0  0
   20.7096   17.8242   26.6945 H   0  0  0  0  0  0  0  0  0  0  0  0
   22.2447   18.5022   27.2384 H   0  0  0  0  0  0  0  0  0  0  0  0
   22.8557   19.9997   25.0887 N   0  3  0  0  0  0  0  0  0  0  0  0
   23.1877   20.1475   24.1312 H   0  0  0  0  0  0  0  0  0  0  0  0
   23.6690   19.7466   25.6572 H   0  0  0  0  0  0  0  0  0  0  0  0
   22.5078   20.8975   25.4360 H   0  0  0  0  0  0  0  0  0  0  0  0
  1  2  1  0  0  0  0
  1  3  1  0  0  0  0
  1  4  1  0  0  0  0
  1  5  1  0  0  0  0
  5  6  1  0  0  0  0
  5  7  1  0  0  0  0
  5  8  1  0  0  0  0
  8  9  1  0  0  0  0
  8 10  1  0  0  0  0
  8 11  1  0  0  0  0
 11 12  1  0  0  0  0
 11 13  1  0  0  0  0
 11 14  1  0  0  0  0
 14 15  1  0  0  0  0
 14 16  1  0  0  0  0
 14 17  1  0  0  0  0
 17 18  1  0  0  0  0
 17 19  1  0  0  0  0
 17 20  1  0  0  0  0
 20 21  1  0  0  0  0
 20 22  1  0  0  0  0
 22 23  1  0  0  0  0
 22 24  1  0  0  0  0
 22 25  1  0  0  0  0
 20 26  1  0  0  0  0
 26 27  1  0  0  0  0
 26 28  1  0  0  0  0
 26 29  1  0  0  0  0
M  END
> <VConfSearch Rank>
790

> <Conf_Id>
135

> <Delta U+W>
1.581

> <U+W>
-26.245

> <U>
25.974

> <W>
-52.219

> <W(PB)>
-54.709

> <W(SA)>
2.490

> <Valence>
4.811

> <Coulomb>
19.700

> <VdW>
1.463

> <VdW6>
-9.391

> <VdW12>
10.854

> <Bond>
0.285

> <Angle>
1.671

> <Pdih>
2.855

> <Idih>
0.000

> <Tether>
0.000

$$$$
VeraChem MOL file


 29 28  0  0  0  0  0  0  0  0999 V2000     
   17.9335   17.4368   26.7494 C   0  0  0  0  0  0  0  0  0  0  0  0
   17.9977   18.4842   27.0718 H   0  0  0  0  0  0  0  0  0  0  0  0
   17.1426   17.3573   25.9933 H   0  0  0  0  0  0  0  0  0  0  0  0
   17.6243   16.8371   27.6152 H   0  0  0  0  0  0  0  0  0  0  0  0
   19.2913   16.9394   26.2039 C   0  0  0  0  0  0  0  0  0  0  0  0
   19.1941   15.8989   25.8640 H   0  0  0  0  0  0  0  0  0  0  0  0
   20.0208   16.9276   27.0257 H   0  0  0  0  0  0  0  0  0  0  0  0
   19.8491   17.8153   25.0565 C   0  0  0  0  0  0  0  0  0  0  0  0
   19.9692   18.8453   25.4174 H   0  0  0  0  0  0  0  0  0  0  0  0
   20.8550   17.4558   24.7999 H   0  0  0  0  0  0  0  0  0  0  0  0
   18.9642   17.7964   23.7846 C   0  0  0  0  0  0  0  0  0  0  0  0
   17.9927   18.2628   23.9947 H   0  0  0  0  0  0  0  0  0  0  0  0
   18.7546   16.7537   23.5090 H   0  0  0  0  0  0  0  0  0  0  0  0
   19.6173   18.5041   22.5721 C   0  0  0  0  0  0  0  0  0  0  0  0
   20.5695   18.0095   22.3389 H   0  0  0  0  0  0  0  0  0  0  0  0
   18.9702   18.3630   21.6953 H   0  0  0  0  0  0  0  0  0  0  0  0
   19.8425   20.0217   22.7956 C   0  0  0  0  0  0  0  0  0  0  0  0
   20.5918   20.1797   23.5816 H   0  0  0  0  0  0  0  0  0  0  0  0
   18.9066   20.4643   23.1610 H   0  0  0  0  0  0  0  0  0  0  0  0
   20.2760   20.7770   21.5187 C   0  0  2  0  0  0  0  0  0  0  0  0
   19.5375   20.5795   20.7357 H   0  0  0  0  0  0  0  0  0  0  0  0
   21.6557   20.3170   21.0146 C   0  0  0  0  0  0  0  0  0  0  0  0
   22.4226   20.4404   21.7893 H   0  0  0  0  0  0  0  0  0  0  0  0
   21.6386   19.2635   20.7123 H   0  0  0  0  0  0  0  0  0  0  0  0
   21.9609   20.9011   20.1376 H   0  0  0  0  0  0  0  0  0  0  0  0
   20.2720   22.2640   21.7401 N   0  3  0  0  0  0  0  0  0  0  0  0
   20.5204   22.7699   20.8850 H   0  0  0  0  0  0  0  0  0  0  0  0
   20.9442   22.5365   22.4624 H   0  0  0  0  0  0  0  0  0  0  0  0
   19.3502   22.5989   22.0351 H   0  0  0  0  0  0  0  0  0  0  0  0
  1  2  1  0  0  0  0
  1  3  1  0  0  0  0
  1  4  1  0  0  0  0
  1  5  1  0  0  0  0
  5  6  1  0  0  0  0
  5  7  1  0  0  0  0
  5  8  1  0  0  0  0
  8  9  1  0  0  0  0
  8 10  1  0  0  0  0
  8 11  1  0  0  0  0
 11 12  1  0  0  0  0
 11 13  1  0  0  0  0
 11 14  1  0  0  0  0
 14 15  1  0  0  0  0
 14 16  1  0  0  0  0
 14 17  1  0  0  0  0
 17 18  1  0  0  0  0
 17 19  1  0  0  0  0
 17 20  1  0  0  0  0
 20 21  1  0  0  0  0
 20 22  1  0  0  0  0
 22 23  1  0  0  0  0
 22 24  1  0  0  0  0
 22 25  1  0  0  0  0
 20 26  1  0  0  0  0
 26 27  1  0  0  0  0
 26 28  1  0  0  0  0
 26 29  1  0  0  0  0
M  END
> <VConfSearch Rank>
791

> <Conf_Id>
130

> <Delta U+W>
1.359

> <U+W>
-26.467

> <U>
25.687

> <W>
-52.154

> <W(PB)>
-54.643

> <W(SA)>
2.489

> <Valence>
4.682

> <Coulomb>
19.653

> <VdW>
1.352

> <VdW6>
-9.477

> <VdW12>
10.829

> <Bond>
0.274

> <Angle>
1.550

> <Pdih>
2.858

> <Idih>
0.000

> <Tether>
0.000

$$$$
VeraChem MOL file


 29 28  0  0  0  0  0  0  0  0999 V2000     
   22.9624   17.8330   25.7421 C   0  0  0  0  0  0  0  0  0  0  0  0
   23.3337   17.0594   26.4265 H   0  0  0  0  0  0  0  0  0  0  0  0
   23.8323   18.3288   25.2921 H   0  0  0  0  0  0  0  0  0  0  0  0
   22.4182   18.5713   26.3439 H   0  0  0  0  0  0  0  0  0  0  0  0
   22.0575   17.2058   24.6574 C   0  0  0  0  0  0  0  0  0  0  0  0
   21.1785   16.7458   25.1300 H   0  0  0  0  0  0  0  0  0  0  0  0
   22.6065   16.3888   24.1686 H   0  0  0  0  0  0  0  0  0  0  0  0
   21.6019   18.2141   23.5750 C   0  0  0  0  0  0  0  0  0  0  0  0
   22.4847   18.6569   23.0938 H   0  0  0  0  0  0  0  0  0  0  0  0
   21.0728   17.6577   22.7912 H   0  0  0  0  0  0  0  0  0  0  0  0
   20.6902   19.3398   24.1271 C   0  0  0  0  0  0  0  0  0  0  0  0
   21.2547   19.9300   24.8606 H   0  0  0  0  0  0  0  0  0  0  0  0
   19.8468   18.8978   24.6712 H   0  0  0  0  0  0  0  0  0  0  0  0
   20.1804   20.3054   23.0257 C   0  0  0  0  0  0  0  0  0  0  0  0
   19.8021   21.2263   23.4906 H   0  0  0  0  0  0  0  0  0  0  0  0
   21.0391   20.6181   22.4156 H   0  0  0  0  0  0  0  0  0  0  0  0
   19.0877   19.7116   22.0939 C   0  0  0  0  0  0  0  0  0  0  0  0
   19.1802   18.6212   22.0252 H   0  0  0  0  0  0  0  0  0  0  0  0
   19.2714   20.0912   21.0802 H   0  0  0  0  0  0  0  0  0  0  0  0
   17.6374   20.0909   22.4779 C   0  0  2  0  0  0  0  0  0  0  0  0
   17.5649   21.1827   22.4990 H   0  0  0  0  0  0  0  0  0  0  0  0
   17.2295   19.5553   23.8607 C   0  0  0  0  0  0  0  0  0  0  0  0
   17.8183   20.0282   24.6551 H   0  0  0  0  0  0  0  0  0  0  0  0
   16.1748   19.7763   24.0657 H   0  0  0  0  0  0  0  0  0  0  0  0
   17.3685   18.4688   23.9230 H   0  0  0  0  0  0  0  0  0  0  0  0
   16.6631   19.6239   21.4324 N   0  3  0  0  0  0  0  0  0  0  0  0
   16.8876   20.0071   20.5095 H   0  0  0  0  0  0  0  0  0  0  0  0
   15.7066   19.9123   21.6574 H   0  0  0  0  0  0  0  0  0  0  0  0
   16.6632   18.6036   21.3505 H   0  0  0  0  0  0  0  0  0  0  0  0
  1  2  1  0  0  0  0
  1  3  1  0  0  0  0
  1  4  1  0  0  0  0
  1  5  1  0  0  0  0
  5  6  1  0  0  0  0
  5  7  1  0  0  0  0
  5  8  1  0  0  0  0
  8  9  1  0  0  0  0
  8 10  1  0  0  0  0
  8 11  1  0  0  0  0
 11 12  1  0  0  0  0
 11 13  1  0  0  0  0
 11 14  1  0  0  0  0
 14 15  1  0  0  0  0
 14 16  1  0  0  0  0
 14 17  1  0  0  0  0
 17 18  1  0  0  0  0
 17 19  1  0  0  0  0
 17 20  1  0  0  0  0
 20 21  1  0  0  0  0
 20 22  1  0  0  0  0
 22 23  1  0  0  0  0
 22 24  1  0  0  0  0
 22 25  1  0  0  0  0
 20 26  1  0  0  0  0
 26 27  1  0  0  0  0
 26 28  1  0  0  0  0
 26 29  1  0  0  0  0
M  END
> <VConfSearch Rank>
792

> <Conf_Id>
157

> <Delta U+W>
4.354

> <U+W>
-23.472

> <U>
28.780

> <W>
-52.252

> <W(PB)>
-54.715

> <W(SA)>
2.462

> <Valence>
7.566

> <Coulomb>
19.822

> <VdW>
1.392

> <VdW6>
-10.248

> <VdW12>
11.641

> <Bond>
0.340

> <Angle>
2.096

> <Pdih>
5.129

> <Idih>
0.000

> <Tether>
0.000

$$$$
VeraChem MOL file


 29 28  0  0  0  0  0  0  0  0999 V2000     
   22.1468   20.4317   21.0392 C   0  0  0  0  0  0  0  0  0  0  0  0
   23.0975   20.9705   20.9345 H   0  0  0  0  0  0  0  0  0  0  0  0
   22.3121   19.5973   21.7296 H   0  0  0  0  0  0  0  0  0  0  0  0
   21.8925   20.0118   20.0574 H   0  0  0  0  0  0  0  0  0  0  0  0
   21.0357   21.3865   21.5347 C   0  0  0  0  0  0  0  0  0  0  0  0
   20.9403   22.2024   20.8046 H   0  0  0  0  0  0  0  0  0  0  0  0
   21.3328   21.8609   22.4804 H   0  0  0  0  0  0  0  0  0  0  0  0
   19.6560   20.6961   21.6876 C   0  0  0  0  0  0  0  0  0  0  0  0
   18.8799   21.4146   21.3897 H   0  0  0  0  0  0  0  0  0  0  0  0
   19.5697   19.8589   20.9814 H   0  0  0  0  0  0  0  0  0  0  0  0
   19.3209   20.2182   23.1241 C   0  0  0  0  0  0  0  0  0  0  0  0
   18.2983   19.8196   23.1136 H   0  0  0  0  0  0  0  0  0  0  0  0
   19.3050   21.0835   23.8009 H   0  0  0  0  0  0  0  0  0  0  0  0
   20.2918   19.1484   23.6818 C   0  0  0  0  0  0  0  0  0  0  0  0
   20.3801   18.3163   22.9710 H   0  0  0  0  0  0  0  0  0  0  0  0
   21.2943   19.5857   23.7728 H   0  0  0  0  0  0  0  0  0  0  0  0
   19.8801   18.6152   25.0784 C   0  0  0  0  0  0  0  0  0  0  0  0
   19.8788   19.4520   25.7897 H   0  0  0  0  0  0  0  0  0  0  0  0
   20.6478   17.9142   25.4321 H   0  0  0  0  0  0  0  0  0  0  0  0
   18.5007   17.9197   25.1165 C   0  0  2  0  0  0  0  0  0  0  0  0
   17.7420   18.6380   24.7926 H   0  0  0  0  0  0  0  0  0  0  0  0
   18.1622   17.4819   26.5502 C   0  0  0  0  0  0  0  0  0  0  0  0
   18.8906   16.7519   26.9250 H   0  0  0  0  0  0  0  0  0  0  0  0
   18.1605   18.3430   27.2301 H   0  0  0  0  0  0  0  0  0  0  0  0
   17.1666   17.0233   26.5912 H   0  0  0  0  0  0  0  0  0  0  0  0
   18.4211   16.7513   24.1730 N   0  3  0  0  0  0  0  0  0  0  0  0
   18.6072   17.0405   23.2087 H   0  0  0  0  0  0  0  0  0  0  0  0
   17.4939   16.3172   24.1913 H   0  0  0  0  0  0  0  0  0  0  0  0
   19.1038   16.0287   24.4165 H   0  0  0  0  0  0  0  0  0  0  0  0
  1  2  1  0  0  0  0
  1  3  1  0  0  0  0
  1  4  1  0  0  0  0
  1  5  1  0  0  0  0
  5  6  1  0  0  0  0
  5  7  1  0  0  0  0
  5  8  1  0  0  0  0
  8  9  1  0  0  0  0
  8 10  1  0  0  0  0
  8 11  1  0  0  0  0
 11 12  1  0  0  0  0
 11 13  1  0  0  0  0
 11 14  1  0  0  0  0
 14 15  1  0  0  0  0
 14 16  1  0  0  0  0
 14 17  1  0  0  0  0
 17 18  1  0  0  0  0
 17 19  1  0  0  0  0
 17 20  1  0  0  0  0
 20 21  1  0  0  0  0
 20 22  1  0  0  0  0
 22 23  1  0  0  0  0
 22 24  1  0  0  0  0
 22 25  1  0  0  0  0
 20 26  1  0  0  0  0
 26 27  1  0  0  0  0
 26 28  1  0  0  0  0
 26 29  1  0  0  0  0
M  END
> <VConfSearch Rank>
793

> <Conf_Id>
158

> <Delta U+W>
3.648

> <U+W>
-24.178

> <U>
28.057

> <W>
-52.235

> <W(PB)>
-54.696

> <W(SA)>
2.460

> <Valence>
6.543

> <Coulomb>
20.387

> <VdW>
1.127

> <VdW6>
-10.342

> <VdW12>
11.469

> <Bond>
0.308

> <Angle>
1.938

> <Pdih>
4.297

> <Idih>
0.000

> <Tether>
0.000

$$$$
VeraChem MOL file


 29 28  0  0  0  0  0  0  0  0999 V2000     
   19.9438   15.4070   24.3205 C   0  0  0  0  0  0  0  0  0  0  0  0
   19.8855   15.6746   25.3836 H   0  0  0  0  0  0  0  0  0  0  0  0
   19.0867   15.8572   23.8046 H   0  0  0  0  0  0  0  0  0  0  0  0
   19.8399   14.3171   24.2425 H   0  0  0  0  0  0  0  0  0  0  0  0
   21.2842   15.8677   23.7042 C   0  0  0  0  0  0  0  0  0  0  0  0
   21.3045   15.6178   22.6342 H   0  0  0  0  0  0  0  0  0  0  0  0
   22.1013   15.2980   24.1686 H   0  0  0  0  0  0  0  0  0  0  0  0
   21.5621   17.3783   23.8945 C   0  0  0  0  0  0  0  0  0  0  0  0
   21.5585   17.6192   24.9665 H   0  0  0  0  0  0  0  0  0  0  0  0
   22.5766   17.5947   23.5324 H   0  0  0  0  0  0  0  0  0  0  0  0
   20.5553   18.2888   23.1518 C   0  0  0  0  0  0  0  0  0  0  0  0
   19.5464   18.1193   23.5436 H   0  0  0  0  0  0  0  0  0  0  0  0
   20.5298   18.0122   22.0888 H   0  0  0  0  0  0  0  0  0  0  0  0
   20.9325   19.7848   23.2832 C   0  0  0  0  0  0  0  0  0  0  0  0
   21.0377   20.0635   24.3409 H   0  0  0  0  0  0  0  0  0  0  0  0
   21.9244   19.9282   22.8325 H   0  0  0  0  0  0  0  0  0  0  0  0
   19.9302   20.7371   22.5787 C   0  0  0  0  0  0  0  0  0  0  0  0
   19.4382   20.2222   21.7429 H   0  0  0  0  0  0  0  0  0  0  0  0
   20.5068   21.5554   22.1274 H   0  0  0  0  0  0  0  0  0  0  0  0
   18.8721   21.3738   23.5118 C   0  0  2  0  0  0  0  0  0  0  0  0
   19.3988   21.9182   24.3017 H   0  0  0  0  0  0  0  0  0  0  0  0
   17.9562   20.3324   24.1766 C   0  0  0  0  0  0  0  0  0  0  0  0
   17.4723   19.6926   23.4282 H   0  0  0  0  0  0  0  0  0  0  0  0
   18.5212   19.6962   24.8678 H   0  0  0  0  0  0  0  0  0  0  0  0
   17.1707   20.8256   24.7623 H   0  0  0  0  0  0  0  0  0  0  0  0
   18.0487   22.3933   22.7747 N   0  3  0  0  0  0  0  0  0  0  0  0
   18.6347   23.1257   22.3635 H   0  0  0  0  0  0  0  0  0  0  0  0
   17.3784   22.8534   23.3973 H   0  0  0  0  0  0  0  0  0  0  0  0
   17.5145   21.9635   22.0147 H   0  0  0  0  0  0  0  0  0  0  0  0
  1  2  1  0  0  0  0
  1  3  1  0  0  0  0
  1  4  1  0  0  0  0
  1  5  1  0  0  0  0
  5  6  1  0  0  0  0
  5  7  1  0  0  0  0
  5  8  1  0  0  0  0
  8  9  1  0  0  0  0
  8 10  1  0  0  0  0
  8 11  1  0  0  0  0
 11 12  1  0  0  0  0
 11 13  1  0  0  0  0
 11 14  1  0  0  0  0
 14 15  1  0  0  0  0
 14 16  1  0  0  0  0
 14 17  1  0  0  0  0
 17 18  1  0  0  0  0
 17 19  1  0  0  0  0
 17 20  1  0  0  0  0
 20 21  1  0  0  0  0
 20 22  1  0  0  0  0
 22 23  1  0  0  0  0
 22 24  1  0  0  0  0
 22 25  1  0  0  0  0
 20 26  1  0  0  0  0
 26 27  1  0  0  0  0
 26 28  1  0  0  0  0
 26 29  1  0  0  0  0
M  END
> <VConfSearch Rank>
794

> <Conf_Id>
156

> <Delta U+W>
3.393

> <U+W>
-24.433

> <U>
27.713

> <W>
-52.146

> <W(PB)>
-54.603

> <W(SA)>
2.458

> <Valence>
6.758

> <Coulomb>
19.720

> <VdW>
1.235

> <VdW6>
-9.782

> <VdW12>
11.017

> <Bond>
0.287

> <Angle>
1.880

> <Pdih>
4.591

> <Idih>
0.000

> <Tether>
0.000

$$$$
VeraChem MOL file


 29 28  0  0  0  0  0  0  0  0999 V2000     
   16.2066   17.6135   23.0000 C   0  0  0  0  0  0  0  0  0  0  0  0
   16.1983   18.1454   22.0398 H   0  0  0  0  0  0  0  0  0  0  0  0
   15.9934   16.5541   22.8061 H   0  0  0  0  0  0  0  0  0  0  0  0
   15.3901   18.0143   23.6146 H   0  0  0  0  0  0  0  0  0  0  0  0
   17.5625   17.7847   23.7167 C   0  0  0  0  0  0  0  0  0  0  0  0
   17.5311   17.2676   24.6859 H   0  0  0  0  0  0  0  0  0  0  0  0
   17.7209   18.8504   23.9284 H   0  0  0  0  0  0  0  0  0  0  0  0
   18.7303   17.2307   22.8672 C   0  0  0  0  0  0  0  0  0  0  0  0
   18.5141   16.1866   22.6024 H   0  0  0  0  0  0  0  0  0  0  0  0
   18.7884   17.7750   21.9155 H   0  0  0  0  0  0  0  0  0  0  0  0
   20.1015   17.2748   23.5904 C   0  0  0  0  0  0  0  0  0  0  0  0
   20.8636   16.8426   22.9274 H   0  0  0  0  0  0  0  0  0  0  0  0
   20.0599   16.6156   24.4684 H   0  0  0  0  0  0  0  0  0  0  0  0
   20.5714   18.6803   24.0472 C   0  0  0  0  0  0  0  0  0  0  0  0
   19.8800   19.0720   24.8038 H   0  0  0  0  0  0  0  0  0  0  0  0
   21.5380   18.5610   24.5531 H   0  0  0  0  0  0  0  0  0  0  0  0
   20.7180   19.6920   22.8779 C   0  0  0  0  0  0  0  0  0  0  0  0
   19.7454   19.8332   22.3908 H   0  0  0  0  0  0  0  0  0  0  0  0
   21.3825   19.2693   22.1128 H   0  0  0  0  0  0  0  0  0  0  0  0
   21.2505   21.0859   23.2861 C   0  0  2  0  0  0  0  0  0  0  0  0
   21.2531   21.7082   22.3858 H   0  0  0  0  0  0  0  0  0  0  0  0
   22.6955   21.0255   23.8112 C   0  0  0  0  0  0  0  0  0  0  0  0
   23.0929   22.0376   23.9556 H   0  0  0  0  0  0  0  0  0  0  0  0
   22.7576   20.5023   24.7726 H   0  0  0  0  0  0  0  0  0  0  0  0
   23.3492   20.5108   23.0961 H   0  0  0  0  0  0  0  0  0  0  0  0
   20.3482   21.7793   24.2693 N   0  3  0  0  0  0  0  0  0  0  0  0
   19.3946   21.8664   23.9068 H   0  0  0  0  0  0  0  0  0  0  0  0
   20.6828   22.7235   24.4819 H   0  0  0  0  0  0  0  0  0  0  0  0
   20.2980   21.2651   25.1523 H   0  0  0  0  0  0  0  0  0  0  0  0
  1  2  1  0  0  0  0
  1  3  1  0  0  0  0
  1  4  1  0  0  0  0
  1  5  1  0  0  0  0
  5  6  1  0  0  0  0
  5  7  1  0  0  0  0
  5  8  1  0  0  0  0
  8  9  1  0  0  0  0
  8 10  1  0  0  0  0
  8 11  1  0  0  0  0
 11 12  1  0  0  0  0
 11 13  1  0  0  0  0
 11 14  1  0  0  0  0
 14 15  1  0  0  0  0
 14 16  1  0  0  0  0
 14 17  1  0  0  0  0
 17 18  1  0  0  0  0
 17 19  1  0  0  0  0
 17 20  1  0  0  0  0
 20 21  1  0  0  0  0
 20 22  1  0  0  0  0
 22 23  1  0  0  0  0
 22 24  1  0  0  0  0
 22 25  1  0  0  0  0
 20 26  1  0  0  0  0
 26 27  1  0  0  0  0
 26 28  1  0  0  0  0
 26 29  1  0  0  0  0
M  END
> <VConfSearch Rank>
795

> <Conf_Id>
78

> <Delta U+W>
1.477

> <U+W>
-26.349

> <U>
26.385

> <W>
-52.734

> <W(PB)>
-55.179

> <W(SA)>
2.445

> <Valence>
4.726

> <Coulomb>
20.482

> <VdW>
1.177

> <VdW6>
-10.349

> <VdW12>
11.526

> <Bond>
0.319

> <Angle>
1.933

> <Pdih>
2.474

> <Idih>
0.000

> <Tether>
0.000

$$$$
VeraChem MOL file


 29 28  0  0  0  0  0  0  0  0999 V2000     
   23.0686   19.8280   21.9283 C   0  0  0  0  0  0  0  0  0  0  0  0
   23.1563   20.9149   21.8020 H   0  0  0  0  0  0  0  0  0  0  0  0
   22.9013   19.6253   22.9919 H   0  0  0  0  0  0  0  0  0  0  0  0
   24.0328   19.3820   21.6519 H   0  0  0  0  0  0  0  0  0  0  0  0
   21.9358   19.2599   21.0420 C   0  0  0  0  0  0  0  0  0  0  0  0
   21.9062   18.1638   21.1151 H   0  0  0  0  0  0  0  0  0  0  0  0
   22.1799   19.4861   19.9945 H   0  0  0  0  0  0  0  0  0  0  0  0
   20.5435   19.8601   21.3659 C   0  0  0  0  0  0  0  0  0  0  0  0
   20.6519   20.8776   21.7661 H   0  0  0  0  0  0  0  0  0  0  0  0
   19.9917   19.9713   20.4223 H   0  0  0  0  0  0  0  0  0  0  0  0
   19.6694   19.0040   22.3184 C   0  0  0  0  0  0  0  0  0  0  0  0
   19.4782   18.0256   21.8566 H   0  0  0  0  0  0  0  0  0  0  0  0
   18.6927   19.4967   22.4082 H   0  0  0  0  0  0  0  0  0  0  0  0
   20.2779   18.7973   23.7273 C   0  0  0  0  0  0  0  0  0  0  0  0
   21.2133   18.2309   23.6354 H   0  0  0  0  0  0  0  0  0  0  0  0
   20.5470   19.7675   24.1650 H   0  0  0  0  0  0  0  0  0  0  0  0
   19.3457   18.0163   24.6898 C   0  0  0  0  0  0  0  0  0  0  0  0
   19.8625   17.8764   25.6485 H   0  0  0  0  0  0  0  0  0  0  0  0
   19.1888   17.0100   24.2794 H   0  0  0  0  0  0  0  0  0  0  0  0
   17.9659   18.6670   24.9477 C   0  0  2  0  0  0  0  0  0  0  0  0
   17.4532   18.7840   23.9887 H   0  0  0  0  0  0  0  0  0  0  0  0
   18.0925   20.0530   25.6045 C   0  0  0  0  0  0  0  0  0  0  0  0
   17.1015   20.4690   25.8237 H   0  0  0  0  0  0  0  0  0  0  0  0
   18.6540   19.9965   26.5453 H   0  0  0  0  0  0  0  0  0  0  0  0
   18.6023   20.7617   24.9414 H   0  0  0  0  0  0  0  0  0  0  0  0
   17.0938   17.7720   25.7835 N   0  3  0  0  0  0  0  0  0  0  0  0
   17.5003   17.6123   26.7092 H   0  0  0  0  0  0  0  0  0  0  0  0
   16.9613   16.8567   25.3435 H   0  0  0  0  0  0  0  0  0  0  0  0
   16.1650   18.1799   25.9240 H   0  0  0  0  0  0  0  0  0  0  0  0
  1  2  1  0  0  0  0
  1  3  1  0  0  0  0
  1  4  1  0  0  0  0
  1  5  1  0  0  0  0
  5  6  1  0  0  0  0
  5  7  1  0  0  0  0
  5  8  1  0  0  0  0
  8  9  1  0  0  0  0
  8 10  1  0  0  0  0
  8 11  1  0  0  0  0
 11 12  1  0  0  0  0
 11 13  1  0  0  0  0
 11 14  1  0  0  0  0
 14 15  1  0  0  0  0
 14 16  1  0  0  0  0
 14 17  1  0  0  0  0
 17 18  1  0  0  0  0
 17 19  1  0  0  0  0
 17 20  1  0  0  0  0
 20 21  1  0  0  0  0
 20 22  1  0  0  0  0
 22 23  1  0  0  0  0
 22 24  1  0  0  0  0
 22 25  1  0  0  0  0
 20 26  1  0  0  0  0
 26 27  1  0  0  0  0
 26 28  1  0  0  0  0
 26 29  1  0  0  0  0
M  END
> <VConfSearch Rank>
796

> <Conf_Id>
145

> <Delta U+W>
3.784

> <U+W>
-24.042

> <U>
28.220

> <W>
-52.262

> <W(PB)>
-54.724

> <W(SA)>
2.462

> <Valence>
7.040

> <Coulomb>
19.984

> <VdW>
1.197

> <VdW6>
-10.566

> <VdW12>
11.763

> <Bond>
0.320

> <Angle>
2.280

> <Pdih>
4.439

> <Idih>
0.000

> <Tether>
0.000

$$$$
VeraChem MOL file


 29 28  0  0  0  0  0  0  0  0999 V2000     
   22.1537   21.5878   25.5554 C   0  0  0  0  0  0  0  0  0  0  0  0
   22.2760   22.6571   25.3391 H   0  0  0  0  0  0  0  0  0  0  0  0
   21.3380   21.4769   26.2818 H   0  0  0  0  0  0  0  0  0  0  0  0
   23.0777   21.2319   26.0292 H   0  0  0  0  0  0  0  0  0  0  0  0
   21.8601   20.7911   24.2667 C   0  0  0  0  0  0  0  0  0  0  0  0
   21.7872   19.7247   24.5121 H   0  0  0  0  0  0  0  0  0  0  0  0
   22.7087   20.8945   23.5762 H   0  0  0  0  0  0  0  0  0  0  0  0
   20.5667   21.2838   23.5741 C   0  0  0  0  0  0  0  0  0  0  0  0
   19.7202   21.2514   24.2737 H   0  0  0  0  0  0  0  0  0  0  0  0
   20.7022   22.3424   23.3125 H   0  0  0  0  0  0  0  0  0  0  0  0
   20.2221   20.4987   22.2816 C   0  0  0  0  0  0  0  0  0  0  0  0
   21.1370   20.1015   21.8208 H   0  0  0  0  0  0  0  0  0  0  0  0
   19.8081   21.2078   21.5514 H   0  0  0  0  0  0  0  0  0  0  0  0
   19.1831   19.3630   22.4689 C   0  0  0  0  0  0  0  0  0  0  0  0
   18.2404   19.7970   22.8276 H   0  0  0  0  0  0  0  0  0  0  0  0
   18.9700   18.9395   21.4792 H   0  0  0  0  0  0  0  0  0  0  0  0
   19.6422   18.2354   23.4314 C   0  0  0  0  0  0  0  0  0  0  0  0
   19.7669   18.6498   24.4392 H   0  0  0  0  0  0  0  0  0  0  0  0
   20.6305   17.8706   23.1223 H   0  0  0  0  0  0  0  0  0  0  0  0
   18.6754   17.0319   23.5335 C   0  0  2  0  0  0  0  0  0  0  0  0
   19.0788   16.3559   24.2938 H   0  0  0  0  0  0  0  0  0  0  0  0
   18.5868   16.2436   22.2149 C   0  0  0  0  0  0  0  0  0  0  0  0
   18.0118   15.3207   22.3589 H   0  0  0  0  0  0  0  0  0  0  0  0
   18.0945   16.8236   21.4256 H   0  0  0  0  0  0  0  0  0  0  0  0
   19.5861   15.9604   21.8618 H   0  0  0  0  0  0  0  0  0  0  0  0
   17.3083   17.4328   24.0150 N   0  3  0  0  0  0  0  0  0  0  0  0
   16.8515   18.0623   23.3504 H   0  0  0  0  0  0  0  0  0  0  0  0
   17.3546   17.9160   24.9167 H   0  0  0  0  0  0  0  0  0  0  0  0
   16.7000   16.6178   24.1348 H   0  0  0  0  0  0  0  0  0  0  0  0
  1  2  1  0  0  0  0
  1  3  1  0  0  0  0
  1  4  1  0  0  0  0
  1  5  1  0  0  0  0
  5  6  1  0  0  0  0
  5  7  1  0  0  0  0
  5  8  1  0  0  0  0
  8  9  1  0  0  0  0
  8 10  1  0  0  0  0
  8 11  1  0  0  0  0
 11 12  1  0  0  0  0
 11 13  1  0  0  0  0
 11 14  1  0  0  0  0
 14 15  1  0  0  0  0
 14 16  1  0  0  0  0
 14 17  1  0  0  0  0
 17 18  1  0  0  0  0
 17 19  1  0  0  0  0
 17 20  1  0  0  0  0
 20 21  1  0  0  0  0
 20 22  1  0  0  0  0
 22 23  1  0  0  0  0
 22 24  1  0  0  0  0
 22 25  1  0  0  0  0
 20 26  1  0  0  0  0
 26 27  1  0  0  0  0
 26 28  1  0  0  0  0
 26 29  1  0  0  0  0
M  END
> <VConfSearch Rank>
797

> <Conf_Id>
71

> <Delta U+W>
3.542

> <U+W>
-24.284

> <U>
28.217

> <W>
-52.501

> <W(PB)>
-54.947

> <W(SA)>
2.446

> <Valence>
6.821

> <Coulomb>
20.147

> <VdW>
1.249

> <VdW6>
-10.237

> <VdW12>
11.486

> <Bond>
0.317

> <Angle>
1.990

> <Pdih>
4.515

> <Idih>
0.000

> <Tether>
0.000

$$$$
VeraChem MOL file


 29 28  0  0  0  0  0  0  0  0999 V2000     
   23.5875   18.3661   22.5337 C   0  0  0  0  0  0  0  0  0  0  0  0
   23.3325   17.3986   22.9855 H   0  0  0  0  0  0  0  0  0  0  0  0
   23.9348   18.1838   21.5083 H   0  0  0  0  0  0  0  0  0  0  0  0
   24.4239   18.7935   23.1018 H   0  0  0  0  0  0  0  0  0  0  0  0
   22.3751   19.3208   22.5475 C   0  0  0  0  0  0  0  0  0  0  0  0
   22.6721   20.2890   22.1208 H   0  0  0  0  0  0  0  0  0  0  0  0
   22.0831   19.5149   23.5864 H   0  0  0  0  0  0  0  0  0  0  0  0
   21.1860   18.7433   21.7423 C   0  0  0  0  0  0  0  0  0  0  0  0
   21.5167   18.5964   20.7048 H   0  0  0  0  0  0  0  0  0  0  0  0
   20.9164   17.7467   22.1179 H   0  0  0  0  0  0  0  0  0  0  0  0
   19.9391   19.6658   21.7333 C   0  0  0  0  0  0  0  0  0  0  0  0
   19.4645   19.5881   20.7453 H   0  0  0  0  0  0  0  0  0  0  0  0
   20.2411   20.7174   21.8337 H   0  0  0  0  0  0  0  0  0  0  0  0
   18.8647   19.3147   22.7946 C   0  0  0  0  0  0  0  0  0  0  0  0
   18.0037   19.9769   22.6359 H   0  0  0  0  0  0  0  0  0  0  0  0
   18.5050   18.2934   22.6116 H   0  0  0  0  0  0  0  0  0  0  0  0
   19.3552   19.4442   24.2611 C   0  0  0  0  0  0  0  0  0  0  0  0
   19.8387   20.4203   24.3971 H   0  0  0  0  0  0  0  0  0  0  0  0
   20.1251   18.6871   24.4552 H   0  0  0  0  0  0  0  0  0  0  0  0
   18.2493   19.2909   25.3318 C   0  0  2  0  0  0  0  0  0  0  0  0
   18.7264   19.4031   26.3104 H   0  0  0  0  0  0  0  0  0  0  0  0
   17.5939   17.8995   25.2898 C   0  0  0  0  0  0  0  0  0  0  0  0
   18.3525   17.1093   25.3517 H   0  0  0  0  0  0  0  0  0  0  0  0
   16.9102   17.7716   26.1380 H   0  0  0  0  0  0  0  0  0  0  0  0
   17.0172   17.7512   24.3690 H   0  0  0  0  0  0  0  0  0  0  0  0
   17.2129   20.3775   25.2480 N   0  3  0  0  0  0  0  0  0  0  0  0
   17.6369   21.3069   25.3184 H   0  0  0  0  0  0  0  0  0  0  0  0
   16.5247   20.2969   26.0020 H   0  0  0  0  0  0  0  0  0  0  0  0
   16.7034   20.3373   24.3618 H   0  0  0  0  0  0  0  0  0  0  0  0
  1  2  1  0  0  0  0
  1  3  1  0  0  0  0
  1  4  1  0  0  0  0
  1  5  1  0  0  0  0
  5  6  1  0  0  0  0
  5  7  1  0  0  0  0
  5  8  1  0  0  0  0
  8  9  1  0  0  0  0
  8 10  1  0  0  0  0
  8 11  1  0  0  0  0
 11 12  1  0  0  0  0
 11 13  1  0  0  0  0
 11 14  1  0  0  0  0
 14 15  1  0  0  0  0
 14 16  1  0  0  0  0
 14 17  1  0  0  0  0
 17 18  1  0  0  0  0
 17 19  1  0  0  0  0
 17 20  1  0  0  0  0
 20 21  1  0  0  0  0
 20 22  1  0  0  0  0
 22 23  1  0  0  0  0
 22 24  1  0  0  0  0
 22 25  1  0  0  0  0
 20 26  1  0  0  0  0
 26 27  1  0  0  0  0
 26 28  1  0  0  0  0
 26 29  1  0  0  0  0
M  END
> <VConfSearch Rank>
798

> <Conf_Id>
163

> <Delta U+W>
3.309

> <U+W>
-24.517

> <U>
27.916

> <W>
-52.433

> <W(PB)>
-54.866

> <W(SA)>
2.433

> <Valence>
6.693

> <Coulomb>
20.015

> <VdW>
1.208

> <VdW6>
-10.294

> <VdW12>
11.503

> <Bond>
0.312

> <Angle>
1.939

> <Pdih>
4.441

> <Idih>
0.000

> <Tether>
0.000

$$$$
VeraChem MOL file


 29 28  0  0  0  0  0  0  0  0999 V2000     
   17.2467   16.7905   21.5944 C   0  0  0  0  0  0  0  0  0  0  0  0
   16.4512   16.6239   22.3323 H   0  0  0  0  0  0  0  0  0  0  0  0
   17.0642   17.7539   21.1027 H   0  0  0  0  0  0  0  0  0  0  0  0
   17.1628   16.0089   20.8283 H   0  0  0  0  0  0  0  0  0  0  0  0
   18.6407   16.7464   22.2606 C   0  0  0  0  0  0  0  0  0  0  0  0
   19.4165   16.9506   21.5096 H   0  0  0  0  0  0  0  0  0  0  0  0
   18.8255   15.7257   22.6235 H   0  0  0  0  0  0  0  0  0  0  0  0
   18.7895   17.7282   23.4479 C   0  0  0  0  0  0  0  0  0  0  0  0
   18.0147   17.5176   24.1978 H   0  0  0  0  0  0  0  0  0  0  0  0
   19.7536   17.5280   23.9330 H   0  0  0  0  0  0  0  0  0  0  0  0
   18.7202   19.2183   23.0281 C   0  0  0  0  0  0  0  0  0  0  0  0
   17.7559   19.4157   22.5424 H   0  0  0  0  0  0  0  0  0  0  0  0
   19.4884   19.4249   22.2715 H   0  0  0  0  0  0  0  0  0  0  0  0
   18.8633   20.2038   24.2171 C   0  0  0  0  0  0  0  0  0  0  0  0
   18.7450   21.2295   23.8427 H   0  0  0  0  0  0  0  0  0  0  0  0
   18.0288   20.0461   24.9142 H   0  0  0  0  0  0  0  0  0  0  0  0
   20.1970   20.0960   25.0038 C   0  0  0  0  0  0  0  0  0  0  0  0
   20.2216   19.1407   25.5433 H   0  0  0  0  0  0  0  0  0  0  0  0
   20.2184   20.8759   25.7766 H   0  0  0  0  0  0  0  0  0  0  0  0
   21.4606   20.2147   24.1235 C   0  0  2  0  0  0  0  0  0  0  0  0
   21.4245   19.4294   23.3625 H   0  0  0  0  0  0  0  0  0  0  0  0
   22.7256   20.0044   24.9703 C   0  0  0  0  0  0  0  0  0  0  0  0
   23.6245   20.0505   24.3432 H   0  0  0  0  0  0  0  0  0  0  0  0
   22.8132   20.7709   25.7505 H   0  0  0  0  0  0  0  0  0  0  0  0
   22.7093   19.0213   25.4571 H   0  0  0  0  0  0  0  0  0  0  0  0
   21.5244   21.5266   23.3909 N   0  3  0  0  0  0  0  0  0  0  0  0
   20.6992   21.6618   22.8005 H   0  0  0  0  0  0  0  0  0  0  0  0
   22.3491   21.5789   22.7861 H   0  0  0  0  0  0  0  0  0  0  0  0
   21.5704   22.3147   24.0421 H   0  0  0  0  0  0  0  0  0  0  0  0
  1  2  1  0  0  0  0
  1  3  1  0  0  0  0
  1  4  1  0  0  0  0
  1  5  1  0  0  0  0
  5  6  1  0  0  0  0
  5  7  1  0  0  0  0
  5  8  1  0  0  0  0
  8  9  1  0  0  0  0
  8 10  1  0  0  0  0
  8 11  1  0  0  0  0
 11 12  1  0  0  0  0
 11 13  1  0  0  0  0
 11 14  1  0  0  0  0
 14 15  1  0  0  0  0
 14 16  1  0  0  0  0
 14 17  1  0  0  0  0
 17 18  1  0  0  0  0
 17 19  1  0  0  0  0
 17 20  1  0  0  0  0
 20 21  1  0  0  0  0
 20 22  1  0  0  0  0
 22 23  1  0  0  0  0
 22 24  1  0  0  0  0
 22 25  1  0  0  0  0
 20 26  1  0  0  0  0
 26 27  1  0  0  0  0
 26 28  1  0  0  0  0
 26 29  1  0  0  0  0
M  END
> <VConfSearch Rank>
799

> <Conf_Id>
173

> <Delta U+W>
1.363

> <U+W>
-26.462

> <U>
25.816

> <W>
-52.279

> <W(PB)>
-54.727

> <W(SA)>
2.449

> <Valence>
4.504

> <Coulomb>
20.342

> <VdW>
0.971

> <VdW6>
-10.532

> <VdW12>
11.503

> <Bond>
0.307

> <Angle>
1.715

> <Pdih>
2.481

> <Idih>
0.000

> <Tether>
0.000

$$$$
VeraChem MOL file


 29 28  0  0  0  0  0  0  0  0999 V2000     
   16.4958   17.0903   23.1164 C   0  0  0  0  0  0  0  0  0  0  0  0
   16.9142   16.1048   22.8735 H   0  0  0  0  0  0  0  0  0  0  0  0
   15.7567   16.9601   23.9177 H   0  0  0  0  0  0  0  0  0  0  0  0
   15.9677   17.4607   22.2282 H   0  0  0  0  0  0  0  0  0  0  0  0
   17.6064   18.0746   23.5400 C   0  0  0  0  0  0  0  0  0  0  0  0
   17.1617   19.0571   23.7506 H   0  0  0  0  0  0  0  0  0  0  0  0
   18.3017   18.2055   22.7003 H   0  0  0  0  0  0  0  0  0  0  0  0
   18.3723   17.5691   24.7838 C   0  0  0  0  0  0  0  0  0  0  0  0
   17.6489   17.3295   25.5753 H   0  0  0  0  0  0  0  0  0  0  0  0
   18.8810   16.6263   24.5398 H   0  0  0  0  0  0  0  0  0  0  0  0
   19.4029   18.5767   25.3559 C   0  0  0  0  0  0  0  0  0  0  0  0
   19.8475   18.1211   26.2516 H   0  0  0  0  0  0  0  0  0  0  0  0
   18.8899   19.4819   25.7089 H   0  0  0  0  0  0  0  0  0  0  0  0
   20.5512   18.9509   24.3828 C   0  0  0  0  0  0  0  0  0  0  0  0
   21.4735   19.0599   24.9686 H   0  0  0  0  0  0  0  0  0  0  0  0
   20.7278   18.1203   23.6875 H   0  0  0  0  0  0  0  0  0  0  0  0
   20.2928   20.2775   23.6156 C   0  0  0  0  0  0  0  0  0  0  0  0
   20.1748   21.0913   24.3429 H   0  0  0  0  0  0  0  0  0  0  0  0
   19.3415   20.2250   23.0744 H   0  0  0  0  0  0  0  0  0  0  0  0
   21.4033   20.6771   22.6158 C   0  0  2  0  0  0  0  0  0  0  0  0
   21.1284   21.6501   22.1970 H   0  0  0  0  0  0  0  0  0  0  0  0
   21.5116   19.6829   21.4464 C   0  0  0  0  0  0  0  0  0  0  0  0
   20.5364   19.5393   20.9648 H   0  0  0  0  0  0  0  0  0  0  0  0
   22.2054   20.0610   20.6855 H   0  0  0  0  0  0  0  0  0  0  0  0
   21.8793   18.7044   21.7770 H   0  0  0  0  0  0  0  0  0  0  0  0
   22.7366   20.8725   23.2833 N   0  3  0  0  0  0  0  0  0  0  0  0
   22.6823   21.5667   24.0342 H   0  0  0  0  0  0  0  0  0  0  0  0
   23.4445   21.1958   22.6177 H   0  0  0  0  0  0  0  0  0  0  0  0
   23.0770   19.9996   23.6941 H   0  0  0  0  0  0  0  0  0  0  0  0
  1  2  1  0  0  0  0
  1  3  1  0  0  0  0
  1  4  1  0  0  0  0
  1  5  1  0  0  0  0
  5  6  1  0  0  0  0
  5  7  1  0  0  0  0
  5  8  1  0  0  0  0
  8  9  1  0  0  0  0
  8 10  1  0  0  0  0
  8 11  1  0  0  0  0
 11 12  1  0  0  0  0
 11 13  1  0  0  0  0
 11 14  1  0  0  0  0
 14 15  1  0  0  0  0
 14 16  1  0  0  0  0
 14 17  1  0  0  0  0
 17 18  1  0  0  0  0
 17 19  1  0  0  0  0
 17 20  1  0  0  0  0
 20 21  1  0  0  0  0
 20 22  1  0  0  0  0
 22 23  1  0  0  0  0
 22 24  1  0  0  0  0
 22 25  1  0  0  0  0
 20 26  1  0  0  0  0
 26 27  1  0  0  0  0
 26 28  1  0  0  0  0
 26 29  1  0  0  0  0
M  END
> <VConfSearch Rank>
800

> <Conf_Id>
117

> <Delta U+W>
3.377

> <U+W>
-24.449

> <U>
27.947

> <W>
-52.396

> <W(PB)>
-54.842

> <W(SA)>
2.447

> <Valence>
6.731

> <Coulomb>
20.067

> <VdW>
1.149

> <VdW6>
-10.427

> <VdW12>
11.575

> <Bond>
0.324

> <Angle>
1.943

> <Pdih>
4.465

> <Idih>
0.000

> <Tether>
0.000

$$$$
VeraChem MOL file


 29 28  0  0  0  0  0  0  0  0999 V2000     
   21.2644   23.2271   21.4072 C   0  0  0  0  0  0  0  0  0  0  0  0
   21.4908   22.7241   20.4580 H   0  0  0  0  0  0  0  0  0  0  0  0
   20.2626   23.6694   21.3294 H   0  0  0  0  0  0  0  0  0  0  0  0
   21.9851   24.0451   21.5355 H   0  0  0  0  0  0  0  0  0  0  0  0
   21.3443   22.2398   22.5908 C   0  0  0  0  0  0  0  0  0  0  0  0
   21.1467   22.7781   23.5284 H   0  0  0  0  0  0  0  0  0  0  0  0
   22.3654   21.8400   22.6638 H   0  0  0  0  0  0  0  0  0  0  0  0
   20.3390   21.0775   22.4348 C   0  0  0  0  0  0  0  0  0  0  0  0
   19.3201   21.4822   22.3600 H   0  0  0  0  0  0  0  0  0  0  0  0
   20.5390   20.5441   21.4952 H   0  0  0  0  0  0  0  0  0  0  0  0
   20.4160   20.0868   23.6183 C   0  0  0  0  0  0  0  0  0  0  0  0
   20.2171   20.6219   24.5573 H   0  0  0  0  0  0  0  0  0  0  0  0
   21.4350   19.6824   23.6923 H   0  0  0  0  0  0  0  0  0  0  0  0
   19.4095   18.9245   23.4623 C   0  0  0  0  0  0  0  0  0  0  0  0
   18.3904   19.3296   23.3919 H   0  0  0  0  0  0  0  0  0  0  0  0
   19.6106   18.3991   22.5192 H   0  0  0  0  0  0  0  0  0  0  0  0
   19.4897   17.9331   24.6484 C   0  0  0  0  0  0  0  0  0  0  0  0
   19.3401   18.4872   25.5847 H   0  0  0  0  0  0  0  0  0  0  0  0
   20.4958   17.4960   24.7000 H   0  0  0  0  0  0  0  0  0  0  0  0
   18.4376   16.8062   24.5639 C   0  0  2  0  0  0  0  0  0  0  0  0
   17.4474   17.2663   24.4892 H   0  0  0  0  0  0  0  0  0  0  0  0
   18.4746   15.9440   25.8357 C   0  0  0  0  0  0  0  0  0  0  0  0
   17.7047   15.1634   25.7982 H   0  0  0  0  0  0  0  0  0  0  0  0
   19.4501   15.4566   25.9566 H   0  0  0  0  0  0  0  0  0  0  0  0
   18.2853   16.5553   26.7269 H   0  0  0  0  0  0  0  0  0  0  0  0
   18.6099   15.9482   23.3404 N   0  3  0  0  0  0  0  0  0  0  0  0
   18.5432   16.5027   22.4826 H   0  0  0  0  0  0  0  0  0  0  0  0
   17.8925   15.2192   23.2906 H   0  0  0  0  0  0  0  0  0  0  0  0
   19.5213   15.4824   23.3369 H   0  0  0  0  0  0  0  0  0  0  0  0
  1  2  1  0  0  0  0
  1  3  1  0  0  0  0
  1  4  1  0  0  0  0
  1  5  1  0  0  0  0
  5  6  1  0  0  0  0
  5  7  1  0  0  0  0
  5  8  1  0  0  0  0
  8  9  1  0  0  0  0
  8 10  1  0  0  0  0
  8 11  1  0  0  0  0
 11 12  1  0  0  0  0
 11 13  1  0  0  0  0
 11 14  1  0  0  0  0
 14 15  1  0  0  0  0
 14 16  1  0  0  0  0
 14 17  1  0  0  0  0
 17 18  1  0  0  0  0
 17 19  1  0  0  0  0
 17 20  1  0  0  0  0
 20 21  1  0  0  0  0
 20 22  1  0  0  0  0
 22 23  1  0  0  0  0
 22 24  1  0  0  0  0
 22 25  1  0  0  0  0
 20 26  1  0  0  0  0
 26 27  1  0  0  0  0
 26 28  1  0  0  0  0
 26 29  1  0  0  0  0
M  END
> <VConfSearch Rank>
801

> <Conf_Id>
164

> <Delta U+W>
0.000

> <U+W>
-27.826

> <U>
23.963

> <W>
-51.789

> <W(PB)>
-54.342

> <W(SA)>
2.554

> <Valence>
3.166

> <Coulomb>
19.734

> <VdW>
1.062

> <VdW6>
-7.938

> <VdW12>
9.001

> <Bond>
0.188

> <Angle>
0.880

> <Pdih>
2.098

> <Idih>
0.000

> <Tether>
0.000

$$$$
VeraChem MOL file


 29 28  0  0  0  0  0  0  0  0999 V2000     
   17.5549   19.8439   19.2873 C   0  0  0  0  0  0  0  0  0  0  0  0
   16.6909   19.2119   19.5305 H   0  0  0  0  0  0  0  0  0  0  0  0
   17.3000   20.8823   19.5365 H   0  0  0  0  0  0  0  0  0  0  0  0
   17.7191   19.7880   18.2033 H   0  0  0  0  0  0  0  0  0  0  0  0
   18.8127   19.3824   20.0534 C   0  0  0  0  0  0  0  0  0  0  0  0
   19.6667   20.0111   19.7645 H   0  0  0  0  0  0  0  0  0  0  0  0
   19.0622   18.3535   19.7584 H   0  0  0  0  0  0  0  0  0  0  0  0
   18.6081   19.4514   21.5829 C   0  0  0  0  0  0  0  0  0  0  0  0
   18.3566   20.4811   21.8725 H   0  0  0  0  0  0  0  0  0  0  0  0
   17.7523   18.8233   21.8665 H   0  0  0  0  0  0  0  0  0  0  0  0
   19.8657   18.9900   22.3535 C   0  0  0  0  0  0  0  0  0  0  0  0
   20.7210   19.6188   22.0695 H   0  0  0  0  0  0  0  0  0  0  0  0
   20.1166   17.9608   22.0617 H   0  0  0  0  0  0  0  0  0  0  0  0
   19.6603   19.0587   23.8837 C   0  0  0  0  0  0  0  0  0  0  0  0
   19.4018   20.0885   24.1632 H   0  0  0  0  0  0  0  0  0  0  0  0
   18.8081   18.4260   24.1680 H   0  0  0  0  0  0  0  0  0  0  0  0
   20.9234   18.6004   24.6534 C   0  0  0  0  0  0  0  0  0  0  0  0
   21.7618   19.2708   24.4220 H   0  0  0  0  0  0  0  0  0  0  0  0
   21.2116   17.6050   24.2904 H   0  0  0  0  0  0  0  0  0  0  0  0
   20.7262   18.5238   26.1847 C   0  0  2  0  0  0  0  0  0  0  0  0
   19.8612   17.8850   26.3878 H   0  0  0  0  0  0  0  0  0  0  0  0
   20.4671   19.9077   26.8068 C   0  0  0  0  0  0  0  0  0  0  0  0
   21.2813   20.6056   26.5751 H   0  0  0  0  0  0  0  0  0  0  0  0
   19.5286   20.3401   26.4413 H   0  0  0  0  0  0  0  0  0  0  0  0
   20.3850   19.8312   27.8980 H   0  0  0  0  0  0  0  0  0  0  0  0
   21.9037   17.8672   26.8502 N   0  3  0  0  0  0  0  0  0  0  0  0
   21.7606   17.7783   27.8603 H   0  0  0  0  0  0  0  0  0  0  0  0
   22.7618   18.4072   26.7096 H   0  0  0  0  0  0  0  0  0  0  0  0
   22.0685   16.9258   26.4821 H   0  0  0  0  0  0  0  0  0  0  0  0
  1  2  1  0  0  0  0
  1  3  1  0  0  0  0
  1  4  1  0  0  0  0
  1  5  1  0  0  0  0
  5  6  1  0  0  0  0
  5  7  1  0  0  0  0
  5  8  1  0  0  0  0
  8  9  1  0  0  0  0
  8 10  1  0  0  0  0
  8 11  1  0  0  0  0
 11 12  1  0  0  0  0
 11 13  1  0  0  0  0
 11 14  1  0  0  0  0
 14 15  1  0  0  0  0
 14 16  1  0  0  0  0
 14 17  1  0  0  0  0
 17 18  1  0  0  0  0
 17 19  1  0  0  0  0
 17 20  1  0  0  0  0
 20 21  1  0  0  0  0
 20 22  1  0  0  0  0
 22 23  1  0  0  0  0
 22 24  1  0  0  0  0
 22 25  1  0  0  0  0
 20 26  1  0  0  0  0
 26 27  1  0  0  0  0
 26 28  1  0  0  0  0
 26 29  1  0  0  0  0
M  END
> <VConfSearch Rank>
802

> <Conf_Id>
58

> <Delta U+W>
0.412

> <U+W>
-27.414

> <U>
24.279

> <W>
-51.694

> <W(PB)>
-54.271

> <W(SA)>
2.577

> <Valence>
3.709

> <Coulomb>
19.380

> <VdW>
1.191

> <VdW6>
-8.093

> <VdW12>
9.284

> <Bond>
0.200

> <Angle>
1.161

> <Pdih>
2.348

> <Idih>
0.000

> <Tether>
0.000

$$$$
VeraChem MOL file


 29 28  0  0  0  0  0  0  0  0999 V2000     
   18.7558   18.1194   19.0017 C   0  0  0  0  0  0  0  0  0  0  0  0
   19.0111   19.1335   18.6674 H   0  0  0  0  0  0  0  0  0  0  0  0
   19.6493   17.4900   18.8979 H   0  0  0  0  0  0  0  0  0  0  0  0
   17.9857   17.7255   18.3258 H   0  0  0  0  0  0  0  0  0  0  0  0
   18.2492   18.1271   20.4594 C   0  0  0  0  0  0  0  0  0  0  0  0
   17.9702   17.1056   20.7538 H   0  0  0  0  0  0  0  0  0  0  0  0
   17.3369   18.7364   20.5251 H   0  0  0  0  0  0  0  0  0  0  0  0
   19.3151   18.6774   21.4324 C   0  0  0  0  0  0  0  0  0  0  0  0
   20.2257   18.0665   21.3617 H   0  0  0  0  0  0  0  0  0  0  0  0
   19.5925   19.6975   21.1327 H   0  0  0  0  0  0  0  0  0  0  0  0
   18.8112   18.6869   22.8933 C   0  0  0  0  0  0  0  0  0  0  0  0
   18.5335   17.6665   23.1916 H   0  0  0  0  0  0  0  0  0  0  0  0
   17.9004   19.2977   22.9628 H   0  0  0  0  0  0  0  0  0  0  0  0
   19.8777   19.2378   23.8665 C   0  0  0  0  0  0  0  0  0  0  0  0
   20.7852   18.6243   23.7911 H   0  0  0  0  0  0  0  0  0  0  0  0
   20.1519   20.2550   23.5575 H   0  0  0  0  0  0  0  0  0  0  0  0
   19.3648   19.2479   25.3302 C   0  0  0  0  0  0  0  0  0  0  0  0
   19.0482   18.2341   25.6082 H   0  0  0  0  0  0  0  0  0  0  0  0
   18.4648   19.8737   25.3949 H   0  0  0  0  0  0  0  0  0  0  0  0
   20.3906   19.7433   26.3768 C   0  0  2  0  0  0  0  0  0  0  0  0
   19.9138   19.6703   27.3592 H   0  0  0  0  0  0  0  0  0  0  0  0
   20.7776   21.2160   26.1562 C   0  0  0  0  0  0  0  0  0  0  0  0
   21.3957   21.5784   26.9867 H   0  0  0  0  0  0  0  0  0  0  0  0
   21.3490   21.3511   25.2302 H   0  0  0  0  0  0  0  0  0  0  0  0
   19.8841   21.8505   26.1051 H   0  0  0  0  0  0  0  0  0  0  0  0
   21.6127   18.8692   26.4410 N   0  3  0  0  0  0  0  0  0  0  0  0
   21.3669   17.8936   26.6320 H   0  0  0  0  0  0  0  0  0  0  0  0
   22.2524   19.1742   27.1802 H   0  0  0  0  0  0  0  0  0  0  0  0
   22.1305   18.8900   25.5589 H   0  0  0  0  0  0  0  0  0  0  0  0
  1  2  1  0  0  0  0
  1  3  1  0  0  0  0
  1  4  1  0  0  0  0
  1  5  1  0  0  0  0
  5  6  1  0  0  0  0
  5  7  1  0  0  0  0
  5  8  1  0  0  0  0
  8  9  1  0  0  0  0
  8 10  1  0  0  0  0
  8 11  1  0  0  0  0
 11 12  1  0  0  0  0
 11 13  1  0  0  0  0
 11 14  1  0  0  0  0
 14 15  1  0  0  0  0
 14 16  1  0  0  0  0
 14 17  1  0  0  0  0
 17 18  1  0  0  0  0
 17 19  1  0  0  0  0
 17 20  1  0  0  0  0
 20 21  1  0  0  0  0
 20 22  1  0  0  0  0
 22 23  1  0  0  0  0
 22 24  1  0  0  0  0
 22 25  1  0  0  0  0
 20 26  1  0  0  0  0
 26 27  1  0  0  0  0
 26 28  1  0  0  0  0
 26 29  1  0  0  0  0
M  END
> <VConfSearch Rank>
803

> <Conf_Id>
137

> <Delta U+W>
0.280

> <U+W>
-27.546

> <U>
24.513

> <W>
-52.059

> <W(PB)>
-54.556

> <W(SA)>
2.497

> <Valence>
3.677

> <Coulomb>
19.662

> <VdW>
1.174

> <VdW6>
-8.569

> <VdW12>
9.743

> <Bond>
0.224

> <Angle>
1.211

> <Pdih>
2.243

> <Idih>
0.000

> <Tether>
0.000

$$$$
VeraChem MOL file


 29 28  0  0  0  0  0  0  0  0999 V2000     
   19.4868   14.7194   24.0381 C   0  0  0  0  0  0  0  0  0  0  0  0
   20.0204   14.9461   24.9704 H   0  0  0  0  0  0  0  0  0  0  0  0
   18.4097   14.7243   24.2506 H   0  0  0  0  0  0  0  0  0  0  0  0
   19.7648   13.7034   23.7292 H   0  0  0  0  0  0  0  0  0  0  0  0
   19.8390   15.7398   22.9351 C   0  0  0  0  0  0  0  0  0  0  0  0
   19.3181   15.4667   22.0067 H   0  0  0  0  0  0  0  0  0  0  0  0
   20.9159   15.6888   22.7213 H   0  0  0  0  0  0  0  0  0  0  0  0
   19.4567   17.1794   23.3444 C   0  0  0  0  0  0  0  0  0  0  0  0
   18.3793   17.2257   23.5545 H   0  0  0  0  0  0  0  0  0  0  0  0
   19.9758   17.4342   24.2773 H   0  0  0  0  0  0  0  0  0  0  0  0
   19.8137   18.2036   22.2402 C   0  0  0  0  0  0  0  0  0  0  0  0
   19.3540   17.8818   21.2955 H   0  0  0  0  0  0  0  0  0  0  0  0
   20.8992   18.2031   22.0699 H   0  0  0  0  0  0  0  0  0  0  0  0
   19.3369   19.6447   22.5481 C   0  0  0  0  0  0  0  0  0  0  0  0
   19.5022   20.2515   21.6488 H   0  0  0  0  0  0  0  0  0  0  0  0
   18.2526   19.6431   22.7259 H   0  0  0  0  0  0  0  0  0  0  0  0
   20.0645   20.2941   23.7542 C   0  0  0  0  0  0  0  0  0  0  0  0
   21.1472   20.3053   23.5719 H   0  0  0  0  0  0  0  0  0  0  0  0
   19.9045   19.6740   24.6443 H   0  0  0  0  0  0  0  0  0  0  0  0
   19.5772   21.7252   24.0780 C   0  0  2  0  0  0  0  0  0  0  0  0
   18.4894   21.6994   24.1950 H   0  0  0  0  0  0  0  0  0  0  0  0
   19.9247   22.7266   22.9616 C   0  0  0  0  0  0  0  0  0  0  0  0
   21.0031   22.7376   22.7599 H   0  0  0  0  0  0  0  0  0  0  0  0
   19.4025   22.4837   22.0293 H   0  0  0  0  0  0  0  0  0  0  0  0
   19.6220   23.7419   23.2460 H   0  0  0  0  0  0  0  0  0  0  0  0
   20.1330   22.2018   25.3913 N   0  3  0  0  0  0  0  0  0  0  0  0
   19.8765   21.5749   26.1595 H   0  0  0  0  0  0  0  0  0  0  0  0
   19.7824   23.1341   25.6294 H   0  0  0  0  0  0  0  0  0  0  0  0
   21.1549   22.2569   25.3670 H   0  0  0  0  0  0  0  0  0  0  0  0
  1  2  1  0  0  0  0
  1  3  1  0  0  0  0
  1  4  1  0  0  0  0
  1  5  1  0  0  0  0
  5  6  1  0  0  0  0
  5  7  1  0  0  0  0
  5  8  1  0  0  0  0
  8  9  1  0  0  0  0
  8 10  1  0  0  0  0
  8 11  1  0  0  0  0
 11 12  1  0  0  0  0
 11 13  1  0  0  0  0
 11 14  1  0  0  0  0
 14 15  1  0  0  0  0
 14 16  1  0  0  0  0
 14 17  1  0  0  0  0
 17 18  1  0  0  0  0
 17 19  1  0  0  0  0
 17 20  1  0  0  0  0
 20 21  1  0  0  0  0
 20 22  1  0  0  0  0
 22 23  1  0  0  0  0
 22 24  1  0  0  0  0
 22 25  1  0  0  0  0
 20 26  1  0  0  0  0
 26 27  1  0  0  0  0
 26 28  1  0  0  0  0
 26 29  1  0  0  0  0
M  END
> <VConfSearch Rank>
804

> <Conf_Id>
40

> <Delta U+W>
1.128

> <U+W>
-26.698

> <U>
25.442

> <W>
-52.140

> <W(PB)>
-54.658

> <W(SA)>
2.519

> <Valence>
4.343

> <Coulomb>
19.740

> <VdW>
1.360

> <VdW6>
-8.739

> <VdW12>
10.099

> <Bond>
0.251

> <Angle>
1.483

> <Pdih>
2.608

> <Idih>
0.000

> <Tether>
0.000

$$$$
VeraChem MOL file


 29 28  0  0  0  0  0  0  0  0999 V2000     
   17.8679   15.8373   25.6555 C   0  0  0  0  0  0  0  0  0  0  0  0
   17.0060   16.4606   25.3877 H   0  0  0  0  0  0  0  0  0  0  0  0
   18.0416   15.1212   24.8418 H   0  0  0  0  0  0  0  0  0  0  0  0
   17.5949   15.2662   26.5523 H   0  0  0  0  0  0  0  0  0  0  0  0
   19.1279   16.6918   25.9223 C   0  0  0  0  0  0  0  0  0  0  0  0
   19.9212   16.0376   26.3101 H   0  0  0  0  0  0  0  0  0  0  0  0
   18.9182   17.4234   26.7150 H   0  0  0  0  0  0  0  0  0  0  0  0
   19.6587   17.4206   24.6640 C   0  0  0  0  0  0  0  0  0  0  0  0
   20.6213   17.8800   24.9213 H   0  0  0  0  0  0  0  0  0  0  0  0
   19.8667   16.6849   23.8750 H   0  0  0  0  0  0  0  0  0  0  0  0
   18.6914   18.5060   24.1261 C   0  0  0  0  0  0  0  0  0  0  0  0
   18.4877   19.2451   24.9130 H   0  0  0  0  0  0  0  0  0  0  0  0
   17.7271   18.0432   23.8804 H   0  0  0  0  0  0  0  0  0  0  0  0
   19.2098   19.2275   22.8574 C   0  0  0  0  0  0  0  0  0  0  0  0
   19.4318   18.4857   22.0778 H   0  0  0  0  0  0  0  0  0  0  0  0
   18.3948   19.8510   22.4672 H   0  0  0  0  0  0  0  0  0  0  0  0
   20.4589   20.1107   23.1108 C   0  0  0  0  0  0  0  0  0  0  0  0
   21.2812   19.4825   23.4740 H   0  0  0  0  0  0  0  0  0  0  0  0
   20.2446   20.8388   23.9044 H   0  0  0  0  0  0  0  0  0  0  0  0
   20.9390   20.8515   21.8437 C   0  0  2  0  0  0  0  0  0  0  0  0
   21.1103   20.1101   21.0571 H   0  0  0  0  0  0  0  0  0  0  0  0
   22.2655   21.5775   22.1195 C   0  0  0  0  0  0  0  0  0  0  0  0
   22.6303   22.0772   21.2137 H   0  0  0  0  0  0  0  0  0  0  0  0
   22.1475   22.3352   22.9042 H   0  0  0  0  0  0  0  0  0  0  0  0
   23.0383   20.8688   22.4423 H   0  0  0  0  0  0  0  0  0  0  0  0
   19.9129   21.8161   21.3145 N   0  3  0  0  0  0  0  0  0  0  0  0
   19.6959   22.5434   22.0011 H   0  0  0  0  0  0  0  0  0  0  0  0
   19.0373   21.3402   21.0814 H   0  0  0  0  0  0  0  0  0  0  0  0
   20.2425   22.2841   20.4654 H   0  0  0  0  0  0  0  0  0  0  0  0
  1  2  1  0  0  0  0
  1  3  1  0  0  0  0
  1  4  1  0  0  0  0
  1  5  1  0  0  0  0
  5  6  1  0  0  0  0
  5  7  1  0  0  0  0
  5  8  1  0  0  0  0
  8  9  1  0  0  0  0
  8 10  1  0  0  0  0
  8 11  1  0  0  0  0
 11 12  1  0  0  0  0
 11 13  1  0  0  0  0
 11 14  1  0  0  0  0
 14 15  1  0  0  0  0
 14 16  1  0  0  0  0
 14 17  1  0  0  0  0
 17 18  1  0  0  0  0
 17 19  1  0  0  0  0
 17 20  1  0  0  0  0
 20 21  1  0  0  0  0
 20 22  1  0  0  0  0
 22 23  1  0  0  0  0
 22 24  1  0  0  0  0
 22 25  1  0  0  0  0
 20 26  1  0  0  0  0
 26 27  1  0  0  0  0
 26 28  1  0  0  0  0
 26 29  1  0  0  0  0
M  END
> <VConfSearch Rank>
805

> <Conf_Id>
134

> <Delta U+W>
1.228

> <U+W>
-26.598

> <U>
25.451

> <W>
-52.048

> <W(PB)>
-54.539

> <W(SA)>
2.490

> <Valence>
4.319

> <Coulomb>
19.732

> <VdW>
1.400

> <VdW6>
-9.173

> <VdW12>
10.573

> <Bond>
0.281

> <Angle>
1.459

> <Pdih>
2.580

> <Idih>
0.000

> <Tether>
0.000

$$$$
VeraChem MOL file


 29 28  0  0  0  0  0  0  0  0999 V2000     
   22.6186   17.3078   20.7686 C   0  0  0  0  0  0  0  0  0  0  0  0
   23.0457   16.9535   21.7148 H   0  0  0  0  0  0  0  0  0  0  0  0
   21.8697   16.5782   20.4339 H   0  0  0  0  0  0  0  0  0  0  0  0
   23.4279   17.3220   20.0272 H   0  0  0  0  0  0  0  0  0  0  0  0
   21.9964   18.7149   20.9163 C   0  0  0  0  0  0  0  0  0  0  0  0
   21.7011   19.0756   19.9210 H   0  0  0  0  0  0  0  0  0  0  0  0
   22.7556   19.4186   21.2852 H   0  0  0  0  0  0  0  0  0  0  0  0
   20.7568   18.7485   21.8427 C   0  0  0  0  0  0  0  0  0  0  0  0
   20.3107   19.7490   21.7752 H   0  0  0  0  0  0  0  0  0  0  0  0
   20.0003   18.0452   21.4685 H   0  0  0  0  0  0  0  0  0  0  0  0
   21.0844   18.4263   23.3230 C   0  0  0  0  0  0  0  0  0  0  0  0
   21.8398   19.1307   23.6974 H   0  0  0  0  0  0  0  0  0  0  0  0
   21.5342   17.4273   23.3886 H   0  0  0  0  0  0  0  0  0  0  0  0
   19.8438   18.4536   24.2494 C   0  0  0  0  0  0  0  0  0  0  0  0
   19.1019   17.7355   23.8758 H   0  0  0  0  0  0  0  0  0  0  0  0
   20.1456   18.0995   25.2448 H   0  0  0  0  0  0  0  0  0  0  0  0
   19.2059   19.8601   24.3883 C   0  0  0  0  0  0  0  0  0  0  0  0
   18.7664   20.1718   23.4324 H   0  0  0  0  0  0  0  0  0  0  0  0
   19.9989   20.5832   24.6200 H   0  0  0  0  0  0  0  0  0  0  0  0
   18.1289   19.9433   25.4937 C   0  0  2  0  0  0  0  0  0  0  0  0
   18.5729   19.5969   26.4321 H   0  0  0  0  0  0  0  0  0  0  0  0
   16.9069   19.0622   25.1784 C   0  0  0  0  0  0  0  0  0  0  0  0
   16.4602   19.3337   24.2138 H   0  0  0  0  0  0  0  0  0  0  0  0
   17.1790   18.0008   25.1447 H   0  0  0  0  0  0  0  0  0  0  0  0
   16.1386   19.1756   25.9531 H   0  0  0  0  0  0  0  0  0  0  0  0
   17.6994   21.3650   25.7272 N   0  3  0  0  0  0  0  0  0  0  0  0
   18.4922   21.9616   25.9811 H   0  0  0  0  0  0  0  0  0  0  0  0
   17.0149   21.4289   26.4862 H   0  0  0  0  0  0  0  0  0  0  0  0
   17.2669   21.7672   24.8912 H   0  0  0  0  0  0  0  0  0  0  0  0
  1  2  1  0  0  0  0
  1  3  1  0  0  0  0
  1  4  1  0  0  0  0
  1  5  1  0  0  0  0
  5  6  1  0  0  0  0
  5  7  1  0  0  0  0
  5  8  1  0  0  0  0
  8  9  1  0  0  0  0
  8 10  1  0  0  0  0
  8 11  1  0  0  0  0
 11 12  1  0  0  0  0
 11 13  1  0  0  0  0
 11 14  1  0  0  0  0
 14 15  1  0  0  0  0
 14 16  1  0  0  0  0
 14 17  1  0  0  0  0
 17 18  1  0  0  0  0
 17 19  1  0  0  0  0
 17 20  1  0  0  0  0
 20 21  1  0  0  0  0
 20 22  1  0  0  0  0
 22 23  1  0  0  0  0
 22 24  1  0  0  0  0
 22 25  1  0  0  0  0
 20 26  1  0  0  0  0
 26 27  1  0  0  0  0
 26 28  1  0  0  0  0
 26 29  1  0  0  0  0
M  END
> <VConfSearch Rank>
806

> <Conf_Id>
73

> <Delta U+W>
1.580

> <U+W>
-26.246

> <U>
25.821

> <W>
-52.067

> <W(PB)>
-54.581

> <W(SA)>
2.514

> <Valence>
4.779

> <Coulomb>
19.614

> <VdW>
1.428

> <VdW6>
-9.390

> <VdW12>
10.818

> <Bond>
0.283

> <Angle>
1.640

> <Pdih>
2.856

> <Idih>
0.000

> <Tether>
0.000

$$$$
VeraChem MOL file


 29 28  0  0  0  0  0  0  0  0999 V2000     
   16.4527   16.2686   22.7419 C   0  0  0  0  0  0  0  0  0  0  0  0
   17.2007   15.7809   22.1034 H   0  0  0  0  0  0  0  0  0  0  0  0
   15.7550   15.4973   23.0932 H   0  0  0  0  0  0  0  0  0  0  0  0
   15.8870   16.9789   22.1249 H   0  0  0  0  0  0  0  0  0  0  0  0
   17.1224   16.9819   23.9355 C   0  0  0  0  0  0  0  0  0  0  0  0
   17.6525   16.2421   24.5517 H   0  0  0  0  0  0  0  0  0  0  0  0
   16.3476   17.4294   24.5737 H   0  0  0  0  0  0  0  0  0  0  0  0
   18.1096   18.0743   23.4684 C   0  0  0  0  0  0  0  0  0  0  0  0
   18.8710   17.6152   22.8246 H   0  0  0  0  0  0  0  0  0  0  0  0
   17.5746   18.8125   22.8552 H   0  0  0  0  0  0  0  0  0  0  0  0
   18.7852   18.7866   24.6649 C   0  0  0  0  0  0  0  0  0  0  0  0
   19.3701   18.0609   25.2468 H   0  0  0  0  0  0  0  0  0  0  0  0
   18.0054   19.1655   25.3399 H   0  0  0  0  0  0  0  0  0  0  0  0
   19.6920   19.9723   24.2523 C   0  0  0  0  0  0  0  0  0  0  0  0
   19.1054   20.6989   23.6730 H   0  0  0  0  0  0  0  0  0  0  0  0
   20.0092   20.4902   25.1669 H   0  0  0  0  0  0  0  0  0  0  0  0
   20.9411   19.5432   23.4402 C   0  0  0  0  0  0  0  0  0  0  0  0
   20.6203   19.0492   22.5148 H   0  0  0  0  0  0  0  0  0  0  0  0
   21.5180   18.8021   24.0092 H   0  0  0  0  0  0  0  0  0  0  0  0
   21.8521   20.7322   23.0643 C   0  0  2  0  0  0  0  0  0  0  0  0
   21.2476   21.4724   22.5311 H   0  0  0  0  0  0  0  0  0  0  0  0
   22.9798   20.2664   22.1294 C   0  0  0  0  0  0  0  0  0  0  0  0
   22.5693   19.8187   21.2158 H   0  0  0  0  0  0  0  0  0  0  0  0
   23.6106   21.1126   21.8303 H   0  0  0  0  0  0  0  0  0  0  0  0
   23.6183   19.5201   22.6187 H   0  0  0  0  0  0  0  0  0  0  0  0
   22.4232   21.4263   24.2706 N   0  3  0  0  0  0  0  0  0  0  0  0
   23.0097   22.2215   24.0018 H   0  0  0  0  0  0  0  0  0  0  0  0
   23.0028   20.7917   24.8264 H   0  0  0  0  0  0  0  0  0  0  0  0
   21.6839   21.7839   24.8814 H   0  0  0  0  0  0  0  0  0  0  0  0
  1  2  1  0  0  0  0
  1  3  1  0  0  0  0
  1  4  1  0  0  0  0
  1  5  1  0  0  0  0
  5  6  1  0  0  0  0
  5  7  1  0  0  0  0
  5  8  1  0  0  0  0
  8  9  1  0  0  0  0
  8 10  1  0  0  0  0
  8 11  1  0  0  0  0
 11 12  1  0  0  0  0
 11 13  1  0  0  0  0
 11 14  1  0  0  0  0
 14 15  1  0  0  0  0
 14 16  1  0  0  0  0
 14 17  1  0  0  0  0
 17 18  1  0  0  0  0
 17 19  1  0  0  0  0
 17 20  1  0  0  0  0
 20 21  1  0  0  0  0
 20 22  1  0  0  0  0
 22 23  1  0  0  0  0
 22 24  1  0  0  0  0
 22 25  1  0  0  0  0
 20 26  1  0  0  0  0
 26 27  1  0  0  0  0
 26 28  1  0  0  0  0
 26 29  1  0  0  0  0
M  END
> <VConfSearch Rank>
807

> <Conf_Id>
111

> <Delta U+W>
0.580

> <U+W>
-27.246

> <U>
24.710

> <W>
-51.957

> <W(PB)>
-54.511

> <W(SA)>
2.555

> <Valence>
3.735

> <Coulomb>
19.760

> <VdW>
1.216

> <VdW6>
-8.624

> <VdW12>
9.840

> <Bond>
0.236

> <Angle>
1.168

> <Pdih>
2.330

> <Idih>
0.000

> <Tether>
0.000

$$$$
VeraChem MOL file


 29 28  0  0  0  0  0  0  0  0999 V2000     
   22.8126   16.0365   23.1760 C   0  0  0  0  0  0  0  0  0  0  0  0
   23.3051   16.5613   22.3470 H   0  0  0  0  0  0  0  0  0  0  0  0
   23.1430   16.4966   24.1165 H   0  0  0  0  0  0  0  0  0  0  0  0
   23.1603   14.9953   23.1699 H   0  0  0  0  0  0  0  0  0  0  0  0
   21.2767   16.0989   23.0375 C   0  0  0  0  0  0  0  0  0  0  0  0
   20.8131   15.5384   23.8614 H   0  0  0  0  0  0  0  0  0  0  0  0
   20.9746   15.6009   22.1055 H   0  0  0  0  0  0  0  0  0  0  0  0
   20.7608   17.5548   23.0426 C   0  0  0  0  0  0  0  0  0  0  0  0
   21.0765   18.0432   23.9737 H   0  0  0  0  0  0  0  0  0  0  0  0
   21.2254   18.1105   22.2164 H   0  0  0  0  0  0  0  0  0  0  0  0
   19.2204   17.6185   22.9078 C   0  0  0  0  0  0  0  0  0  0  0  0
   18.7523   17.1080   23.7607 H   0  0  0  0  0  0  0  0  0  0  0  0
   18.9162   17.0618   22.0107 H   0  0  0  0  0  0  0  0  0  0  0  0
   18.6694   19.0615   22.8000 C   0  0  0  0  0  0  0  0  0  0  0  0
   19.1192   19.5521   21.9266 H   0  0  0  0  0  0  0  0  0  0  0  0
   17.5892   19.0087   22.6056 H   0  0  0  0  0  0  0  0  0  0  0  0
   18.9120   19.9101   24.0748 C   0  0  0  0  0  0  0  0  0  0  0  0
   19.9860   20.0915   24.2083 H   0  0  0  0  0  0  0  0  0  0  0  0
   18.5802   19.3331   24.9480 H   0  0  0  0  0  0  0  0  0  0  0  0
   18.1642   21.2627   24.0684 C   0  0  2  0  0  0  0  0  0  0  0  0
   17.1010   21.0662   23.8992 H   0  0  0  0  0  0  0  0  0  0  0  0
   18.6699   22.1983   22.9558 C   0  0  0  0  0  0  0  0  0  0  0  0
   19.7482   22.3785   23.0485 H   0  0  0  0  0  0  0  0  0  0  0  0
   18.4757   21.7776   21.9624 H   0  0  0  0  0  0  0  0  0  0  0  0
   18.1578   23.1673   23.0034 H   0  0  0  0  0  0  0  0  0  0  0  0
   18.2621   21.9433   25.4054 N   0  3  0  0  0  0  0  0  0  0  0  0
   17.8904   21.3544   26.1564 H   0  0  0  0  0  0  0  0  0  0  0  0
   17.7346   22.8210   25.4175 H   0  0  0  0  0  0  0  0  0  0  0  0
   19.2327   22.1669   25.6412 H   0  0  0  0  0  0  0  0  0  0  0  0
  1  2  1  0  0  0  0
  1  3  1  0  0  0  0
  1  4  1  0  0  0  0
  1  5  1  0  0  0  0
  5  6  1  0  0  0  0
  5  7  1  0  0  0  0
  5  8  1  0  0  0  0
  8  9  1  0  0  0  0
  8 10  1  0  0  0  0
  8 11  1  0  0  0  0
 11 12  1  0  0  0  0
 11 13  1  0  0  0  0
 11 14  1  0  0  0  0
 14 15  1  0  0  0  0
 14 16  1  0  0  0  0
 14 17  1  0  0  0  0
 17 18  1  0  0  0  0
 17 19  1  0  0  0  0
 17 20  1  0  0  0  0
 20 21  1  0  0  0  0
 20 22  1  0  0  0  0
 22 23  1  0  0  0  0
 22 24  1  0  0  0  0
 22 25  1  0  0  0  0
 20 26  1  0  0  0  0
 26 27  1  0  0  0  0
 26 28  1  0  0  0  0
 26 29  1  0  0  0  0
M  END
> <VConfSearch Rank>
808

> <Conf_Id>
39

> <Delta U+W>
0.965

> <U+W>
-26.861

> <U>
25.129

> <W>
-51.990

> <W(PB)>
-54.526

> <W(SA)>
2.536

> <Valence>
4.206

> <Coulomb>
19.678

> <VdW>
1.245

> <VdW6>
-8.834

> <VdW12>
10.079

> <Bond>
0.240

> <Angle>
1.353

> <Pdih>
2.613

> <Idih>
0.000

> <Tether>
0.000

$$$$
VeraChem MOL file


 29 28  0  0  0  0  0  0  0  0999 V2000     
   18.5670   20.7254   27.2505 C   0  0  0  0  0  0  0  0  0  0  0  0
   18.2457   19.7343   27.5963 H   0  0  0  0  0  0  0  0  0  0  0  0
   19.6615   20.7713   27.3052 H   0  0  0  0  0  0  0  0  0  0  0  0
   18.1710   21.4703   27.9529 H   0  0  0  0  0  0  0  0  0  0  0  0
   18.0560   21.0074   25.8193 C   0  0  0  0  0  0  0  0  0  0  0  0
   18.4194   21.9885   25.4829 H   0  0  0  0  0  0  0  0  0  0  0  0
   16.9596   21.0780   25.8445 H   0  0  0  0  0  0  0  0  0  0  0  0
   18.4584   19.9200   24.7938 C   0  0  0  0  0  0  0  0  0  0  0  0
   18.0922   18.9417   25.1342 H   0  0  0  0  0  0  0  0  0  0  0  0
   17.9387   20.1352   23.8516 H   0  0  0  0  0  0  0  0  0  0  0  0
   19.9856   19.8477   24.5390 C   0  0  0  0  0  0  0  0  0  0  0  0
   20.5033   19.6405   25.4844 H   0  0  0  0  0  0  0  0  0  0  0  0
   20.3510   20.8247   24.1943 H   0  0  0  0  0  0  0  0  0  0  0  0
   20.3927   18.7525   23.5225 C   0  0  0  0  0  0  0  0  0  0  0  0
   21.4884   18.6859   23.5151 H   0  0  0  0  0  0  0  0  0  0  0  0
   20.0253   17.7802   23.8768 H   0  0  0  0  0  0  0  0  0  0  0  0
   19.8812   19.0254   22.0815 C   0  0  0  0  0  0  0  0  0  0  0  0
   20.1600   20.0452   21.7857 H   0  0  0  0  0  0  0  0  0  0  0  0
   18.7849   18.9930   22.0650 H   0  0  0  0  0  0  0  0  0  0  0  0
   20.4088   18.0431   21.0091 C   0  0  2  0  0  0  0  0  0  0  0  0
   19.9826   18.3504   20.0490 H   0  0  0  0  0  0  0  0  0  0  0  0
   19.9567   16.5973   21.2782 C   0  0  0  0  0  0  0  0  0  0  0  0
   20.4225   16.1890   22.1831 H   0  0  0  0  0  0  0  0  0  0  0  0
   18.8675   16.5455   21.3984 H   0  0  0  0  0  0  0  0  0  0  0  0
   20.2300   15.9472   20.4381 H   0  0  0  0  0  0  0  0  0  0  0  0
   21.9018   18.1189   20.8442 N   0  3  0  0  0  0  0  0  0  0  0  0
   22.2070   19.0709   20.6223 H   0  0  0  0  0  0  0  0  0  0  0  0
   22.2260   17.5093   20.0879 H   0  0  0  0  0  0  0  0  0  0  0  0
   22.3850   17.8314   21.6988 H   0  0  0  0  0  0  0  0  0  0  0  0
  1  2  1  0  0  0  0
  1  3  1  0  0  0  0
  1  4  1  0  0  0  0
  1  5  1  0  0  0  0
  5  6  1  0  0  0  0
  5  7  1  0  0  0  0
  5  8  1  0  0  0  0
  8  9  1  0  0  0  0
  8 10  1  0  0  0  0
  8 11  1  0  0  0  0
 11 12  1  0  0  0  0
 11 13  1  0  0  0  0
 11 14  1  0  0  0  0
 14 15  1  0  0  0  0
 14 16  1  0  0  0  0
 14 17  1  0  0  0  0
 17 18  1  0  0  0  0
 17 19  1  0  0  0  0
 17 20  1  0  0  0  0
 20 21  1  0  0  0  0
 20 22  1  0  0  0  0
 22 23  1  0  0  0  0
 22 24  1  0  0  0  0
 22 25  1  0  0  0  0
 20 26  1  0  0  0  0
 26 27  1  0  0  0  0
 26 28  1  0  0  0  0
 26 29  1  0  0  0  0
M  END
> <VConfSearch Rank>
809

> <Conf_Id>
155

> <Delta U+W>
1.624

> <U+W>
-26.202

> <U>
25.894

> <W>
-52.096

> <W(PB)>
-54.602

> <W(SA)>
2.506

> <Valence>
4.779

> <Coulomb>
19.659

> <VdW>
1.456

> <VdW6>
-9.843

> <VdW12>
11.299

> <Bond>
0.315

> <Angle>
1.725

> <Pdih>
2.740

> <Idih>
0.000

> <Tether>
0.000

$$$$
VeraChem MOL file


 29 28  0  0  0  0  0  0  0  0999 V2000     
   17.7854   19.3333   27.0934 C   0  0  0  0  0  0  0  0  0  0  0  0
   17.9801   18.2610   26.9676 H   0  0  0  0  0  0  0  0  0  0  0  0
   18.7325   19.8279   27.3451 H   0  0  0  0  0  0  0  0  0  0  0  0
   17.1085   19.4479   27.9499 H   0  0  0  0  0  0  0  0  0  0  0  0
   17.1582   19.9486   25.8220 C   0  0  0  0  0  0  0  0  0  0  0  0
   16.8753   20.9891   26.0338 H   0  0  0  0  0  0  0  0  0  0  0  0
   16.2262   19.4203   25.5770 H   0  0  0  0  0  0  0  0  0  0  0  0
   18.1075   19.9302   24.5999 C   0  0  0  0  0  0  0  0  0  0  0  0
   17.6249   20.4717   23.7747 H   0  0  0  0  0  0  0  0  0  0  0  0
   19.0196   20.4884   24.8480 H   0  0  0  0  0  0  0  0  0  0  0  0
   18.4682   18.4994   24.1258 C   0  0  0  0  0  0  0  0  0  0  0  0
   17.5428   17.9177   24.0145 H   0  0  0  0  0  0  0  0  0  0  0  0
   19.0653   17.9877   24.8921 H   0  0  0  0  0  0  0  0  0  0  0  0
   19.2317   18.4660   22.7788 C   0  0  0  0  0  0  0  0  0  0  0  0
   19.3159   17.4172   22.4668 H   0  0  0  0  0  0  0  0  0  0  0  0
   18.6369   18.9724   22.0061 H   0  0  0  0  0  0  0  0  0  0  0  0
   20.6442   19.1022   22.8531 C   0  0  0  0  0  0  0  0  0  0  0  0
   21.2426   18.5883   23.6170 H   0  0  0  0  0  0  0  0  0  0  0  0
   20.5495   20.1446   23.1802 H   0  0  0  0  0  0  0  0  0  0  0  0
   21.4027   19.0932   21.5058 C   0  0  2  0  0  0  0  0  0  0  0  0
   20.7625   19.5556   20.7482 H   0  0  0  0  0  0  0  0  0  0  0  0
   21.7545   17.6675   21.0439 C   0  0  0  0  0  0  0  0  0  0  0  0
   22.3412   17.1373   21.8045 H   0  0  0  0  0  0  0  0  0  0  0  0
   20.8529   17.0810   20.8339 H   0  0  0  0  0  0  0  0  0  0  0  0
   22.3438   17.6959   20.1191 H   0  0  0  0  0  0  0  0  0  0  0  0
   22.6467   19.9346   21.5797 N   0  3  0  0  0  0  0  0  0  0  0  0
   22.4333   20.9014   21.8417 H   0  0  0  0  0  0  0  0  0  0  0  0
   23.1323   19.9636   20.6786 H   0  0  0  0  0  0  0  0  0  0  0  0
   23.3064   19.5667   22.2705 H   0  0  0  0  0  0  0  0  0  0  0  0
  1  2  1  0  0  0  0
  1  3  1  0  0  0  0
  1  4  1  0  0  0  0
  1  5  1  0  0  0  0
  5  6  1  0  0  0  0
  5  7  1  0  0  0  0
  5  8  1  0  0  0  0
  8  9  1  0  0  0  0
  8 10  1  0  0  0  0
  8 11  1  0  0  0  0
 11 12  1  0  0  0  0
 11 13  1  0  0  0  0
 11 14  1  0  0  0  0
 14 15  1  0  0  0  0
 14 16  1  0  0  0  0
 14 17  1  0  0  0  0
 17 18  1  0  0  0  0
 17 19  1  0  0  0  0
 17 20  1  0  0  0  0
 20 21  1  0  0  0  0
 20 22  1  0  0  0  0
 22 23  1  0  0  0  0
 22 24  1  0  0  0  0
 22 25  1  0  0  0  0
 20 26  1  0  0  0  0
 26 27  1  0  0  0  0
 26 28  1  0  0  0  0
 26 29  1  0  0  0  0
M  END
> <VConfSearch Rank>
810

> <Conf_Id>
135

> <Delta U+W>
1.581

> <U+W>
-26.245

> <U>
25.974

> <W>
-52.219

> <W(PB)>
-54.709

> <W(SA)>
2.490

> <Valence>
4.811

> <Coulomb>
19.700

> <VdW>
1.463

> <VdW6>
-9.391

> <VdW12>
10.854

> <Bond>
0.285

> <Angle>
1.671

> <Pdih>
2.855

> <Idih>
0.000

> <Tether>
0.000

$$$$
VeraChem MOL file


 29 28  0  0  0  0  0  0  0  0999 V2000     
   19.5351   21.5613   26.7815 C   0  0  0  0  0  0  0  0  0  0  0  0
   20.5157   21.0922   26.9340 H   0  0  0  0  0  0  0  0  0  0  0  0
   19.6273   22.2963   25.9723 H   0  0  0  0  0  0  0  0  0  0  0  0
   19.2786   22.1091   27.6975 H   0  0  0  0  0  0  0  0  0  0  0  0
   18.4556   20.5017   26.4647 C   0  0  0  0  0  0  0  0  0  0  0  0
   17.4906   20.9978   26.2906 H   0  0  0  0  0  0  0  0  0  0  0  0
   18.3174   19.8614   27.3472 H   0  0  0  0  0  0  0  0  0  0  0  0
   18.8112   19.6077   25.2525 C   0  0  0  0  0  0  0  0  0  0  0  0
   19.7617   19.0953   25.4513 H   0  0  0  0  0  0  0  0  0  0  0  0
   18.0475   18.8231   25.1612 H   0  0  0  0  0  0  0  0  0  0  0  0
   18.8966   20.3898   23.9176 C   0  0  0  0  0  0  0  0  0  0  0  0
   19.7345   21.0987   23.9495 H   0  0  0  0  0  0  0  0  0  0  0  0
   17.9856   20.9917   23.7957 H   0  0  0  0  0  0  0  0  0  0  0  0
   19.0511   19.4741   22.6787 C   0  0  0  0  0  0  0  0  0  0  0  0
   18.1911   18.7936   22.6268 H   0  0  0  0  0  0  0  0  0  0  0  0
   19.0090   20.0986   21.7756 H   0  0  0  0  0  0  0  0  0  0  0  0
   20.3745   18.6664   22.6738 C   0  0  0  0  0  0  0  0  0  0  0  0
   20.3750   17.9390   23.4956 H   0  0  0  0  0  0  0  0  0  0  0  0
   21.2066   19.3566   22.8656 H   0  0  0  0  0  0  0  0  0  0  0  0
   20.6451   17.9309   21.3417 C   0  0  2  0  0  0  0  0  0  0  0  0
   20.6054   18.6643   20.5305 H   0  0  0  0  0  0  0  0  0  0  0  0
   19.5987   16.8373   21.0616 C   0  0  0  0  0  0  0  0  0  0  0  0
   19.5590   16.1073   21.8796 H   0  0  0  0  0  0  0  0  0  0  0  0
   18.5981   17.2664   20.9346 H   0  0  0  0  0  0  0  0  0  0  0  0
   19.8406   16.2991   20.1368 H   0  0  0  0  0  0  0  0  0  0  0  0
   22.0295   17.3452   21.3166 N   0  3  0  0  0  0  0  0  0  0  0  0
   22.2271   16.8911   20.4202 H   0  0  0  0  0  0  0  0  0  0  0  0
   22.1511   16.6409   22.0492 H   0  0  0  0  0  0  0  0  0  0  0  0
   22.7455   18.0637   21.4581 H   0  0  0  0  0  0  0  0  0  0  0  0
  1  2  1  0  0  0  0
  1  3  1  0  0  0  0
  1  4  1  0  0  0  0
  1  5  1  0  0  0  0
  5  6  1  0  0  0  0
  5  7  1  0  0  0  0
  5  8  1  0  0  0  0
  8  9  1  0  0  0  0
  8 10  1  0  0  0  0
  8 11  1  0  0  0  0
 11 12  1  0  0  0  0
 11 13  1  0  0  0  0
 11 14  1  0  0  0  0
 14 15  1  0  0  0  0
 14 16  1  0  0  0  0
 14 17  1  0  0  0  0
 17 18  1  0  0  0  0
 17 19  1  0  0  0  0
 17 20  1  0  0  0  0
 20 21  1  0  0  0  0
 20 22  1  0  0  0  0
 22 23  1  0  0  0  0
 22 24  1  0  0  0  0
 22 25  1  0  0  0  0
 20 26  1  0  0  0  0
 26 27  1  0  0  0  0
 26 28  1  0  0  0  0
 26 29  1  0  0  0  0
M  END
> <VConfSearch Rank>
811

> <Conf_Id>
130

> <Delta U+W>
1.359

> <U+W>
-26.467

> <U>
25.687

> <W>
-52.154

> <W(PB)>
-54.643

> <W(SA)>
2.489

> <Valence>
4.682

> <Coulomb>
19.653

> <VdW>
1.352

> <VdW6>
-9.477

> <VdW12>
10.829

> <Bond>
0.274

> <Angle>
1.550

> <Pdih>
2.858

> <Idih>
0.000

> <Tether>
0.000

$$$$
VeraChem MOL file


 29 28  0  0  0  0  0  0  0  0999 V2000     
   17.9428   17.8059   26.9219 C   0  0  0  0  0  0  0  0  0  0  0  0
   17.6191   16.9296   27.4984 H   0  0  0  0  0  0  0  0  0  0  0  0
   18.0397   18.6489   27.6183 H   0  0  0  0  0  0  0  0  0  0  0  0
   17.1464   18.0409   26.2051 H   0  0  0  0  0  0  0  0  0  0  0  0
   19.2831   17.5181   26.2080 C   0  0  0  0  0  0  0  0  0  0  0  0
   19.1516   16.6936   25.4933 H   0  0  0  0  0  0  0  0  0  0  0  0
   20.0113   17.1665   26.9522 H   0  0  0  0  0  0  0  0  0  0  0  0
   19.8726   18.7511   25.4815 C   0  0  0  0  0  0  0  0  0  0  0  0
   20.0188   19.5655   26.2043 H   0  0  0  0  0  0  0  0  0  0  0  0
   20.8717   18.4854   25.1137 H   0  0  0  0  0  0  0  0  0  0  0  0
   18.9951   19.2503   24.3051 C   0  0  0  0  0  0  0  0  0  0  0  0
   18.0229   19.5763   24.6970 H   0  0  0  0  0  0  0  0  0  0  0  0
   18.7879   18.4188   23.6207 H   0  0  0  0  0  0  0  0  0  0  0  0
   19.6259   20.4414   23.5378 C   0  0  0  0  0  0  0  0  0  0  0  0
   18.8560   20.9357   22.9292 H   0  0  0  0  0  0  0  0  0  0  0  0
   19.9459   21.1945   24.2712 H   0  0  0  0  0  0  0  0  0  0  0  0
   20.8351   20.0681   22.6360 C   0  0  0  0  0  0  0  0  0  0  0  0
   21.3531   19.1816   23.0208 H   0  0  0  0  0  0  0  0  0  0  0  0
   21.5623   20.8885   22.6966 H   0  0  0  0  0  0  0  0  0  0  0  0
   20.4864   19.8638   21.1422 C   0  0  2  0  0  0  0  0  0  0  0  0
   20.0083   20.7774   20.7758 H   0  0  0  0  0  0  0  0  0  0  0  0
   19.5193   18.6901   20.9131 C   0  0  0  0  0  0  0  0  0  0  0  0
   18.5400   18.8941   21.3611 H   0  0  0  0  0  0  0  0  0  0  0  0
   19.3558   18.5270   19.8407 H   0  0  0  0  0  0  0  0  0  0  0  0
   19.9130   17.7607   21.3432 H   0  0  0  0  0  0  0  0  0  0  0  0
   21.7306   19.6794   20.3185 N   0  3  0  0  0  0  0  0  0  0  0  0
   22.3702   20.4729   20.4185 H   0  0  0  0  0  0  0  0  0  0  0  0
   21.5096   19.5900   19.3226 H   0  0  0  0  0  0  0  0  0  0  0  0
   22.2405   18.8361   20.5951 H   0  0  0  0  0  0  0  0  0  0  0  0
  1  2  1  0  0  0  0
  1  3  1  0  0  0  0
  1  4  1  0  0  0  0
  1  5  1  0  0  0  0
  5  6  1  0  0  0  0
  5  7  1  0  0  0  0
  5  8  1  0  0  0  0
  8  9  1  0  0  0  0
  8 10  1  0  0  0  0
  8 11  1  0  0  0  0
 11 12  1  0  0  0  0
 11 13  1  0  0  0  0
 11 14  1  0  0  0  0
 14 15  1  0  0  0  0
 14 16  1  0  0  0  0
 14 17  1  0  0  0  0
 17 18  1  0  0  0  0
 17 19  1  0  0  0  0
 17 20  1  0  0  0  0
 20 21  1  0  0  0  0
 20 22  1  0  0  0  0
 22 23  1  0  0  0  0
 22 24  1  0  0  0  0
 22 25  1  0  0  0  0
 20 26  1  0  0  0  0
 26 27  1  0  0  0  0
 26 28  1  0  0  0  0
 26 29  1  0  0  0  0
M  END
> <VConfSearch Rank>
812

> <Conf_Id>
157

> <Delta U+W>
4.354

> <U+W>
-23.472

> <U>
28.780

> <W>
-52.252

> <W(PB)>
-54.715

> <W(SA)>
2.462

> <Valence>
7.566

> <Coulomb>
19.822

> <VdW>
1.392

> <VdW6>
-10.248

> <VdW12>
11.641

> <Bond>
0.340

> <Angle>
2.096

> <Pdih>
5.129

> <Idih>
0.000

> <Tether>
0.000

$$$$
VeraChem MOL file


 29 28  0  0  0  0  0  0  0  0999 V2000     
   22.5907   20.6938   21.7604 C   0  0  0  0  0  0  0  0  0  0  0  0
   22.9679   20.9499   20.7619 H   0  0  0  0  0  0  0  0  0  0  0  0
   21.5772   21.1008   21.8472 H   0  0  0  0  0  0  0  0  0  0  0  0
   23.2238   21.2056   22.4967 H   0  0  0  0  0  0  0  0  0  0  0  0
   22.6238   19.1626   21.9747 C   0  0  0  0  0  0  0  0  0  0  0  0
   23.6634   18.8267   21.8554 H   0  0  0  0  0  0  0  0  0  0  0  0
   22.0500   18.6537   21.1877 H   0  0  0  0  0  0  0  0  0  0  0  0
   22.1215   18.7276   23.3755 C   0  0  0  0  0  0  0  0  0  0  0  0
   22.7272   17.8721   23.7048 H   0  0  0  0  0  0  0  0  0  0  0  0
   22.3095   19.5225   24.1103 H   0  0  0  0  0  0  0  0  0  0  0  0
   20.6341   18.2929   23.4294 C   0  0  0  0  0  0  0  0  0  0  0  0
   20.4256   17.9408   24.4479 H   0  0  0  0  0  0  0  0  0  0  0  0
   20.4839   17.4272   22.7699 H   0  0  0  0  0  0  0  0  0  0  0  0
   19.6304   19.4088   23.0478 C   0  0  0  0  0  0  0  0  0  0  0  0
   19.8280   20.3095   23.6439 H   0  0  0  0  0  0  0  0  0  0  0  0
   19.7885   19.6907   21.9991 H   0  0  0  0  0  0  0  0  0  0  0  0
   18.1485   18.9803   23.2040 C   0  0  0  0  0  0  0  0  0  0  0  0
   17.9545   18.1299   22.5369 H   0  0  0  0  0  0  0  0  0  0  0  0
   17.5032   19.7971   22.8542 H   0  0  0  0  0  0  0  0  0  0  0  0
   17.7428   18.5935   24.6442 C   0  0  2  0  0  0  0  0  0  0  0  0
   18.3712   17.7589   24.9682 H   0  0  0  0  0  0  0  0  0  0  0  0
   16.2780   18.1303   24.6806 C   0  0  0  0  0  0  0  0  0  0  0  0
   15.5991   18.9346   24.3702 H   0  0  0  0  0  0  0  0  0  0  0  0
   16.1232   17.2750   24.0111 H   0  0  0  0  0  0  0  0  0  0  0  0
   15.9952   17.8161   25.6929 H   0  0  0  0  0  0  0  0  0  0  0  0
   17.9695   19.7117   25.6240 N   0  3  0  0  0  0  0  0  0  0  0  0
   18.9513   20.0013   25.6349 H   0  0  0  0  0  0  0  0  0  0  0  0
   17.7199   19.4316   26.5768 H   0  0  0  0  0  0  0  0  0  0  0  0
   17.4072   20.5336   25.3878 H   0  0  0  0  0  0  0  0  0  0  0  0
  1  2  1  0  0  0  0
  1  3  1  0  0  0  0
  1  4  1  0  0  0  0
  1  5  1  0  0  0  0
  5  6  1  0  0  0  0
  5  7  1  0  0  0  0
  5  8  1  0  0  0  0
  8  9  1  0  0  0  0
  8 10  1  0  0  0  0
  8 11  1  0  0  0  0
 11 12  1  0  0  0  0
 11 13  1  0  0  0  0
 11 14  1  0  0  0  0
 14 15  1  0  0  0  0
 14 16  1  0  0  0  0
 14 17  1  0  0  0  0
 17 18  1  0  0  0  0
 17 19  1  0  0  0  0
 17 20  1  0  0  0  0
 20 21  1  0  0  0  0
 20 22  1  0  0  0  0
 22 23  1  0  0  0  0
 22 24  1  0  0  0  0
 22 25  1  0  0  0  0
 20 26  1  0  0  0  0
 26 27  1  0  0  0  0
 26 28  1  0  0  0  0
 26 29  1  0  0  0  0
M  END
> <VConfSearch Rank>
813

> <Conf_Id>
158

> <Delta U+W>
3.648

> <U+W>
-24.178

> <U>
28.057

> <W>
-52.235

> <W(PB)>
-54.696

> <W(SA)>
2.460

> <Valence>
6.543

> <Coulomb>
20.387

> <VdW>
1.127

> <VdW6>
-10.342

> <VdW12>
11.469

> <Bond>
0.308

> <Angle>
1.938

> <Pdih>
4.297

> <Idih>
0.000

> <Tether>
0.000

$$$$
VeraChem MOL file


 29 28  0  0  0  0  0  0  0  0999 V2000     
   16.6143   17.3011   22.7807 C   0  0  0  0  0  0  0  0  0  0  0  0
   16.9787   17.1279   21.7598 H   0  0  0  0  0  0  0  0  0  0  0  0
   17.3488   16.8883   23.4832 H   0  0  0  0  0  0  0  0  0  0  0  0
   15.6834   16.7330   22.9057 H   0  0  0  0  0  0  0  0  0  0  0  0
   16.3677   18.8055   23.0349 C   0  0  0  0  0  0  0  0  0  0  0  0
   16.0353   18.9557   24.0716 H   0  0  0  0  0  0  0  0  0  0  0  0
   15.5399   19.1414   22.3949 H   0  0  0  0  0  0  0  0  0  0  0  0
   17.6059   19.6890   22.7489 C   0  0  0  0  0  0  0  0  0  0  0  0
   17.9231   19.5486   21.7063 H   0  0  0  0  0  0  0  0  0  0  0  0
   17.3114   20.7433   22.8432 H   0  0  0  0  0  0  0  0  0  0  0  0
   18.7954   19.4095   23.6982 C   0  0  0  0  0  0  0  0  0  0  0  0
   19.1319   18.3746   23.5728 H   0  0  0  0  0  0  0  0  0  0  0  0
   18.4603   19.5066   24.7400 H   0  0  0  0  0  0  0  0  0  0  0  0
   19.9706   20.3853   23.4448 C   0  0  0  0  0  0  0  0  0  0  0  0
   20.2715   20.3589   22.3883 H   0  0  0  0  0  0  0  0  0  0  0  0
   19.6129   21.4073   23.6321 H   0  0  0  0  0  0  0  0  0  0  0  0
   21.1990   20.1199   24.3552 C   0  0  0  0  0  0  0  0  0  0  0  0
   20.8814   19.6549   25.2979 H   0  0  0  0  0  0  0  0  0  0  0  0
   21.6271   21.0926   24.6314 H   0  0  0  0  0  0  0  0  0  0  0  0
   22.3259   19.2852   23.7002 C   0  0  2  0  0  0  0  0  0  0  0  0
   22.6498   19.8041   22.7927 H   0  0  0  0  0  0  0  0  0  0  0  0
   21.8708   17.8700   23.3062 C   0  0  0  0  0  0  0  0  0  0  0  0
   21.4468   17.3349   24.1649 H   0  0  0  0  0  0  0  0  0  0  0  0
   21.1177   17.9065   22.5105 H   0  0  0  0  0  0  0  0  0  0  0  0
   22.7155   17.2844   22.9232 H   0  0  0  0  0  0  0  0  0  0  0  0
   23.5310   19.2118   24.5962 N   0  3  0  0  0  0  0  0  0  0  0  0
   23.8823   20.1442   24.8331 H   0  0  0  0  0  0  0  0  0  0  0  0
   24.2985   18.7017   24.1496 H   0  0  0  0  0  0  0  0  0  0  0  0
   23.3153   18.7319   25.4741 H   0  0  0  0  0  0  0  0  0  0  0  0
  1  2  1  0  0  0  0
  1  3  1  0  0  0  0
  1  4  1  0  0  0  0
  1  5  1  0  0  0  0
  5  6  1  0  0  0  0
  5  7  1  0  0  0  0
  5  8  1  0  0  0  0
  8  9  1  0  0  0  0
  8 10  1  0  0  0  0
  8 11  1  0  0  0  0
 11 12  1  0  0  0  0
 11 13  1  0  0  0  0
 11 14  1  0  0  0  0
 14 15  1  0  0  0  0
 14 16  1  0  0  0  0
 14 17  1  0  0  0  0
 17 18  1  0  0  0  0
 17 19  1  0  0  0  0
 17 20  1  0  0  0  0
 20 21  1  0  0  0  0
 20 22  1  0  0  0  0
 22 23  1  0  0  0  0
 22 24  1  0  0  0  0
 22 25  1  0  0  0  0
 20 26  1  0  0  0  0
 26 27  1  0  0  0  0
 26 28  1  0  0  0  0
 26 29  1  0  0  0  0
M  END
> <VConfSearch Rank>
814

> <Conf_Id>
156

> <Delta U+W>
3.393

> <U+W>
-24.433

> <U>
27.713

> <W>
-52.146

> <W(PB)>
-54.603

> <W(SA)>
2.458

> <Valence>
6.758

> <Coulomb>
19.720

> <VdW>
1.235

> <VdW6>
-9.782

> <VdW12>
11.017

> <Bond>
0.287

> <Angle>
1.880

> <Pdih>
4.591

> <Idih>
0.000

> <Tether>
0.000

$$$$
VeraChem MOL file


 29 28  0  0  0  0  0  0  0  0999 V2000     
   21.7039   20.5432   26.5956 C   0  0  0  0  0  0  0  0  0  0  0  0
   20.9888   19.9782   27.2076 H   0  0  0  0  0  0  0  0  0  0  0  0
   22.7182   20.2478   26.8944 H   0  0  0  0  0  0  0  0  0  0  0  0
   21.5806   21.6085   26.8301 H   0  0  0  0  0  0  0  0  0  0  0  0
   21.4710   20.2858   25.0919 C   0  0  0  0  0  0  0  0  0  0  0  0
   22.1802   20.8858   24.5048 H   0  0  0  0  0  0  0  0  0  0  0  0
   20.4633   20.6298   24.8240 H   0  0  0  0  0  0  0  0  0  0  0  0
   21.6351   18.7892   24.7376 C   0  0  0  0  0  0  0  0  0  0  0  0
   22.6202   18.4471   25.0837 H   0  0  0  0  0  0  0  0  0  0  0  0
   20.8991   18.1930   25.2928 H   0  0  0  0  0  0  0  0  0  0  0  0
   21.5237   18.4933   23.2194 C   0  0  0  0  0  0  0  0  0  0  0  0
   21.6757   17.4172   23.0580 H   0  0  0  0  0  0  0  0  0  0  0  0
   22.3520   18.9940   22.6995 H   0  0  0  0  0  0  0  0  0  0  0  0
   20.1900   18.9182   22.5517 C   0  0  0  0  0  0  0  0  0  0  0  0
   20.0853   20.0093   22.5994 H   0  0  0  0  0  0  0  0  0  0  0  0
   20.2556   18.6665   21.4855 H   0  0  0  0  0  0  0  0  0  0  0  0
   18.9431   18.2309   23.1723 C   0  0  0  0  0  0  0  0  0  0  0  0
   18.8614   18.5060   24.2310 H   0  0  0  0  0  0  0  0  0  0  0  0
   19.0801   17.1417   23.1511 H   0  0  0  0  0  0  0  0  0  0  0  0
   17.6001   18.5780   22.4874 C   0  0  2  0  0  0  0  0  0  0  0  0
   16.8088   18.0749   23.0519 H   0  0  0  0  0  0  0  0  0  0  0  0
   17.5353   18.0619   21.0393 C   0  0  0  0  0  0  0  0  0  0  0  0
   16.5261   18.1946   20.6305 H   0  0  0  0  0  0  0  0  0  0  0  0
   18.2335   18.5970   20.3850 H   0  0  0  0  0  0  0  0  0  0  0  0
   17.7734   16.9919   20.9956 H   0  0  0  0  0  0  0  0  0  0  0  0
   17.2870   20.0476   22.5504 N   0  3  0  0  0  0  0  0  0  0  0  0
   17.2809   20.3890   23.5158 H   0  0  0  0  0  0  0  0  0  0  0  0
   16.3680   20.2514   22.1473 H   0  0  0  0  0  0  0  0  0  0  0  0
   17.9781   20.5960   22.0325 H   0  0  0  0  0  0  0  0  0  0  0  0
  1  2  1  0  0  0  0
  1  3  1  0  0  0  0
  1  4  1  0  0  0  0
  1  5  1  0  0  0  0
  5  6  1  0  0  0  0
  5  7  1  0  0  0  0
  5  8  1  0  0  0  0
  8  9  1  0  0  0  0
  8 10  1  0  0  0  0
  8 11  1  0  0  0  0
 11 12  1  0  0  0  0
 11 13  1  0  0  0  0
 11 14  1  0  0  0  0
 14 15  1  0  0  0  0
 14 16  1  0  0  0  0
 14 17  1  0  0  0  0
 17 18  1  0  0  0  0
 17 19  1  0  0  0  0
 17 20  1  0  0  0  0
 20 21  1  0  0  0  0
 20 22  1  0  0  0  0
 22 23  1  0  0  0  0
 22 24  1  0  0  0  0
 22 25  1  0  0  0  0
 20 26  1  0  0  0  0
 26 27  1  0  0  0  0
 26 28  1  0  0  0  0
 26 29  1  0  0  0  0
M  END
> <VConfSearch Rank>
815

> <Conf_Id>
78

> <Delta U+W>
1.477

> <U+W>
-26.349

> <U>
26.385

> <W>
-52.734

> <W(PB)>
-55.179

> <W(SA)>
2.445

> <Valence>
4.726

> <Coulomb>
20.482

> <VdW>
1.177

> <VdW6>
-10.349

> <VdW12>
11.526

> <Bond>
0.319

> <Angle>
1.933

> <Pdih>
2.474

> <Idih>
0.000

> <Tether>
0.000

$$$$
VeraChem MOL file


 29 28  0  0  0  0  0  0  0  0999 V2000     
   17.8510   22.1673   24.1481 C   0  0  0  0  0  0  0  0  0  0  0  0
   16.7962   21.9786   23.9096 H   0  0  0  0  0  0  0  0  0  0  0  0
   18.1611   21.4371   24.9037 H   0  0  0  0  0  0  0  0  0  0  0  0
   17.9163   23.1646   24.6020 H   0  0  0  0  0  0  0  0  0  0  0  0
   18.7253   22.0944   22.8745 C   0  0  0  0  0  0  0  0  0  0  0  0
   19.7653   22.3609   23.1088 H   0  0  0  0  0  0  0  0  0  0  0  0
   18.3675   22.8618   22.1739 H   0  0  0  0  0  0  0  0  0  0  0  0
   18.6677   20.7152   22.1686 C   0  0  0  0  0  0  0  0  0  0  0  0
   17.7014   20.2293   22.3619 H   0  0  0  0  0  0  0  0  0  0  0  0
   18.7007   20.8852   21.0836 H   0  0  0  0  0  0  0  0  0  0  0  0
   19.8287   19.7510   22.5244 C   0  0  0  0  0  0  0  0  0  0  0  0
   20.7837   20.2050   22.2261 H   0  0  0  0  0  0  0  0  0  0  0  0
   19.7132   18.8486   21.9103 H   0  0  0  0  0  0  0  0  0  0  0  0
   19.8925   19.3560   24.0203 C   0  0  0  0  0  0  0  0  0  0  0  0
   20.0912   20.2528   24.6208 H   0  0  0  0  0  0  0  0  0  0  0  0
   18.9167   18.9753   24.3491 H   0  0  0  0  0  0  0  0  0  0  0  0
   21.0041   18.3214   24.3350 C   0  0  0  0  0  0  0  0  0  0  0  0
   21.0110   18.1255   25.4155 H   0  0  0  0  0  0  0  0  0  0  0  0
   21.9762   18.7757   24.1023 H   0  0  0  0  0  0  0  0  0  0  0  0
   20.8910   16.9774   23.5769 C   0  0  2  0  0  0  0  0  0  0  0  0
   20.9041   17.1833   22.5027 H   0  0  0  0  0  0  0  0  0  0  0  0
   19.5886   16.2299   23.9135 C   0  0  0  0  0  0  0  0  0  0  0  0
   19.5574   15.2588   23.4043 H   0  0  0  0  0  0  0  0  0  0  0  0
   19.5009   16.0519   24.9925 H   0  0  0  0  0  0  0  0  0  0  0  0
   18.7092   16.7965   23.5855 H   0  0  0  0  0  0  0  0  0  0  0  0
   22.0809   16.1004   23.8506 N   0  3  0  0  0  0  0  0  0  0  0  0
   22.1428   15.8529   24.8419 H   0  0  0  0  0  0  0  0  0  0  0  0
   22.9576   16.5632   23.5936 H   0  0  0  0  0  0  0  0  0  0  0  0
   22.0311   15.2259   23.3201 H   0  0  0  0  0  0  0  0  0  0  0  0
  1  2  1  0  0  0  0
  1  3  1  0  0  0  0
  1  4  1  0  0  0  0
  1  5  1  0  0  0  0
  5  6  1  0  0  0  0
  5  7  1  0  0  0  0
  5  8  1  0  0  0  0
  8  9  1  0  0  0  0
  8 10  1  0  0  0  0
  8 11  1  0  0  0  0
 11 12  1  0  0  0  0
 11 13  1  0  0  0  0
 11 14  1  0  0  0  0
 14 15  1  0  0  0  0
 14 16  1  0  0  0  0
 14 17  1  0  0  0  0
 17 18  1  0  0  0  0
 17 19  1  0  0  0  0
 17 20  1  0  0  0  0
 20 21  1  0  0  0  0
 20 22  1  0  0  0  0
 22 23  1  0  0  0  0
 22 24  1  0  0  0  0
 22 25  1  0  0  0  0
 20 26  1  0  0  0  0
 26 27  1  0  0  0  0
 26 28  1  0  0  0  0
 26 29  1  0  0  0  0
M  END
> <VConfSearch Rank>
816

> <Conf_Id>
145

> <Delta U+W>
3.784

> <U+W>
-24.042

> <U>
28.220

> <W>
-52.262

> <W(PB)>
-54.724

> <W(SA)>
2.462

> <Valence>
7.040

> <Coulomb>
19.984

> <VdW>
1.197

> <VdW6>
-10.566

> <VdW12>
11.763

> <Bond>
0.320

> <Angle>
2.280

> <Pdih>
4.439

> <Idih>
0.000

> <Tether>
0.000

$$$$
VeraChem MOL file


 29 28  0  0  0  0  0  0  0  0999 V2000     
   23.5561   20.3460   23.3855 C   0  0  0  0  0  0  0  0  0  0  0  0
   24.3919   19.8119   23.8561 H   0  0  0  0  0  0  0  0  0  0  0  0
   23.4448   19.9710   22.3597 H   0  0  0  0  0  0  0  0  0  0  0  0
   23.8248   21.4088   23.3286 H   0  0  0  0  0  0  0  0  0  0  0  0
   22.2527   20.1557   24.1895 C   0  0  0  0  0  0  0  0  0  0  0  0
   21.4510   20.7361   23.7173 H   0  0  0  0  0  0  0  0  0  0  0  0
   22.3858   20.5714   25.1981 H   0  0  0  0  0  0  0  0  0  0  0  0
   21.8601   18.6622   24.2934 C   0  0  0  0  0  0  0  0  0  0  0  0
   21.7899   18.2131   23.2932 H   0  0  0  0  0  0  0  0  0  0  0  0
   22.6733   18.1308   24.8069 H   0  0  0  0  0  0  0  0  0  0  0  0
   20.5445   18.4239   25.0796 C   0  0  0  0  0  0  0  0  0  0  0  0
   20.3882   19.2258   25.8143 H   0  0  0  0  0  0  0  0  0  0  0  0
   20.6603   17.5033   25.6682 H   0  0  0  0  0  0  0  0  0  0  0  0
   19.2810   18.2564   24.1964 C   0  0  0  0  0  0  0  0  0  0  0  0
   19.4142   17.3828   23.5446 H   0  0  0  0  0  0  0  0  0  0  0  0
   18.4394   18.0200   24.8598 H   0  0  0  0  0  0  0  0  0  0  0  0
   18.9360   19.5035   23.3395 C   0  0  0  0  0  0  0  0  0  0  0  0
   19.7429   19.6798   22.6178 H   0  0  0  0  0  0  0  0  0  0  0  0
   18.8981   20.3913   23.9843 H   0  0  0  0  0  0  0  0  0  0  0  0
   17.6101   19.4043   22.5485 C   0  0  2  0  0  0  0  0  0  0  0  0
   17.5298   20.3078   21.9362 H   0  0  0  0  0  0  0  0  0  0  0  0
   16.3820   19.3635   23.4748 C   0  0  0  0  0  0  0  0  0  0  0  0
   15.4580   19.4389   22.8885 H   0  0  0  0  0  0  0  0  0  0  0  0
   16.3365   18.4317   24.0505 H   0  0  0  0  0  0  0  0  0  0  0  0
   16.3972   20.2036   24.1800 H   0  0  0  0  0  0  0  0  0  0  0  0
   17.5998   18.2473   21.5879 N   0  3  0  0  0  0  0  0  0  0  0  0
   17.6607   17.3542   22.0833 H   0  0  0  0  0  0  0  0  0  0  0  0
   18.3881   18.2935   20.9360 H   0  0  0  0  0  0  0  0  0  0  0  0
   16.7412   18.2318   21.0301 H   0  0  0  0  0  0  0  0  0  0  0  0
  1  2  1  0  0  0  0
  1  3  1  0  0  0  0
  1  4  1  0  0  0  0
  1  5  1  0  0  0  0
  5  6  1  0  0  0  0
  5  7  1  0  0  0  0
  5  8  1  0  0  0  0
  8  9  1  0  0  0  0
  8 10  1  0  0  0  0
  8 11  1  0  0  0  0
 11 12  1  0  0  0  0
 11 13  1  0  0  0  0
 11 14  1  0  0  0  0
 14 15  1  0  0  0  0
 14 16  1  0  0  0  0
 14 17  1  0  0  0  0
 17 18  1  0  0  0  0
 17 19  1  0  0  0  0
 17 20  1  0  0  0  0
 20 21  1  0  0  0  0
 20 22  1  0  0  0  0
 22 23  1  0  0  0  0
 22 24  1  0  0  0  0
 22 25  1  0  0  0  0
 20 26  1  0  0  0  0
 26 27  1  0  0  0  0
 26 28  1  0  0  0  0
 26 29  1  0  0  0  0
M  END
> <VConfSearch Rank>
817

> <Conf_Id>
71

> <Delta U+W>
3.542

> <U+W>
-24.284

> <U>
28.217

> <W>
-52.501

> <W(PB)>
-54.947

> <W(SA)>
2.446

> <Valence>
6.821

> <Coulomb>
20.147

> <VdW>
1.249

> <VdW6>
-10.237

> <VdW12>
11.486

> <Bond>
0.317

> <Angle>
1.990

> <Pdih>
4.515

> <Idih>
0.000

> <Tether>
0.000

$$$$
VeraChem MOL file


 29 28  0  0  0  0  0  0  0  0999 V2000     
   18.8824   15.5001   24.7731 C   0  0  0  0  0  0  0  0  0  0  0  0
   17.9691   15.7308   24.2093 H   0  0  0  0  0  0  0  0  0  0  0  0
   19.3078   14.5717   24.3701 H   0  0  0  0  0  0  0  0  0  0  0  0
   18.5966   15.3146   25.8166 H   0  0  0  0  0  0  0  0  0  0  0  0
   19.8966   16.6599   24.6838 C   0  0  0  0  0  0  0  0  0  0  0  0
   20.7827   16.4127   25.2849 H   0  0  0  0  0  0  0  0  0  0  0  0
   19.4557   17.5574   25.1336 H   0  0  0  0  0  0  0  0  0  0  0  0
   20.3230   16.9324   23.2211 C   0  0  0  0  0  0  0  0  0  0  0  0
   20.7862   16.0179   22.8254 H   0  0  0  0  0  0  0  0  0  0  0  0
   19.4413   17.1210   22.5933 H   0  0  0  0  0  0  0  0  0  0  0  0
   21.3380   18.0967   23.0795 C   0  0  0  0  0  0  0  0  0  0  0  0
   22.0426   17.8392   22.2767 H   0  0  0  0  0  0  0  0  0  0  0  0
   21.9473   18.1852   23.9896 H   0  0  0  0  0  0  0  0  0  0  0  0
   20.7073   19.4676   22.7233 C   0  0  0  0  0  0  0  0  0  0  0  0
   21.5235   20.1853   22.5691 H   0  0  0  0  0  0  0  0  0  0  0  0
   20.1885   19.3801   21.7594 H   0  0  0  0  0  0  0  0  0  0  0  0
   19.7310   20.0153   23.7978 C   0  0  0  0  0  0  0  0  0  0  0  0
   20.2130   19.9695   24.7831 H   0  0  0  0  0  0  0  0  0  0  0  0
   18.8493   19.3649   23.8534 H   0  0  0  0  0  0  0  0  0  0  0  0
   19.2453   21.4640   23.5561 C   0  0  2  0  0  0  0  0  0  0  0  0
   18.5709   21.7223   24.3784 H   0  0  0  0  0  0  0  0  0  0  0  0
   18.4524   21.5957   22.2442 C   0  0  0  0  0  0  0  0  0  0  0  0
   17.6341   20.8658   22.2084 H   0  0  0  0  0  0  0  0  0  0  0  0
   18.0097   22.5959   22.1621 H   0  0  0  0  0  0  0  0  0  0  0  0
   19.0916   21.4391   21.3671 H   0  0  0  0  0  0  0  0  0  0  0  0
   20.3678   22.4635   23.6099 N   0  3  0  0  0  0  0  0  0  0  0  0
   20.8744   22.4116   24.4983 H   0  0  0  0  0  0  0  0  0  0  0  0
   20.0204   23.4217   23.5109 H   0  0  0  0  0  0  0  0  0  0  0  0
   21.0442   22.3032   22.8594 H   0  0  0  0  0  0  0  0  0  0  0  0
  1  2  1  0  0  0  0
  1  3  1  0  0  0  0
  1  4  1  0  0  0  0
  1  5  1  0  0  0  0
  5  6  1  0  0  0  0
  5  7  1  0  0  0  0
  5  8  1  0  0  0  0
  8  9  1  0  0  0  0
  8 10  1  0  0  0  0
  8 11  1  0  0  0  0
 11 12  1  0  0  0  0
 11 13  1  0  0  0  0
 11 14  1  0  0  0  0
 14 15  1  0  0  0  0
 14 16  1  0  0  0  0
 14 17  1  0  0  0  0
 17 18  1  0  0  0  0
 17 19  1  0  0  0  0
 17 20  1  0  0  0  0
 20 21  1  0  0  0  0
 20 22  1  0  0  0  0
 22 23  1  0  0  0  0
 22 24  1  0  0  0  0
 22 25  1  0  0  0  0
 20 26  1  0  0  0  0
 26 27  1  0  0  0  0
 26 28  1  0  0  0  0
 26 29  1  0  0  0  0
M  END
> <VConfSearch Rank>
818

> <Conf_Id>
163

> <Delta U+W>
3.309

> <U+W>
-24.517

> <U>
27.916

> <W>
-52.433

> <W(PB)>
-54.866

> <W(SA)>
2.433

> <Valence>
6.693

> <Coulomb>
20.015

> <VdW>
1.208

> <VdW6>
-10.294

> <VdW12>
11.503

> <Bond>
0.312

> <Angle>
1.939

> <Pdih>
4.441

> <Idih>
0.000

> <Tether>
0.000

$$$$
VeraChem MOL file


 29 28  0  0  0  0  0  0  0  0999 V2000     
   23.1467   19.4797   25.6721 C   0  0  0  0  0  0  0  0  0  0  0  0
   22.8411   19.1334   26.6680 H   0  0  0  0  0  0  0  0  0  0  0  0
   23.3696   18.6006   25.0552 H   0  0  0  0  0  0  0  0  0  0  0  0
   24.0795   20.0470   25.7858 H   0  0  0  0  0  0  0  0  0  0  0  0
   22.0522   20.3626   25.0307 C   0  0  0  0  0  0  0  0  0  0  0  0
   22.3659   20.6669   24.0224 H   0  0  0  0  0  0  0  0  0  0  0  0
   21.9586   21.2882   25.6157 H   0  0  0  0  0  0  0  0  0  0  0  0
   20.6660   19.6773   24.9636 C   0  0  0  0  0  0  0  0  0  0  0  0
   20.3548   19.3785   25.9740 H   0  0  0  0  0  0  0  0  0  0  0  0
   19.9367   20.4229   24.6218 H   0  0  0  0  0  0  0  0  0  0  0  0
   20.6311   18.4480   24.0205 C   0  0  0  0  0  0  0  0  0  0  0  0
   21.3618   17.7044   24.3636 H   0  0  0  0  0  0  0  0  0  0  0  0
   20.9518   18.7458   23.0136 H   0  0  0  0  0  0  0  0  0  0  0  0
   19.2444   17.7562   23.9563 C   0  0  0  0  0  0  0  0  0  0  0  0
   19.3220   16.8670   23.3164 H   0  0  0  0  0  0  0  0  0  0  0  0
   18.9867   17.3792   24.9555 H   0  0  0  0  0  0  0  0  0  0  0  0
   18.0845   18.6538   23.4480 C   0  0  0  0  0  0  0  0  0  0  0  0
   17.8760   19.4311   24.1941 H   0  0  0  0  0  0  0  0  0  0  0  0
   17.1697   18.0500   23.3823 H   0  0  0  0  0  0  0  0  0  0  0  0
   18.3550   19.3212   22.0815 C   0  0  2  0  0  0  0  0  0  0  0  0
   19.2665   19.9206   22.1659 H   0  0  0  0  0  0  0  0  0  0  0  0
   17.1975   20.2590   21.7044 C   0  0  0  0  0  0  0  0  0  0  0  0
   17.4017   20.7642   20.7524 H   0  0  0  0  0  0  0  0  0  0  0  0
   16.2553   19.7059   21.6028 H   0  0  0  0  0  0  0  0  0  0  0  0
   17.0586   21.0333   22.4691 H   0  0  0  0  0  0  0  0  0  0  0  0
   18.5977   18.3130   20.9922 N   0  3  0  0  0  0  0  0  0  0  0  0
   19.3869   17.7027   21.2213 H   0  0  0  0  0  0  0  0  0  0  0  0
   18.8081   18.7684   20.0995 H   0  0  0  0  0  0  0  0  0  0  0  0
   17.7784   17.7170   20.8475 H   0  0  0  0  0  0  0  0  0  0  0  0
  1  2  1  0  0  0  0
  1  3  1  0  0  0  0
  1  4  1  0  0  0  0
  1  5  1  0  0  0  0
  5  6  1  0  0  0  0
  5  7  1  0  0  0  0
  5  8  1  0  0  0  0
  8  9  1  0  0  0  0
  8 10  1  0  0  0  0
  8 11  1  0  0  0  0
 11 12  1  0  0  0  0
 11 13  1  0  0  0  0
 11 14  1  0  0  0  0
 14 15  1  0  0  0  0
 14 16  1  0  0  0  0
 14 17  1  0  0  0  0
 17 18  1  0  0  0  0
 17 19  1  0  0  0  0
 17 20  1  0  0  0  0
 20 21  1  0  0  0  0
 20 22  1  0  0  0  0
 22 23  1  0  0  0  0
 22 24  1  0  0  0  0
 22 25  1  0  0  0  0
 20 26  1  0  0  0  0
 26 27  1  0  0  0  0
 26 28  1  0  0  0  0
 26 29  1  0  0  0  0
M  END
> <VConfSearch Rank>
819

> <Conf_Id>
173

> <Delta U+W>
1.363

> <U+W>
-26.462

> <U>
25.816

> <W>
-52.279

> <W(PB)>
-54.727

> <W(SA)>
2.449

> <Valence>
4.504

> <Coulomb>
20.342

> <VdW>
0.971

> <VdW6>
-10.532

> <VdW12>
11.503

> <Bond>
0.307

> <Angle>
1.715

> <Pdih>
2.481

> <Idih>
0.000

> <Tether>
0.000

$$$$
VeraChem MOL file


 29 28  0  0  0  0  0  0  0  0999 V2000     
   23.0807   18.9846   21.4524 C   0  0  0  0  0  0  0  0  0  0  0  0
   23.7943   19.1255   22.2746 H   0  0  0  0  0  0  0  0  0  0  0  0
   23.4165   18.1300   20.8507 H   0  0  0  0  0  0  0  0  0  0  0  0
   23.1176   19.8789   20.8169 H   0  0  0  0  0  0  0  0  0  0  0  0
   21.6524   18.7575   21.9910 C   0  0  0  0  0  0  0  0  0  0  0  0
   20.9579   18.6466   21.1467 H   0  0  0  0  0  0  0  0  0  0  0  0
   21.3412   19.6476   22.5535 H   0  0  0  0  0  0  0  0  0  0  0  0
   21.5772   17.5084   22.8983 C   0  0  0  0  0  0  0  0  0  0  0  0
   22.0038   16.6505   22.3604 H   0  0  0  0  0  0  0  0  0  0  0  0
   22.2126   17.6612   23.7816 H   0  0  0  0  0  0  0  0  0  0  0  0
   20.1437   17.1322   23.3546 C   0  0  0  0  0  0  0  0  0  0  0  0
   20.2185   16.2146   23.9544 H   0  0  0  0  0  0  0  0  0  0  0  0
   19.5281   16.8665   22.4842 H   0  0  0  0  0  0  0  0  0  0  0  0
   19.4323   18.2128   24.2100 C   0  0  0  0  0  0  0  0  0  0  0  0
   18.8375   17.7026   24.9792 H   0  0  0  0  0  0  0  0  0  0  0  0
   20.1821   18.8065   24.7483 H   0  0  0  0  0  0  0  0  0  0  0  0
   18.4879   19.1250   23.3786 C   0  0  0  0  0  0  0  0  0  0  0  0
   17.7219   18.5009   22.9000 H   0  0  0  0  0  0  0  0  0  0  0  0
   19.0397   19.5965   22.5578 H   0  0  0  0  0  0  0  0  0  0  0  0
   17.7749   20.2328   24.1890 C   0  0  2  0  0  0  0  0  0  0  0  0
   17.1005   20.7542   23.5026 H   0  0  0  0  0  0  0  0  0  0  0  0
   18.7663   21.2712   24.7428 C   0  0  0  0  0  0  0  0  0  0  0  0
   19.4009   21.6705   23.9419 H   0  0  0  0  0  0  0  0  0  0  0  0
   18.2269   22.1146   25.1911 H   0  0  0  0  0  0  0  0  0  0  0  0
   19.4160   20.8420   25.5145 H   0  0  0  0  0  0  0  0  0  0  0  0
   16.9069   19.6776   25.2844 N   0  3  0  0  0  0  0  0  0  0  0  0
   16.2142   19.0190   24.9169 H   0  0  0  0  0  0  0  0  0  0  0  0
   16.3960   20.4206   25.7698 H   0  0  0  0  0  0  0  0  0  0  0  0
   17.4647   19.1809   25.9834 H   0  0  0  0  0  0  0  0  0  0  0  0
  1  2  1  0  0  0  0
  1  3  1  0  0  0  0
  1  4  1  0  0  0  0
  1  5  1  0  0  0  0
  5  6  1  0  0  0  0
  5  7  1  0  0  0  0
  5  8  1  0  0  0  0
  8  9  1  0  0  0  0
  8 10  1  0  0  0  0
  8 11  1  0  0  0  0
 11 12  1  0  0  0  0
 11 13  1  0  0  0  0
 11 14  1  0  0  0  0
 14 15  1  0  0  0  0
 14 16  1  0  0  0  0
 14 17  1  0  0  0  0
 17 18  1  0  0  0  0
 17 19  1  0  0  0  0
 17 20  1  0  0  0  0
 20 21  1  0  0  0  0
 20 22  1  0  0  0  0
 22 23  1  0  0  0  0
 22 24  1  0  0  0  0
 22 25  1  0  0  0  0
 20 26  1  0  0  0  0
 26 27  1  0  0  0  0
 26 28  1  0  0  0  0
 26 29  1  0  0  0  0
M  END
> <VConfSearch Rank>
820

> <Conf_Id>
117

> <Delta U+W>
3.377

> <U+W>
-24.449

> <U>
27.947

> <W>
-52.396

> <W(PB)>
-54.842

> <W(SA)>
2.447

> <Valence>
6.731

> <Coulomb>
20.067

> <VdW>
1.149

> <VdW6>
-10.427

> <VdW12>
11.575

> <Bond>
0.324

> <Angle>
1.943

> <Pdih>
4.465

> <Idih>
0.000

> <Tether>
0.000

$$$$
VeraChem MOL file


 29 28  0  0  0  0  0  0  0  0999 V2000     
   22.0512   17.9859   27.6170 C   0  0  0  0  0  0  0  0  0  0  0  0
   22.4046   19.0131   27.7756 H   0  0  0  0  0  0  0  0  0  0  0  0
   21.1338   17.8454   28.2033 H   0  0  0  0  0  0  0  0  0  0  0  0
   22.8129   17.3023   28.0140 H   0  0  0  0  0  0  0  0  0  0  0  0
   21.7998   17.7109   26.1193 C   0  0  0  0  0  0  0  0  0  0  0  0
   21.4805   16.6674   25.9888 H   0  0  0  0  0  0  0  0  0  0  0  0
   22.7415   17.8261   25.5644 H   0  0  0  0  0  0  0  0  0  0  0  0
   20.7307   18.6605   25.5351 C   0  0  0  0  0  0  0  0  0  0  0  0
   19.7921   18.5434   26.0944 H   0  0  0  0  0  0  0  0  0  0  0  0
   21.0533   19.7022   25.6700 H   0  0  0  0  0  0  0  0  0  0  0  0
   20.4762   18.3880   24.0355 C   0  0  0  0  0  0  0  0  0  0  0  0
   20.1550   17.3457   23.9020 H   0  0  0  0  0  0  0  0  0  0  0  0
   21.4152   18.5055   23.4769 H   0  0  0  0  0  0  0  0  0  0  0  0
   19.4060   19.3377   23.4516 C   0  0  0  0  0  0  0  0  0  0  0  0
   18.4663   19.2169   24.0085 H   0  0  0  0  0  0  0  0  0  0  0  0
   19.7310   20.3768   23.5945 H   0  0  0  0  0  0  0  0  0  0  0  0
   19.1539   19.0635   21.9490 C   0  0  0  0  0  0  0  0  0  0  0  0
   18.8833   18.0067   21.8218 H   0  0  0  0  0  0  0  0  0  0  0  0
   20.0813   19.2201   21.3821 H   0  0  0  0  0  0  0  0  0  0  0  0
   18.0289   19.9398   21.3571 C   0  0  2  0  0  0  0  0  0  0  0  0
   17.1239   19.7846   21.9526 H   0  0  0  0  0  0  0  0  0  0  0  0
   17.7313   19.5209   19.9085 C   0  0  0  0  0  0  0  0  0  0  0  0
   16.9079   20.1153   19.4938 H   0  0  0  0  0  0  0  0  0  0  0  0
   18.6103   19.6596   19.2666 H   0  0  0  0  0  0  0  0  0  0  0  0
   17.4365   18.4652   19.8607 H   0  0  0  0  0  0  0  0  0  0  0  0
   18.3464   21.4086   21.4263 N   0  3  0  0  0  0  0  0  0  0  0  0
   18.5036   21.7119   22.3911 H   0  0  0  0  0  0  0  0  0  0  0  0
   17.5817   21.9748   21.0477 H   0  0  0  0  0  0  0  0  0  0  0  0
   19.1890   21.6336   20.8906 H   0  0  0  0  0  0  0  0  0  0  0  0
  1  2  1  0  0  0  0
  1  3  1  0  0  0  0
  1  4  1  0  0  0  0
  1  5  1  0  0  0  0
  5  6  1  0  0  0  0
  5  7  1  0  0  0  0
  5  8  1  0  0  0  0
  8  9  1  0  0  0  0
  8 10  1  0  0  0  0
  8 11  1  0  0  0  0
 11 12  1  0  0  0  0
 11 13  1  0  0  0  0
 11 14  1  0  0  0  0
 14 15  1  0  0  0  0
 14 16  1  0  0  0  0
 14 17  1  0  0  0  0
 17 18  1  0  0  0  0
 17 19  1  0  0  0  0
 17 20  1  0  0  0  0
 20 21  1  0  0  0  0
 20 22  1  0  0  0  0
 22 23  1  0  0  0  0
 22 24  1  0  0  0  0
 22 25  1  0  0  0  0
 20 26  1  0  0  0  0
 26 27  1  0  0  0  0
 26 28  1  0  0  0  0
 26 29  1  0  0  0  0
M  END
> <VConfSearch Rank>
821

> <Conf_Id>
164

> <Delta U+W>
0.000

> <U+W>
-27.826

> <U>
23.963

> <W>
-51.789

> <W(PB)>
-54.342

> <W(SA)>
2.554

> <Valence>
3.166

> <Coulomb>
19.734

> <VdW>
1.062

> <VdW6>
-7.938

> <VdW12>
9.001

> <Bond>
0.188

> <Angle>
0.880

> <Pdih>
2.098

> <Idih>
0.000

> <Tether>
0.000

$$$$
VeraChem MOL file


 29 28  0  0  0  0  0  0  0  0999 V2000     
   21.2897   19.6019   28.0978 C   0  0  0  0  0  0  0  0  0  0  0  0
   22.1558   20.2300   27.8518 H   0  0  0  0  0  0  0  0  0  0  0  0
   20.4519   20.2615   28.3589 H   0  0  0  0  0  0  0  0  0  0  0  0
   21.5436   19.0111   28.9875 H   0  0  0  0  0  0  0  0  0  0  0  0
   20.9214   18.6784   26.9174 C   0  0  0  0  0  0  0  0  0  0  0  0
   20.0745   18.0395   27.2048 H   0  0  0  0  0  0  0  0  0  0  0  0
   21.7653   18.0082   26.7017 H   0  0  0  0  0  0  0  0  0  0  0  0
   20.5595   19.4856   25.6511 C   0  0  0  0  0  0  0  0  0  0  0  0
   19.7171   20.1556   25.8724 H   0  0  0  0  0  0  0  0  0  0  0  0
   21.4080   20.1242   25.3690 H   0  0  0  0  0  0  0  0  0  0  0  0
   20.1899   18.5641   24.4669 C   0  0  0  0  0  0  0  0  0  0  0  0
   19.3411   17.9261   24.7496 H   0  0  0  0  0  0  0  0  0  0  0  0
   21.0327   17.8939   24.2478 H   0  0  0  0  0  0  0  0  0  0  0  0
   19.8284   19.3722   23.2000 C   0  0  0  0  0  0  0  0  0  0  0  0
   18.9918   20.0441   23.4321 H   0  0  0  0  0  0  0  0  0  0  0  0
   20.6792   20.0064   22.9146 H   0  0  0  0  0  0  0  0  0  0  0  0
   19.4540   18.4467   22.0164 C   0  0  0  0  0  0  0  0  0  0  0  0
   18.5636   17.8577   22.2739 H   0  0  0  0  0  0  0  0  0  0  0  0
   20.2695   17.7273   21.8640 H   0  0  0  0  0  0  0  0  0  0  0  0
   19.2129   19.2002   20.6884 C   0  0  2  0  0  0  0  0  0  0  0  0
   20.0955   19.8111   20.4752 H   0  0  0  0  0  0  0  0  0  0  0  0
   17.9852   20.1259   20.7607 C   0  0  0  0  0  0  0  0  0  0  0  0
   17.0822   19.5667   21.0356 H   0  0  0  0  0  0  0  0  0  0  0  0
   18.1315   20.9261   21.4953 H   0  0  0  0  0  0  0  0  0  0  0  0
   17.8058   20.6058   19.7907 H   0  0  0  0  0  0  0  0  0  0  0  0
   19.0734   18.2412   19.5390 N   0  3  0  0  0  0  0  0  0  0  0  0
   18.9529   18.7368   18.6510 H   0  0  0  0  0  0  0  0  0  0  0  0
   18.2622   17.6286   19.6593 H   0  0  0  0  0  0  0  0  0  0  0  0
   19.8994   17.6432   19.4443 H   0  0  0  0  0  0  0  0  0  0  0  0
  1  2  1  0  0  0  0
  1  3  1  0  0  0  0
  1  4  1  0  0  0  0
  1  5  1  0  0  0  0
  5  6  1  0  0  0  0
  5  7  1  0  0  0  0
  5  8  1  0  0  0  0
  8  9  1  0  0  0  0
  8 10  1  0  0  0  0
  8 11  1  0  0  0  0
 11 12  1  0  0  0  0
 11 13  1  0  0  0  0
 11 14  1  0  0  0  0
 14 15  1  0  0  0  0
 14 16  1  0  0  0  0
 14 17  1  0  0  0  0
 17 18  1  0  0  0  0
 17 19  1  0  0  0  0
 17 20  1  0  0  0  0
 20 21  1  0  0  0  0
 20 22  1  0  0  0  0
 22 23  1  0  0  0  0
 22 24  1  0  0  0  0
 22 25  1  0  0  0  0
 20 26  1  0  0  0  0
 26 27  1  0  0  0  0
 26 28  1  0  0  0  0
 26 29  1  0  0  0  0
M  END
> <VConfSearch Rank>
822

> <Conf_Id>
58

> <Delta U+W>
0.412

> <U+W>
-27.414

> <U>
24.279

> <W>
-51.694

> <W(PB)>
-54.271

> <W(SA)>
2.577

> <Valence>
3.709

> <Coulomb>
19.380

> <VdW>
1.191

> <VdW6>
-8.093

> <VdW12>
9.284

> <Bond>
0.200

> <Angle>
1.161

> <Pdih>
2.348

> <Idih>
0.000

> <Tether>
0.000

$$$$
VeraChem MOL file


 29 28  0  0  0  0  0  0  0  0999 V2000     
   19.0730   21.7521   27.3185 C   0  0  0  0  0  0  0  0  0  0  0  0
   18.3407   22.3956   26.8137 H   0  0  0  0  0  0  0  0  0  0  0  0
   18.5267   20.9519   27.8347 H   0  0  0  0  0  0  0  0  0  0  0  0
   19.5847   22.3560   28.0791 H   0  0  0  0  0  0  0  0  0  0  0  0
   20.0875   21.1705   26.3113 C   0  0  0  0  0  0  0  0  0  0  0  0
   20.8261   20.5597   26.8492 H   0  0  0  0  0  0  0  0  0  0  0  0
   20.6414   21.9923   25.8360 H   0  0  0  0  0  0  0  0  0  0  0  0
   19.3926   20.3154   25.2288 C   0  0  0  0  0  0  0  0  0  0  0  0
   18.8387   19.4967   25.7088 H   0  0  0  0  0  0  0  0  0  0  0  0
   18.6537   20.9295   24.6956 H   0  0  0  0  0  0  0  0  0  0  0  0
   20.4054   19.7315   24.2182 C   0  0  0  0  0  0  0  0  0  0  0  0
   21.1441   19.1182   24.7527 H   0  0  0  0  0  0  0  0  0  0  0  0
   20.9591   20.5510   23.7393 H   0  0  0  0  0  0  0  0  0  0  0  0
   19.7099   18.8761   23.1352 C   0  0  0  0  0  0  0  0  0  0  0  0
   19.1577   18.0605   23.6203 H   0  0  0  0  0  0  0  0  0  0  0  0
   18.9710   19.4959   22.6105 H   0  0  0  0  0  0  0  0  0  0  0  0
   20.7311   18.2960   22.1223 C   0  0  0  0  0  0  0  0  0  0  0  0
   21.4913   17.7203   22.6665 H   0  0  0  0  0  0  0  0  0  0  0  0
   21.2682   19.1209   21.6357 H   0  0  0  0  0  0  0  0  0  0  0  0
   20.1205   17.3875   21.0291 C   0  0  2  0  0  0  0  0  0  0  0  0
   20.9462   17.0258   20.4085 H   0  0  0  0  0  0  0  0  0  0  0  0
   19.1518   18.1553   20.1129 C   0  0  0  0  0  0  0  0  0  0  0  0
   18.8415   17.5258   19.2698 H   0  0  0  0  0  0  0  0  0  0  0  0
   18.2472   18.4666   20.6486 H   0  0  0  0  0  0  0  0  0  0  0  0
   19.6328   19.0506   19.6999 H   0  0  0  0  0  0  0  0  0  0  0  0
   19.4627   16.1626   21.6024 N   0  3  0  0  0  0  0  0  0  0  0  0
   20.1141   15.6214   22.1782 H   0  0  0  0  0  0  0  0  0  0  0  0
   19.1189   15.5423   20.8637 H   0  0  0  0  0  0  0  0  0  0  0  0
   18.6639   16.4115   22.1910 H   0  0  0  0  0  0  0  0  0  0  0  0
  1  2  1  0  0  0  0
  1  3  1  0  0  0  0
  1  4  1  0  0  0  0
  1  5  1  0  0  0  0
  5  6  1  0  0  0  0
  5  7  1  0  0  0  0
  5  8  1  0  0  0  0
  8  9  1  0  0  0  0
  8 10  1  0  0  0  0
  8 11  1  0  0  0  0
 11 12  1  0  0  0  0
 11 13  1  0  0  0  0
 11 14  1  0  0  0  0
 14 15  1  0  0  0  0
 14 16  1  0  0  0  0
 14 17  1  0  0  0  0
 17 18  1  0  0  0  0
 17 19  1  0  0  0  0
 17 20  1  0  0  0  0
 20 21  1  0  0  0  0
 20 22  1  0  0  0  0
 22 23  1  0  0  0  0
 22 24  1  0  0  0  0
 22 25  1  0  0  0  0
 20 26  1  0  0  0  0
 26 27  1  0  0  0  0
 26 28  1  0  0  0  0
 26 29  1  0  0  0  0
M  END
> <VConfSearch Rank>
823

> <Conf_Id>
137

> <Delta U+W>
0.280

> <U+W>
-27.546

> <U>
24.513

> <W>
-52.059

> <W(PB)>
-54.556

> <W(SA)>
2.497

> <Valence>
3.677

> <Coulomb>
19.662

> <VdW>
1.174

> <VdW6>
-8.569

> <VdW12>
9.743

> <Bond>
0.224

> <Angle>
1.211

> <Pdih>
2.243

> <Idih>
0.000

> <Tether>
0.000

$$$$
VeraChem MOL file


 29 28  0  0  0  0  0  0  0  0999 V2000     
   17.3528   22.5582   25.1095 C   0  0  0  0  0  0  0  0  0  0  0  0
   17.1280   21.8358   25.9049 H   0  0  0  0  0  0  0  0  0  0  0  0
   18.2305   23.1422   25.4158 H   0  0  0  0  0  0  0  0  0  0  0  0
   16.5014   23.2465   25.0288 H   0  0  0  0  0  0  0  0  0  0  0  0
   17.6043   21.8429   23.7652 C   0  0  0  0  0  0  0  0  0  0  0  0
   17.7915   22.5924   22.9834 H   0  0  0  0  0  0  0  0  0  0  0  0
   16.6991   21.2947   23.4688 H   0  0  0  0  0  0  0  0  0  0  0  0
   18.7994   20.8679   23.8509 C   0  0  0  0  0  0  0  0  0  0  0  0
   19.7020   21.4211   24.1451 H   0  0  0  0  0  0  0  0  0  0  0  0
   18.6031   20.1324   24.6417 H   0  0  0  0  0  0  0  0  0  0  0  0
   19.0493   20.1471   22.5042 C   0  0  0  0  0  0  0  0  0  0  0  0
   19.1574   20.9015   21.7125 H   0  0  0  0  0  0  0  0  0  0  0  0
   18.1705   19.5442   22.2367 H   0  0  0  0  0  0  0  0  0  0  0  0
   20.3135   19.2524   22.5005 C   0  0  0  0  0  0  0  0  0  0  0  0
   20.4813   18.9138   21.4702 H   0  0  0  0  0  0  0  0  0  0  0  0
   21.1907   19.8543   22.7756 H   0  0  0  0  0  0  0  0  0  0  0  0
   20.2060   18.0233   23.4405 C   0  0  0  0  0  0  0  0  0  0  0  0
   19.3355   17.4162   23.1589 H   0  0  0  0  0  0  0  0  0  0  0  0
   20.0254   18.3712   24.4647 H   0  0  0  0  0  0  0  0  0  0  0  0
   21.4738   17.1385   23.4557 C   0  0  2  0  0  0  0  0  0  0  0  0
   22.3349   17.7760   23.6781 H   0  0  0  0  0  0  0  0  0  0  0  0
   21.7167   16.4438   22.1035 C   0  0  0  0  0  0  0  0  0  0  0  0
   20.8482   15.8443   21.8036 H   0  0  0  0  0  0  0  0  0  0  0  0
   21.9227   17.1719   21.3108 H   0  0  0  0  0  0  0  0  0  0  0  0
   22.5857   15.7769   22.1629 H   0  0  0  0  0  0  0  0  0  0  0  0
   21.4075   16.1170   24.5571 N   0  3  0  0  0  0  0  0  0  0  0  0
   21.2914   16.5579   25.4741 H   0  0  0  0  0  0  0  0  0  0  0  0
   22.2618   15.5536   24.5962 H   0  0  0  0  0  0  0  0  0  0  0  0
   20.6230   15.4733   24.4233 H   0  0  0  0  0  0  0  0  0  0  0  0
  1  2  1  0  0  0  0
  1  3  1  0  0  0  0
  1  4  1  0  0  0  0
  1  5  1  0  0  0  0
  5  6  1  0  0  0  0
  5  7  1  0  0  0  0
  5  8  1  0  0  0  0
  8  9  1  0  0  0  0
  8 10  1  0  0  0  0
  8 11  1  0  0  0  0
 11 12  1  0  0  0  0
 11 13  1  0  0  0  0
 11 14  1  0  0  0  0
 14 15  1  0  0  0  0
 14 16  1  0  0  0  0
 14 17  1  0  0  0  0
 17 18  1  0  0  0  0
 17 19  1  0  0  0  0
 17 20  1  0  0  0  0
 20 21  1  0  0  0  0
 20 22  1  0  0  0  0
 22 23  1  0  0  0  0
 22 24  1  0  0  0  0
 22 25  1  0  0  0  0
 20 26  1  0  0  0  0
 26 27  1  0  0  0  0
 26 28  1  0  0  0  0
 26 29  1  0  0  0  0
M  END
> <VConfSearch Rank>
824

> <Conf_Id>
40

> <Delta U+W>
1.128

> <U+W>
-26.698

> <U>
25.442

> <W>
-52.140

> <W(PB)>
-54.658

> <W(SA)>
2.519

> <Valence>
4.343

> <Coulomb>
19.740

> <VdW>
1.360

> <VdW6>
-8.739

> <VdW12>
10.099

> <Bond>
0.251

> <Angle>
1.483

> <Pdih>
2.608

> <Idih>
0.000

> <Tether>
0.000

$$$$
VeraChem MOL file


 29 28  0  0  0  0  0  0  0  0999 V2000     
   22.2308   15.7118   22.3573 C   0  0  0  0  0  0  0  0  0  0  0  0
   21.2356   15.2561   22.4271 H   0  0  0  0  0  0  0  0  0  0  0  0
   22.3703   16.0800   21.3326 H   0  0  0  0  0  0  0  0  0  0  0  0
   22.9689   14.9183   22.5320 H   0  0  0  0  0  0  0  0  0  0  0  0
   22.4090   16.8512   23.3864 C   0  0  0  0  0  0  0  0  0  0  0  0
   23.4561   17.1842   23.3649 H   0  0  0  0  0  0  0  0  0  0  0  0
   22.2299   16.4662   24.4000 H   0  0  0  0  0  0  0  0  0  0  0  0
   21.4958   18.0727   23.1210 C   0  0  0  0  0  0  0  0  0  0  0  0
   21.7933   18.8722   23.8111 H   0  0  0  0  0  0  0  0  0  0  0  0
   21.6790   18.4534   22.1069 H   0  0  0  0  0  0  0  0  0  0  0  0
   19.9872   17.7650   23.3005 C   0  0  0  0  0  0  0  0  0  0  0  0
   19.8027   17.3896   24.3164 H   0  0  0  0  0  0  0  0  0  0  0  0
   19.6974   16.9576   22.6158 H   0  0  0  0  0  0  0  0  0  0  0  0
   19.0673   18.9792   23.0203 C   0  0  0  0  0  0  0  0  0  0  0  0
   19.2665   19.3660   22.0113 H   0  0  0  0  0  0  0  0  0  0  0  0
   18.0292   18.6218   23.0146 H   0  0  0  0  0  0  0  0  0  0  0  0
   19.2133   20.1225   24.0577 C   0  0  0  0  0  0  0  0  0  0  0  0
   20.2437   20.4980   24.0429 H   0  0  0  0  0  0  0  0  0  0  0  0
   19.0348   19.7324   25.0685 H   0  0  0  0  0  0  0  0  0  0  0  0
   18.2622   21.3080   23.7842 C   0  0  2  0  0  0  0  0  0  0  0  0
   18.4324   21.6553   22.7605 H   0  0  0  0  0  0  0  0  0  0  0  0
   18.5661   22.4693   24.7444 C   0  0  0  0  0  0  0  0  0  0  0  0
   17.9173   23.3281   24.5327 H   0  0  0  0  0  0  0  0  0  0  0  0
   18.4100   22.1719   25.7889 H   0  0  0  0  0  0  0  0  0  0  0  0
   19.6056   22.8033   24.6359 H   0  0  0  0  0  0  0  0  0  0  0  0
   16.8120   20.9182   23.8745 N   0  3  0  0  0  0  0  0  0  0  0  0
   16.5752   20.5767   24.8099 H   0  0  0  0  0  0  0  0  0  0  0  0
   16.5817   20.1768   23.2076 H   0  0  0  0  0  0  0  0  0  0  0  0
   16.1980   21.7126   23.6733 H   0  0  0  0  0  0  0  0  0  0  0  0
  1  2  1  0  0  0  0
  1  3  1  0  0  0  0
  1  4  1  0  0  0  0
  1  5  1  0  0  0  0
  5  6  1  0  0  0  0
  5  7  1  0  0  0  0
  5  8  1  0  0  0  0
  8  9  1  0  0  0  0
  8 10  1  0  0  0  0
  8 11  1  0  0  0  0
 11 12  1  0  0  0  0
 11 13  1  0  0  0  0
 11 14  1  0  0  0  0
 14 15  1  0  0  0  0
 14 16  1  0  0  0  0
 14 17  1  0  0  0  0
 17 18  1  0  0  0  0
 17 19  1  0  0  0  0
 17 20  1  0  0  0  0
 20 21  1  0  0  0  0
 20 22  1  0  0  0  0
 22 23  1  0  0  0  0
 22 24  1  0  0  0  0
 22 25  1  0  0  0  0
 20 26  1  0  0  0  0
 26 27  1  0  0  0  0
 26 28  1  0  0  0  0
 26 29  1  0  0  0  0
M  END
> <VConfSearch Rank>
825

> <Conf_Id>
134

> <Delta U+W>
1.228

> <U+W>
-26.598

> <U>
25.451

> <W>
-52.048

> <W(PB)>
-54.539

> <W(SA)>
2.490

> <Valence>
4.319

> <Coulomb>
19.732

> <VdW>
1.400

> <VdW6>
-9.173

> <VdW12>
10.573

> <Bond>
0.281

> <Angle>
1.459

> <Pdih>
2.580

> <Idih>
0.000

> <Tether>
0.000

$$$$
VeraChem MOL file


 29 28  0  0  0  0  0  0  0  0999 V2000     
   19.2682   22.1831   20.5429 C   0  0  0  0  0  0  0  0  0  0  0  0
   18.2307   22.0950   20.8881 H   0  0  0  0  0  0  0  0  0  0  0  0
   19.7832   22.9124   21.1816 H   0  0  0  0  0  0  0  0  0  0  0  0
   19.2423   22.5892   19.5234 H   0  0  0  0  0  0  0  0  0  0  0  0
   19.9925   20.8179   20.5623 C   0  0  0  0  0  0  0  0  0  0  0  0
   20.9778   20.9352   20.0897 H   0  0  0  0  0  0  0  0  0  0  0  0
   19.4395   20.0964   19.9447 H   0  0  0  0  0  0  0  0  0  0  0  0
   20.1918   20.2442   21.9861 C   0  0  0  0  0  0  0  0  0  0  0  0
   20.8278   19.3533   21.9061 H   0  0  0  0  0  0  0  0  0  0  0  0
   20.7468   20.9680   22.5986 H   0  0  0  0  0  0  0  0  0  0  0  0
   18.8635   19.8707   22.6919 C   0  0  0  0  0  0  0  0  0  0  0  0
   18.3095   19.1457   22.0800 H   0  0  0  0  0  0  0  0  0  0  0  0
   18.2268   20.7615   22.7675 H   0  0  0  0  0  0  0  0  0  0  0  0
   19.0617   19.3023   24.1188 C   0  0  0  0  0  0  0  0  0  0  0  0
   19.6022   20.0402   24.7263 H   0  0  0  0  0  0  0  0  0  0  0  0
   18.0739   19.1798   24.5842 H   0  0  0  0  0  0  0  0  0  0  0  0
   19.8024   17.9404   24.1452 C   0  0  0  0  0  0  0  0  0  0  0  0
   20.8423   18.0693   23.8196 H   0  0  0  0  0  0  0  0  0  0  0  0
   19.3268   17.2687   23.4185 H   0  0  0  0  0  0  0  0  0  0  0  0
   19.7850   17.2548   25.5303 C   0  0  2  0  0  0  0  0  0  0  0  0
   18.7441   17.1649   25.8557 H   0  0  0  0  0  0  0  0  0  0  0  0
   20.5575   18.0651   26.5866 C   0  0  0  0  0  0  0  0  0  0  0  0
   21.5964   18.2328   26.2764 H   0  0  0  0  0  0  0  0  0  0  0  0
   20.0891   19.0406   26.7614 H   0  0  0  0  0  0  0  0  0  0  0  0
   20.5705   17.5348   27.5468 H   0  0  0  0  0  0  0  0  0  0  0  0
   20.3266   15.8546   25.4497 N   0  3  0  0  0  0  0  0  0  0  0  0
   19.7988   15.2840   24.7828 H   0  0  0  0  0  0  0  0  0  0  0  0
   20.2800   15.3829   26.3575 H   0  0  0  0  0  0  0  0  0  0  0  0
   21.3060   15.8488   25.1523 H   0  0  0  0  0  0  0  0  0  0  0  0
  1  2  1  0  0  0  0
  1  3  1  0  0  0  0
  1  4  1  0  0  0  0
  1  5  1  0  0  0  0
  5  6  1  0  0  0  0
  5  7  1  0  0  0  0
  5  8  1  0  0  0  0
  8  9  1  0  0  0  0
  8 10  1  0  0  0  0
  8 11  1  0  0  0  0
 11 12  1  0  0  0  0
 11 13  1  0  0  0  0
 11 14  1  0  0  0  0
 14 15  1  0  0  0  0
 14 16  1  0  0  0  0
 14 17  1  0  0  0  0
 17 18  1  0  0  0  0
 17 19  1  0  0  0  0
 17 20  1  0  0  0  0
 20 21  1  0  0  0  0
 20 22  1  0  0  0  0
 22 23  1  0  0  0  0
 22 24  1  0  0  0  0
 22 25  1  0  0  0  0
 20 26  1  0  0  0  0
 26 27  1  0  0  0  0
 26 28  1  0  0  0  0
 26 29  1  0  0  0  0
M  END
> <VConfSearch Rank>
826

> <Conf_Id>
73

> <Delta U+W>
1.580

> <U+W>
-26.246

> <U>
25.821

> <W>
-52.067

> <W(PB)>
-54.581

> <W(SA)>
2.514

> <Valence>
4.779

> <Coulomb>
19.614

> <VdW>
1.428

> <VdW6>
-9.390

> <VdW12>
10.818

> <Bond>
0.283

> <Angle>
1.640

> <Pdih>
2.856

> <Idih>
0.000

> <Tether>
0.000

$$$$
VeraChem MOL file


 29 28  0  0  0  0  0  0  0  0999 V2000     
   19.8362   17.4179   27.6556 C   0  0  0  0  0  0  0  0  0  0  0  0
   20.9132   17.3333   27.4604 H   0  0  0  0  0  0  0  0  0  0  0  0
   19.6990   17.5505   28.7366 H   0  0  0  0  0  0  0  0  0  0  0  0
   19.3613   16.4704   27.3692 H   0  0  0  0  0  0  0  0  0  0  0  0
   19.2230   18.6024   26.8791 C   0  0  0  0  0  0  0  0  0  0  0  0
   19.6943   19.5385   27.2101 H   0  0  0  0  0  0  0  0  0  0  0  0
   18.1541   18.6824   27.1217 H   0  0  0  0  0  0  0  0  0  0  0  0
   19.4018   18.4401   25.3534 C   0  0  0  0  0  0  0  0  0  0  0  0
   20.4722   18.3514   25.1273 H   0  0  0  0  0  0  0  0  0  0  0  0
   18.9268   17.5046   25.0272 H   0  0  0  0  0  0  0  0  0  0  0  0
   18.7913   19.6301   24.5745 C   0  0  0  0  0  0  0  0  0  0  0  0
   19.3049   20.5600   24.8551 H   0  0  0  0  0  0  0  0  0  0  0  0
   17.7426   19.7539   24.8784 H   0  0  0  0  0  0  0  0  0  0  0  0
   18.8363   19.4561   23.0363 C   0  0  0  0  0  0  0  0  0  0  0  0
   18.3198   18.5275   22.7565 H   0  0  0  0  0  0  0  0  0  0  0  0
   18.2627   20.2766   22.5858 H   0  0  0  0  0  0  0  0  0  0  0  0
   20.2741   19.4495   22.4558 C   0  0  0  0  0  0  0  0  0  0  0  0
   20.8363   18.6130   22.8886 H   0  0  0  0  0  0  0  0  0  0  0  0
   20.7985   20.3679   22.7511 H   0  0  0  0  0  0  0  0  0  0  0  0
   20.3015   19.3082   20.9182 C   0  0  2  0  0  0  0  0  0  0  0  0
   19.7426   18.4074   20.6465 H   0  0  0  0  0  0  0  0  0  0  0  0
   21.7474   19.1468   20.4223 C   0  0  0  0  0  0  0  0  0  0  0  0
   22.2203   18.2678   20.8777 H   0  0  0  0  0  0  0  0  0  0  0  0
   21.7718   19.0109   19.3341 H   0  0  0  0  0  0  0  0  0  0  0  0
   22.3528   20.0276   20.6706 H   0  0  0  0  0  0  0  0  0  0  0  0
   19.6326   20.4607   20.2201 N   0  3  0  0  0  0  0  0  0  0  0  0
   19.6455   20.3405   19.2033 H   0  0  0  0  0  0  0  0  0  0  0  0
   20.1006   21.3463   20.4302 H   0  0  0  0  0  0  0  0  0  0  0  0
   18.6539   20.5535   20.5049 H   0  0  0  0  0  0  0  0  0  0  0  0
  1  2  1  0  0  0  0
  1  3  1  0  0  0  0
  1  4  1  0  0  0  0
  1  5  1  0  0  0  0
  5  6  1  0  0  0  0
  5  7  1  0  0  0  0
  5  8  1  0  0  0  0
  8  9  1  0  0  0  0
  8 10  1  0  0  0  0
  8 11  1  0  0  0  0
 11 12  1  0  0  0  0
 11 13  1  0  0  0  0
 11 14  1  0  0  0  0
 14 15  1  0  0  0  0
 14 16  1  0  0  0  0
 14 17  1  0  0  0  0
 17 18  1  0  0  0  0
 17 19  1  0  0  0  0
 17 20  1  0  0  0  0
 20 21  1  0  0  0  0
 20 22  1  0  0  0  0
 22 23  1  0  0  0  0
 22 24  1  0  0  0  0
 22 25  1  0  0  0  0
 20 26  1  0  0  0  0
 26 27  1  0  0  0  0
 26 28  1  0  0  0  0
 26 29  1  0  0  0  0
M  END
> <VConfSearch Rank>
827

> <Conf_Id>
111

> <Delta U+W>
0.580

> <U+W>
-27.246

> <U>
24.710

> <W>
-51.957

> <W(PB)>
-54.511

> <W(SA)>
2.555

> <Valence>
3.735

> <Coulomb>
19.760

> <VdW>
1.216

> <VdW6>
-8.624

> <VdW12>
9.840

> <Bond>
0.236

> <Angle>
1.168

> <Pdih>
2.330

> <Idih>
0.000

> <Tether>
0.000

$$$$
VeraChem MOL file


 29 28  0  0  0  0  0  0  0  0999 V2000     
   20.9605   23.1733   22.5323 C   0  0  0  0  0  0  0  0  0  0  0  0
   19.9537   23.4473   22.1910 H   0  0  0  0  0  0  0  0  0  0  0  0
   20.9851   23.2566   23.6267 H   0  0  0  0  0  0  0  0  0  0  0  0
   21.6667   23.9070   22.1225 H   0  0  0  0  0  0  0  0  0  0  0  0
   21.3315   21.7463   22.0761 C   0  0  0  0  0  0  0  0  0  0  0  0
   22.3545   21.5132   22.4031 H   0  0  0  0  0  0  0  0  0  0  0  0
   21.3321   21.7037   20.9779 H   0  0  0  0  0  0  0  0  0  0  0  0
   20.3517   20.6931   22.6390 C   0  0  0  0  0  0  0  0  0  0  0  0
   20.3539   20.7521   23.7353 H   0  0  0  0  0  0  0  0  0  0  0  0
   19.3310   20.9292   22.3079 H   0  0  0  0  0  0  0  0  0  0  0  0
   20.7251   19.2614   22.1855 C   0  0  0  0  0  0  0  0  0  0  0  0
   21.7254   19.0031   22.5596 H   0  0  0  0  0  0  0  0  0  0  0  0
   20.7910   19.2389   21.0889 H   0  0  0  0  0  0  0  0  0  0  0  0
   19.7075   18.1856   22.6379 C   0  0  0  0  0  0  0  0  0  0  0  0
   18.7182   18.4358   22.2327 H   0  0  0  0  0  0  0  0  0  0  0  0
   19.9938   17.2243   22.1893 H   0  0  0  0  0  0  0  0  0  0  0  0
   19.6294   18.0208   24.1777 C   0  0  0  0  0  0  0  0  0  0  0  0
   19.2119   18.9275   24.6333 H   0  0  0  0  0  0  0  0  0  0  0  0
   20.6491   17.9131   24.5705 H   0  0  0  0  0  0  0  0  0  0  0  0
   18.7996   16.7967   24.6269 C   0  0  2  0  0  0  0  0  0  0  0  0
   19.2069   15.9072   24.1364 H   0  0  0  0  0  0  0  0  0  0  0  0
   17.3158   16.9300   24.2401 C   0  0  0  0  0  0  0  0  0  0  0  0
   16.8764   17.8428   24.6614 H   0  0  0  0  0  0  0  0  0  0  0  0
   17.1887   16.9579   23.1517 H   0  0  0  0  0  0  0  0  0  0  0  0
   16.7411   16.0728   24.6119 H   0  0  0  0  0  0  0  0  0  0  0  0
   18.9330   16.5638   26.1062 N   0  3  0  0  0  0  0  0  0  0  0  0
   19.9107   16.4291   26.3800 H   0  0  0  0  0  0  0  0  0  0  0  0
   18.4166   15.7303   26.4015 H   0  0  0  0  0  0  0  0  0  0  0  0
   18.5690   17.3551   26.6438 H   0  0  0  0  0  0  0  0  0  0  0  0
  1  2  1  0  0  0  0
  1  3  1  0  0  0  0
  1  4  1  0  0  0  0
  1  5  1  0  0  0  0
  5  6  1  0  0  0  0
  5  7  1  0  0  0  0
  5  8  1  0  0  0  0
  8  9  1  0  0  0  0
  8 10  1  0  0  0  0
  8 11  1  0  0  0  0
 11 12  1  0  0  0  0
 11 13  1  0  0  0  0
 11 14  1  0  0  0  0
 14 15  1  0  0  0  0
 14 16  1  0  0  0  0
 14 17  1  0  0  0  0
 17 18  1  0  0  0  0
 17 19  1  0  0  0  0
 17 20  1  0  0  0  0
 20 21  1  0  0  0  0
 20 22  1  0  0  0  0
 22 23  1  0  0  0  0
 22 24  1  0  0  0  0
 22 25  1  0  0  0  0
 20 26  1  0  0  0  0
 26 27  1  0  0  0  0
 26 28  1  0  0  0  0
 26 29  1  0  0  0  0
M  END
> <VConfSearch Rank>
828

> <Conf_Id>
39

> <Delta U+W>
0.965

> <U+W>
-26.861

> <U>
25.129

> <W>
-51.990

> <W(PB)>
-54.526

> <W(SA)>
2.536

> <Valence>
4.206

> <Coulomb>
19.678

> <VdW>
1.245

> <VdW6>
-8.834

> <VdW12>
10.079

> <Bond>
0.240

> <Angle>
1.353

> <Pdih>
2.613

> <Idih>
0.000

> <Tether>
0.000

$$$$
VeraChem MOL file


 29 28  0  0  0  0  0  0  0  0999 V2000     
   19.8804   23.3172   23.9462 C   0  0  0  0  0  0  0  0  0  0  0  0
   18.7847   23.3679   23.9032 H   0  0  0  0  0  0  0  0  0  0  0  0
   20.1700   22.9647   24.9437 H   0  0  0  0  0  0  0  0  0  0  0  0
   20.2682   24.3378   23.8325 H   0  0  0  0  0  0  0  0  0  0  0  0
   20.4385   22.4003   22.8340 C   0  0  0  0  0  0  0  0  0  0  0  0
   21.5323   22.3379   22.9197 H   0  0  0  0  0  0  0  0  0  0  0  0
   20.2327   22.8641   21.8592 H   0  0  0  0  0  0  0  0  0  0  0  0
   19.8303   20.9769   22.8431 C   0  0  0  0  0  0  0  0  0  0  0  0
   18.7372   21.0450   22.7563 H   0  0  0  0  0  0  0  0  0  0  0  0
   20.1809   20.4539   21.9443 H   0  0  0  0  0  0  0  0  0  0  0  0
   20.2055   20.1540   24.1018 C   0  0  0  0  0  0  0  0  0  0  0  0
   19.8608   20.6835   24.9993 H   0  0  0  0  0  0  0  0  0  0  0  0
   21.2985   20.0822   24.1861 H   0  0  0  0  0  0  0  0  0  0  0  0
   19.5885   18.7337   24.1197 C   0  0  0  0  0  0  0  0  0  0  0  0
   19.7926   18.2867   25.1013 H   0  0  0  0  0  0  0  0  0  0  0  0
   18.4966   18.8161   24.0374 H   0  0  0  0  0  0  0  0  0  0  0  0
   20.1410   17.8053   23.0036 C   0  0  0  0  0  0  0  0  0  0  0  0
   21.2384   17.8238   23.0280 H   0  0  0  0  0  0  0  0  0  0  0  0
   19.8522   18.1959   22.0201 H   0  0  0  0  0  0  0  0  0  0  0  0
   19.6739   16.3334   23.0941 C   0  0  2  0  0  0  0  0  0  0  0  0
   20.1374   15.7935   22.2625 H   0  0  0  0  0  0  0  0  0  0  0  0
   18.1485   16.2014   22.9426 C   0  0  0  0  0  0  0  0  0  0  0  0
   17.6171   16.6422   23.7945 H   0  0  0  0  0  0  0  0  0  0  0  0
   17.8033   16.6981   22.0273 H   0  0  0  0  0  0  0  0  0  0  0  0
   17.8594   15.1453   22.8773 H   0  0  0  0  0  0  0  0  0  0  0  0
   20.1515   15.6542   24.3481 N   0  3  0  0  0  0  0  0  0  0  0  0
   21.1709   15.7003   24.4349 H   0  0  0  0  0  0  0  0  0  0  0  0
   19.8875   14.6649   24.3614 H   0  0  0  0  0  0  0  0  0  0  0  0
   19.7508   16.0901   25.1823 H   0  0  0  0  0  0  0  0  0  0  0  0
  1  2  1  0  0  0  0
  1  3  1  0  0  0  0
  1  4  1  0  0  0  0
  1  5  1  0  0  0  0
  5  6  1  0  0  0  0
  5  7  1  0  0  0  0
  5  8  1  0  0  0  0
  8  9  1  0  0  0  0
  8 10  1  0  0  0  0
  8 11  1  0  0  0  0
 11 12  1  0  0  0  0
 11 13  1  0  0  0  0
 11 14  1  0  0  0  0
 14 15  1  0  0  0  0
 14 16  1  0  0  0  0
 14 17  1  0  0  0  0
 17 18  1  0  0  0  0
 17 19  1  0  0  0  0
 17 20  1  0  0  0  0
 20 21  1  0  0  0  0
 20 22  1  0  0  0  0
 22 23  1  0  0  0  0
 22 24  1  0  0  0  0
 22 25  1  0  0  0  0
 20 26  1  0  0  0  0
 26 27  1  0  0  0  0
 26 28  1  0  0  0  0
 26 29  1  0  0  0  0
M  END
> <VConfSearch Rank>
829

> <Conf_Id>
155

> <Delta U+W>
1.624

> <U+W>
-26.202

> <U>
25.894

> <W>
-52.096

> <W(PB)>
-54.602

> <W(SA)>
2.506

> <Valence>
4.779

> <Coulomb>
19.659

> <VdW>
1.456

> <VdW6>
-9.843

> <VdW12>
11.299

> <Bond>
0.315

> <Angle>
1.725

> <Pdih>
2.740

> <Idih>
0.000

> <Tether>
0.000

$$$$
VeraChem MOL file


 29 28  0  0  0  0  0  0  0  0999 V2000     
   21.9624   21.2603   26.1579 C   0  0  0  0  0  0  0  0  0  0  0  0
   21.1379   21.9333   25.8916 H   0  0  0  0  0  0  0  0  0  0  0  0
   21.5684   20.4781   26.8195 H   0  0  0  0  0  0  0  0  0  0  0  0
   22.6952   21.8454   26.7286 H   0  0  0  0  0  0  0  0  0  0  0  0
   22.6208   20.6459   24.9019 C   0  0  0  0  0  0  0  0  0  0  0  0
   23.5083   20.0755   25.2096 H   0  0  0  0  0  0  0  0  0  0  0  0
   22.9837   21.4485   24.2448 H   0  0  0  0  0  0  0  0  0  0  0  0
   21.6765   19.7085   24.1114 C   0  0  0  0  0  0  0  0  0  0  0  0
   22.2491   19.2403   23.2991 H   0  0  0  0  0  0  0  0  0  0  0  0
   21.3479   18.8946   24.7706 H   0  0  0  0  0  0  0  0  0  0  0  0
   20.4490   20.4398   23.5113 C   0  0  0  0  0  0  0  0  0  0  0  0
   20.7956   21.3296   22.9679 H   0  0  0  0  0  0  0  0  0  0  0  0
   19.7962   20.8033   24.3159 H   0  0  0  0  0  0  0  0  0  0  0  0
   19.6199   19.5651   22.5387 C   0  0  0  0  0  0  0  0  0  0  0  0
   18.8657   20.2088   22.0684 H   0  0  0  0  0  0  0  0  0  0  0  0
   20.2666   19.2021   21.7280 H   0  0  0  0  0  0  0  0  0  0  0  0
   18.9221   18.3644   23.2293 C   0  0  0  0  0  0  0  0  0  0  0  0
   18.2667   18.7279   24.0318 H   0  0  0  0  0  0  0  0  0  0  0  0
   19.6831   17.7367   23.7085 H   0  0  0  0  0  0  0  0  0  0  0  0
   18.1118   17.4734   22.2598 C   0  0  2  0  0  0  0  0  0  0  0  0
   18.7694   17.1737   21.4380 H   0  0  0  0  0  0  0  0  0  0  0  0
   16.8962   18.2100   21.6687 C   0  0  0  0  0  0  0  0  0  0  0  0
   16.2393   18.5909   22.4606 H   0  0  0  0  0  0  0  0  0  0  0  0
   17.2055   19.0543   21.0423 H   0  0  0  0  0  0  0  0  0  0  0  0
   16.3076   17.5360   21.0341 H   0  0  0  0  0  0  0  0  0  0  0  0
   17.6699   16.2037   22.9331 N   0  3  0  0  0  0  0  0  0  0  0  0
   18.4665   15.6721   23.2959 H   0  0  0  0  0  0  0  0  0  0  0  0
   17.1660   15.5923   22.2843 H   0  0  0  0  0  0  0  0  0  0  0  0
   17.0440   16.3961   23.7199 H   0  0  0  0  0  0  0  0  0  0  0  0
  1  2  1  0  0  0  0
  1  3  1  0  0  0  0
  1  4  1  0  0  0  0
  1  5  1  0  0  0  0
  5  6  1  0  0  0  0
  5  7  1  0  0  0  0
  5  8  1  0  0  0  0
  8  9  1  0  0  0  0
  8 10  1  0  0  0  0
  8 11  1  0  0  0  0
 11 12  1  0  0  0  0
 11 13  1  0  0  0  0
 11 14  1  0  0  0  0
 14 15  1  0  0  0  0
 14 16  1  0  0  0  0
 14 17  1  0  0  0  0
 17 18  1  0  0  0  0
 17 19  1  0  0  0  0
 17 20  1  0  0  0  0
 20 21  1  0  0  0  0
 20 22  1  0  0  0  0
 22 23  1  0  0  0  0
 22 24  1  0  0  0  0
 22 25  1  0  0  0  0
 20 26  1  0  0  0  0
 26 27  1  0  0  0  0
 26 28  1  0  0  0  0
 26 29  1  0  0  0  0
M  END
> <VConfSearch Rank>
830

> <Conf_Id>
135

> <Delta U+W>
1.581

> <U+W>
-26.245

> <U>
25.974

> <W>
-52.219

> <W(PB)>
-54.709

> <W(SA)>
2.490

> <Valence>
4.811

> <Coulomb>
19.700

> <VdW>
1.463

> <VdW6>
-9.391

> <VdW12>
10.854

> <Bond>
0.285

> <Angle>
1.671

> <Pdih>
2.855

> <Idih>
0.000

> <Tether>
0.000

$$$$
VeraChem MOL file


 29 28  0  0  0  0  0  0  0  0999 V2000     
   19.6111   15.0786   23.1996 C   0  0  0  0  0  0  0  0  0  0  0  0
   20.6943   15.2480   23.2530 H   0  0  0  0  0  0  0  0  0  0  0  0
   19.1898   15.2260   24.2018 H   0  0  0  0  0  0  0  0  0  0  0  0
   19.4485   14.0285   22.9242 H   0  0  0  0  0  0  0  0  0  0  0  0
   18.9523   16.0176   22.1639 C   0  0  0  0  0  0  0  0  0  0  0  0
   17.8668   15.8471   22.1484 H   0  0  0  0  0  0  0  0  0  0  0  0
   19.3193   15.7539   21.1621 H   0  0  0  0  0  0  0  0  0  0  0  0
   19.2437   17.5155   22.4219 C   0  0  0  0  0  0  0  0  0  0  0  0
   20.3294   17.6777   22.4056 H   0  0  0  0  0  0  0  0  0  0  0  0
   18.8287   18.1004   21.5895 H   0  0  0  0  0  0  0  0  0  0  0  0
   18.6473   18.0358   23.7540 C   0  0  0  0  0  0  0  0  0  0  0  0
   19.1383   17.5439   24.6040 H   0  0  0  0  0  0  0  0  0  0  0  0
   17.5859   17.7567   23.8050 H   0  0  0  0  0  0  0  0  0  0  0  0
   18.7610   19.5711   23.9189 C   0  0  0  0  0  0  0  0  0  0  0  0
   18.2341   20.0605   23.0892 H   0  0  0  0  0  0  0  0  0  0  0  0
   18.2342   19.8635   24.8379 H   0  0  0  0  0  0  0  0  0  0  0  0
   20.2258   20.0735   23.9940 C   0  0  0  0  0  0  0  0  0  0  0  0
   20.7299   19.9102   23.0330 H   0  0  0  0  0  0  0  0  0  0  0  0
   20.7648   19.4711   24.7371 H   0  0  0  0  0  0  0  0  0  0  0  0
   20.3493   21.5629   24.3879 C   0  0  2  0  0  0  0  0  0  0  0  0
   19.8114   21.7148   25.3288 H   0  0  0  0  0  0  0  0  0  0  0  0
   19.7428   22.4951   23.3238 C   0  0  0  0  0  0  0  0  0  0  0  0
   20.2112   22.3369   22.3444 H   0  0  0  0  0  0  0  0  0  0  0  0
   18.6639   22.3320   23.2194 H   0  0  0  0  0  0  0  0  0  0  0  0
   19.8864   23.5460   23.6038 H   0  0  0  0  0  0  0  0  0  0  0  0
   21.7811   21.9373   24.6528 N   0  3  0  0  0  0  0  0  0  0  0  0
   21.8630   22.9131   24.9526 H   0  0  0  0  0  0  0  0  0  0  0  0
   22.3581   21.8258   23.8147 H   0  0  0  0  0  0  0  0  0  0  0  0
   22.1925   21.3570   25.3896 H   0  0  0  0  0  0  0  0  0  0  0  0
  1  2  1  0  0  0  0
  1  3  1  0  0  0  0
  1  4  1  0  0  0  0
  1  5  1  0  0  0  0
  5  6  1  0  0  0  0
  5  7  1  0  0  0  0
  5  8  1  0  0  0  0
  8  9  1  0  0  0  0
  8 10  1  0  0  0  0
  8 11  1  0  0  0  0
 11 12  1  0  0  0  0
 11 13  1  0  0  0  0
 11 14  1  0  0  0  0
 14 15  1  0  0  0  0
 14 16  1  0  0  0  0
 14 17  1  0  0  0  0
 17 18  1  0  0  0  0
 17 19  1  0  0  0  0
 17 20  1  0  0  0  0
 20 21  1  0  0  0  0
 20 22  1  0  0  0  0
 22 23  1  0  0  0  0
 22 24  1  0  0  0  0
 22 25  1  0  0  0  0
 20 26  1  0  0  0  0
 26 27  1  0  0  0  0
 26 28  1  0  0  0  0
 26 29  1  0  0  0  0
M  END
> <VConfSearch Rank>
831

> <Conf_Id>
130

> <Delta U+W>
1.359

> <U+W>
-26.467

> <U>
25.687

> <W>
-52.154

> <W(PB)>
-54.643

> <W(SA)>
2.489

> <Valence>
4.682

> <Coulomb>
19.653

> <VdW>
1.352

> <VdW6>
-9.477

> <VdW12>
10.829

> <Bond>
0.274

> <Angle>
1.550

> <Pdih>
2.858

> <Idih>
0.000

> <Tether>
0.000

$$$$
VeraChem MOL file


 29 28  0  0  0  0  0  0  0  0999 V2000     
   16.7026   16.8557   25.0302 C   0  0  0  0  0  0  0  0  0  0  0  0
   16.1255   16.6278   25.9357 H   0  0  0  0  0  0  0  0  0  0  0  0
   16.0824   16.5955   24.1626 H   0  0  0  0  0  0  0  0  0  0  0  0
   17.5857   16.2049   25.0301 H   0  0  0  0  0  0  0  0  0  0  0  0
   17.0976   18.3496   25.0028 C   0  0  0  0  0  0  0  0  0  0  0  0
   17.7443   18.5768   25.8618 H   0  0  0  0  0  0  0  0  0  0  0  0
   16.1909   18.9572   25.1316 H   0  0  0  0  0  0  0  0  0  0  0  0
   17.7996   18.7785   23.6916 C   0  0  0  0  0  0  0  0  0  0  0  0
   17.1410   18.5658   22.8384 H   0  0  0  0  0  0  0  0  0  0  0  0
   17.9291   19.8678   23.7142 H   0  0  0  0  0  0  0  0  0  0  0  0
   19.1717   18.0905   23.4745 C   0  0  0  0  0  0  0  0  0  0  0  0
   19.0187   17.0071   23.3860 H   0  0  0  0  0  0  0  0  0  0  0  0
   19.8036   18.2409   24.3580 H   0  0  0  0  0  0  0  0  0  0  0  0
   19.9011   18.5772   22.1953 C   0  0  0  0  0  0  0  0  0  0  0  0
   20.6974   17.8667   21.9334 H   0  0  0  0  0  0  0  0  0  0  0  0
   19.1910   18.5412   21.3575 H   0  0  0  0  0  0  0  0  0  0  0  0
   20.4981   20.0087   22.2908 C   0  0  0  0  0  0  0  0  0  0  0  0
   19.9349   20.6223   23.0040 H   0  0  0  0  0  0  0  0  0  0  0  0
   20.3666   20.4909   21.3132 H   0  0  0  0  0  0  0  0  0  0  0  0
   22.0060   20.0567   22.6351 C   0  0  2  0  0  0  0  0  0  0  0  0
   22.5456   19.4704   21.8850 H   0  0  0  0  0  0  0  0  0  0  0  0
   22.3179   19.4676   24.0211 C   0  0  0  0  0  0  0  0  0  0  0  0
   22.1004   18.3937   24.0502 H   0  0  0  0  0  0  0  0  0  0  0  0
   23.3812   19.5880   24.2625 H   0  0  0  0  0  0  0  0  0  0  0  0
   21.7320   19.9636   24.8049 H   0  0  0  0  0  0  0  0  0  0  0  0
   22.5373   21.4597   22.5360 N   0  3  0  0  0  0  0  0  0  0  0  0
   22.3829   21.8566   21.6046 H   0  0  0  0  0  0  0  0  0  0  0  0
   23.5447   21.4915   22.7173 H   0  0  0  0  0  0  0  0  0  0  0  0
   22.0852   22.0793   23.2137 H   0  0  0  0  0  0  0  0  0  0  0  0
  1  2  1  0  0  0  0
  1  3  1  0  0  0  0
  1  4  1  0  0  0  0
  1  5  1  0  0  0  0
  5  6  1  0  0  0  0
  5  7  1  0  0  0  0
  5  8  1  0  0  0  0
  8  9  1  0  0  0  0
  8 10  1  0  0  0  0
  8 11  1  0  0  0  0
 11 12  1  0  0  0  0
 11 13  1  0  0  0  0
 11 14  1  0  0  0  0
 14 15  1  0  0  0  0
 14 16  1  0  0  0  0
 14 17  1  0  0  0  0
 17 18  1  0  0  0  0
 17 19  1  0  0  0  0
 17 20  1  0  0  0  0
 20 21  1  0  0  0  0
 20 22  1  0  0  0  0
 22 23  1  0  0  0  0
 22 24  1  0  0  0  0
 22 25  1  0  0  0  0
 20 26  1  0  0  0  0
 26 27  1  0  0  0  0
 26 28  1  0  0  0  0
 26 29  1  0  0  0  0
M  END
> <VConfSearch Rank>
832

> <Conf_Id>
157

> <Delta U+W>
4.354

> <U+W>
-23.472

> <U>
28.780

> <W>
-52.252

> <W(PB)>
-54.715

> <W(SA)>
2.462

> <Valence>
7.566

> <Coulomb>
19.822

> <VdW>
1.392

> <VdW6>
-10.248

> <VdW12>
11.641

> <Bond>
0.340

> <Angle>
2.096

> <Pdih>
5.129

> <Idih>
0.000

> <Tether>
0.000

$$$$
VeraChem MOL file


 29 28  0  0  0  0  0  0  0  0999 V2000     
   17.8626   20.2713   20.5517 C   0  0  0  0  0  0  0  0  0  0  0  0
   17.9268   20.9241   19.6715 H   0  0  0  0  0  0  0  0  0  0  0  0
   18.7520   19.6315   20.5565 H   0  0  0  0  0  0  0  0  0  0  0  0
   16.9837   19.6261   20.4241 H   0  0  0  0  0  0  0  0  0  0  0  0
   17.7445   21.1143   21.8428 C   0  0  0  0  0  0  0  0  0  0  0  0
   16.8445   21.7394   21.7576 H   0  0  0  0  0  0  0  0  0  0  0  0
   18.5899   21.8117   21.9229 H   0  0  0  0  0  0  0  0  0  0  0  0
   17.6299   20.2555   23.1285 C   0  0  0  0  0  0  0  0  0  0  0  0
   16.9423   20.7640   23.8184 H   0  0  0  0  0  0  0  0  0  0  0  0
   17.1578   19.2901   22.8998 H   0  0  0  0  0  0  0  0  0  0  0  0
   18.9650   20.0302   23.8840 C   0  0  0  0  0  0  0  0  0  0  0  0
   18.7386   19.4779   24.8052 H   0  0  0  0  0  0  0  0  0  0  0  0
   19.3717   21.0003   24.2012 H   0  0  0  0  0  0  0  0  0  0  0  0
   20.0371   19.2664   23.0683 C   0  0  0  0  0  0  0  0  0  0  0  0
   19.6132   18.3332   22.6747 H   0  0  0  0  0  0  0  0  0  0  0  0
   20.3218   19.8691   22.1965 H   0  0  0  0  0  0  0  0  0  0  0  0
   21.3255   18.9673   23.8775 C   0  0  0  0  0  0  0  0  0  0  0  0
   21.7753   19.9191   24.1901 H   0  0  0  0  0  0  0  0  0  0  0  0
   22.0575   18.4856   23.2157 H   0  0  0  0  0  0  0  0  0  0  0  0
   21.1065   18.0804   25.1239 C   0  0  2  0  0  0  0  0  0  0  0  0
   20.4005   18.5862   25.7888 H   0  0  0  0  0  0  0  0  0  0  0  0
   22.4283   17.8927   25.8851 C   0  0  0  0  0  0  0  0  0  0  0  0
   23.1748   17.3810   25.2648 H   0  0  0  0  0  0  0  0  0  0  0  0
   22.8433   18.8616   26.1897 H   0  0  0  0  0  0  0  0  0  0  0  0
   22.2722   17.2972   26.7931 H   0  0  0  0  0  0  0  0  0  0  0  0
   20.4991   16.7481   24.7805 N   0  3  0  0  0  0  0  0  0  0  0  0
   19.5987   16.8626   24.3071 H   0  0  0  0  0  0  0  0  0  0  0  0
   20.3371   16.1827   25.6188 H   0  0  0  0  0  0  0  0  0  0  0  0
   21.1089   16.2096   24.1596 H   0  0  0  0  0  0  0  0  0  0  0  0
  1  2  1  0  0  0  0
  1  3  1  0  0  0  0
  1  4  1  0  0  0  0
  1  5  1  0  0  0  0
  5  6  1  0  0  0  0
  5  7  1  0  0  0  0
  5  8  1  0  0  0  0
  8  9  1  0  0  0  0
  8 10  1  0  0  0  0
  8 11  1  0  0  0  0
 11 12  1  0  0  0  0
 11 13  1  0  0  0  0
 11 14  1  0  0  0  0
 14 15  1  0  0  0  0
 14 16  1  0  0  0  0
 14 17  1  0  0  0  0
 17 18  1  0  0  0  0
 17 19  1  0  0  0  0
 17 20  1  0  0  0  0
 20 21  1  0  0  0  0
 20 22  1  0  0  0  0
 22 23  1  0  0  0  0
 22 24  1  0  0  0  0
 22 25  1  0  0  0  0
 20 26  1  0  0  0  0
 26 27  1  0  0  0  0
 26 28  1  0  0  0  0
 26 29  1  0  0  0  0
M  END
> <VConfSearch Rank>
833

> <Conf_Id>
158

> <Delta U+W>
3.648

> <U+W>
-24.178

> <U>
28.057

> <W>
-52.235

> <W(PB)>
-54.696

> <W(SA)>
2.460

> <Valence>
6.543

> <Coulomb>
20.387

> <VdW>
1.127

> <VdW6>
-10.342

> <VdW12>
11.469

> <Bond>
0.308

> <Angle>
1.938

> <Pdih>
4.297

> <Idih>
0.000

> <Tether>
0.000

$$$$
VeraChem MOL file


 29 28  0  0  0  0  0  0  0  0999 V2000     
   18.6590   19.9762   20.1300 C   0  0  0  0  0  0  0  0  0  0  0  0
   19.1630   19.0824   19.7402 H   0  0  0  0  0  0  0  0  0  0  0  0
   17.9604   19.6627   20.9156 H   0  0  0  0  0  0  0  0  0  0  0  0
   18.0652   20.4092   19.3146 H   0  0  0  0  0  0  0  0  0  0  0  0
   19.6833   21.0060   20.6583 C   0  0  0  0  0  0  0  0  0  0  0  0
   19.1538   21.8756   21.0719 H   0  0  0  0  0  0  0  0  0  0  0  0
   20.2764   21.3808   19.8125 H   0  0  0  0  0  0  0  0  0  0  0  0
   20.6471   20.4255   21.7213 C   0  0  0  0  0  0  0  0  0  0  0  0
   21.1868   19.5678   21.2968 H   0  0  0  0  0  0  0  0  0  0  0  0
   21.4068   21.1842   21.9547 H   0  0  0  0  0  0  0  0  0  0  0  0
   19.9384   20.0006   23.0295 C   0  0  0  0  0  0  0  0  0  0  0  0
   19.2159   19.2053   22.8159 H   0  0  0  0  0  0  0  0  0  0  0  0
   19.3634   20.8494   23.4243 H   0  0  0  0  0  0  0  0  0  0  0  0
   20.9513   19.5254   24.1000 C   0  0  0  0  0  0  0  0  0  0  0  0
   21.5889   18.7258   23.6981 H   0  0  0  0  0  0  0  0  0  0  0  0
   21.6247   20.3630   24.3292 H   0  0  0  0  0  0  0  0  0  0  0  0
   20.2801   19.0591   25.4192 C   0  0  0  0  0  0  0  0  0  0  0  0
   19.3195   19.5720   25.5601 H   0  0  0  0  0  0  0  0  0  0  0  0
   20.9174   19.3847   26.2520 H   0  0  0  0  0  0  0  0  0  0  0  0
   20.0930   17.5281   25.5481 C   0  0  2  0  0  0  0  0  0  0  0  0
   21.0757   17.0562   25.4521 H   0  0  0  0  0  0  0  0  0  0  0  0
   19.1731   16.9441   24.4627 C   0  0  0  0  0  0  0  0  0  0  0  0
   18.1997   17.4499   24.4517 H   0  0  0  0  0  0  0  0  0  0  0  0
   19.6275   17.0387   23.4697 H   0  0  0  0  0  0  0  0  0  0  0  0
   18.9996   15.8750   24.6367 H   0  0  0  0  0  0  0  0  0  0  0  0
   19.5814   17.1619   26.9136 N   0  3  0  0  0  0  0  0  0  0  0  0
   20.2048   17.4991   27.6530 H   0  0  0  0  0  0  0  0  0  0  0  0
   19.5006   16.1469   27.0228 H   0  0  0  0  0  0  0  0  0  0  0  0
   18.6552   17.5624   27.0855 H   0  0  0  0  0  0  0  0  0  0  0  0
  1  2  1  0  0  0  0
  1  3  1  0  0  0  0
  1  4  1  0  0  0  0
  1  5  1  0  0  0  0
  5  6  1  0  0  0  0
  5  7  1  0  0  0  0
  5  8  1  0  0  0  0
  8  9  1  0  0  0  0
  8 10  1  0  0  0  0
  8 11  1  0  0  0  0
 11 12  1  0  0  0  0
 11 13  1  0  0  0  0
 11 14  1  0  0  0  0
 14 15  1  0  0  0  0
 14 16  1  0  0  0  0
 14 17  1  0  0  0  0
 17 18  1  0  0  0  0
 17 19  1  0  0  0  0
 17 20  1  0  0  0  0
 20 21  1  0  0  0  0
 20 22  1  0  0  0  0
 22 23  1  0  0  0  0
 22 24  1  0  0  0  0
 22 25  1  0  0  0  0
 20 26  1  0  0  0  0
 26 27  1  0  0  0  0
 26 28  1  0  0  0  0
 26 29  1  0  0  0  0
M  END
> <VConfSearch Rank>
834

> <Conf_Id>
156

> <Delta U+W>
3.393

> <U+W>
-24.433

> <U>
27.713

> <W>
-52.146

> <W(PB)>
-54.603

> <W(SA)>
2.458

> <Valence>
6.758

> <Coulomb>
19.720

> <VdW>
1.235

> <VdW6>
-9.782

> <VdW12>
11.017

> <Bond>
0.287

> <Angle>
1.880

> <Pdih>
4.591

> <Idih>
0.000

> <Tether>
0.000

$$$$
VeraChem MOL file


 29 28  0  0  0  0  0  0  0  0999 V2000     
   23.2402   19.6612   21.8645 C   0  0  0  0  0  0  0  0  0  0  0  0
   23.3820   20.4748   22.5877 H   0  0  0  0  0  0  0  0  0  0  0  0
   24.0929   18.9751   21.9498 H   0  0  0  0  0  0  0  0  0  0  0  0
   23.2588   20.0979   20.8576 H   0  0  0  0  0  0  0  0  0  0  0  0
   21.9075   18.9241   22.1140 C   0  0  0  0  0  0  0  0  0  0  0  0
   21.7791   18.1363   21.3587 H   0  0  0  0  0  0  0  0  0  0  0  0
   21.0790   19.6322   21.9809 H   0  0  0  0  0  0  0  0  0  0  0  0
   21.8558   18.3033   23.5298 C   0  0  0  0  0  0  0  0  0  0  0  0
   22.7348   17.6589   23.6684 H   0  0  0  0  0  0  0  0  0  0  0  0
   21.9425   19.0946   24.2859 H   0  0  0  0  0  0  0  0  0  0  0  0
   20.5846   17.4543   23.7909 C   0  0  0  0  0  0  0  0  0  0  0  0
   20.6430   17.0351   24.8048 H   0  0  0  0  0  0  0  0  0  0  0  0
   20.5887   16.5921   23.1098 H   0  0  0  0  0  0  0  0  0  0  0  0
   19.2362   18.2040   23.6338 C   0  0  0  0  0  0  0  0  0  0  0  0
   19.1110   18.5225   22.5914 H   0  0  0  0  0  0  0  0  0  0  0  0
   18.4301   17.4854   23.8298 H   0  0  0  0  0  0  0  0  0  0  0  0
   19.0918   19.4204   24.5887 C   0  0  0  0  0  0  0  0  0  0  0  0
   19.8803   20.1517   24.3730 H   0  0  0  0  0  0  0  0  0  0  0  0
   19.2569   19.0919   25.6232 H   0  0  0  0  0  0  0  0  0  0  0  0
   17.7315   20.1526   24.5089 C   0  0  2  0  0  0  0  0  0  0  0  0
   17.7851   21.0108   25.1860 H   0  0  0  0  0  0  0  0  0  0  0  0
   16.5650   19.2653   24.9777 C   0  0  0  0  0  0  0  0  0  0  0  0
   15.6411   19.8526   25.0466 H   0  0  0  0  0  0  0  0  0  0  0  0
   16.3819   18.4349   24.2859 H   0  0  0  0  0  0  0  0  0  0  0  0
   16.7679   18.8474   25.9716 H   0  0  0  0  0  0  0  0  0  0  0  0
   17.4632   20.7172   23.1411 N   0  3  0  0  0  0  0  0  0  0  0  0
   18.2127   21.3473   22.8416 H   0  0  0  0  0  0  0  0  0  0  0  0
   16.5889   21.2500   23.1217 H   0  0  0  0  0  0  0  0  0  0  0  0
   17.3857   19.9741   22.4423 H   0  0  0  0  0  0  0  0  0  0  0  0
  1  2  1  0  0  0  0
  1  3  1  0  0  0  0
  1  4  1  0  0  0  0
  1  5  1  0  0  0  0
  5  6  1  0  0  0  0
  5  7  1  0  0  0  0
  5  8  1  0  0  0  0
  8  9  1  0  0  0  0
  8 10  1  0  0  0  0
  8 11  1  0  0  0  0
 11 12  1  0  0  0  0
 11 13  1  0  0  0  0
 11 14  1  0  0  0  0
 14 15  1  0  0  0  0
 14 16  1  0  0  0  0
 14 17  1  0  0  0  0
 17 18  1  0  0  0  0
 17 19  1  0  0  0  0
 17 20  1  0  0  0  0
 20 21  1  0  0  0  0
 20 22  1  0  0  0  0
 22 23  1  0  0  0  0
 22 24  1  0  0  0  0
 22 25  1  0  0  0  0
 20 26  1  0  0  0  0
 26 27  1  0  0  0  0
 26 28  1  0  0  0  0
 26 29  1  0  0  0  0
M  END
> <VConfSearch Rank>
835

> <Conf_Id>
78

> <Delta U+W>
1.477

> <U+W>
-26.349

> <U>
26.385

> <W>
-52.734

> <W(PB)>
-55.179

> <W(SA)>
2.445

> <Valence>
4.726

> <Coulomb>
20.482

> <VdW>
1.177

> <VdW6>
-10.349

> <VdW12>
11.526

> <Bond>
0.319

> <Angle>
1.933

> <Pdih>
2.474

> <Idih>
0.000

> <Tether>
0.000

$$$$
VeraChem MOL file


 29 28  0  0  0  0  0  0  0  0999 V2000     
   22.2057   16.8256   25.2815 C   0  0  0  0  0  0  0  0  0  0  0  0
   23.1079   17.3991   25.5306 H   0  0  0  0  0  0  0  0  0  0  0  0
   21.3477   17.3345   25.7344 H   0  0  0  0  0  0  0  0  0  0  0  0
   22.2965   15.8398   25.7556 H   0  0  0  0  0  0  0  0  0  0  0  0
   22.0526   16.6771   23.7498 C   0  0  0  0  0  0  0  0  0  0  0  0
   21.1918   16.0369   23.5117 H   0  0  0  0  0  0  0  0  0  0  0  0
   22.9374   16.1465   23.3711 H   0  0  0  0  0  0  0  0  0  0  0  0
   21.9361   18.0348   23.0102 C   0  0  0  0  0  0  0  0  0  0  0  0
   22.4629   18.8194   23.5706 H   0  0  0  0  0  0  0  0  0  0  0  0
   22.4678   17.9486   22.0524 H   0  0  0  0  0  0  0  0  0  0  0  0
   20.4858   18.4858   22.6986 C   0  0  0  0  0  0  0  0  0  0  0  0
   20.0052   17.7430   22.0471 H   0  0  0  0  0  0  0  0  0  0  0  0
   20.5429   19.4139   22.1153 H   0  0  0  0  0  0  0  0  0  0  0  0
   19.6069   18.7145   23.9529 C   0  0  0  0  0  0  0  0  0  0  0  0
   19.4862   17.7628   24.4857 H   0  0  0  0  0  0  0  0  0  0  0  0
   20.1163   19.3943   24.6482 H   0  0  0  0  0  0  0  0  0  0  0  0
   18.1907   19.2521   23.6202 C   0  0  0  0  0  0  0  0  0  0  0  0
   17.6194   19.3482   24.5530 H   0  0  0  0  0  0  0  0  0  0  0  0
   17.6661   18.4978   23.0190 H   0  0  0  0  0  0  0  0  0  0  0  0
   18.1559   20.6010   22.8631 C   0  0  2  0  0  0  0  0  0  0  0  0
   18.7116   20.4878   21.9278 H   0  0  0  0  0  0  0  0  0  0  0  0
   18.7982   21.7387   23.6764 C   0  0  0  0  0  0  0  0  0  0  0  0
   18.7141   22.6922   23.1406 H   0  0  0  0  0  0  0  0  0  0  0  0
   18.3110   21.8525   24.6528 H   0  0  0  0  0  0  0  0  0  0  0  0
   19.8657   21.5538   23.8438 H   0  0  0  0  0  0  0  0  0  0  0  0
   16.7505   20.9670   22.4748 N   0  3  0  0  0  0  0  0  0  0  0  0
   16.1572   21.0982   23.2985 H   0  0  0  0  0  0  0  0  0  0  0  0
   16.3179   20.2410   21.8963 H   0  0  0  0  0  0  0  0  0  0  0  0
   16.7256   21.8390   21.9384 H   0  0  0  0  0  0  0  0  0  0  0  0
  1  2  1  0  0  0  0
  1  3  1  0  0  0  0
  1  4  1  0  0  0  0
  1  5  1  0  0  0  0
  5  6  1  0  0  0  0
  5  7  1  0  0  0  0
  5  8  1  0  0  0  0
  8  9  1  0  0  0  0
  8 10  1  0  0  0  0
  8 11  1  0  0  0  0
 11 12  1  0  0  0  0
 11 13  1  0  0  0  0
 11 14  1  0  0  0  0
 14 15  1  0  0  0  0
 14 16  1  0  0  0  0
 14 17  1  0  0  0  0
 17 18  1  0  0  0  0
 17 19  1  0  0  0  0
 17 20  1  0  0  0  0
 20 21  1  0  0  0  0
 20 22  1  0  0  0  0
 22 23  1  0  0  0  0
 22 24  1  0  0  0  0
 22 25  1  0  0  0  0
 20 26  1  0  0  0  0
 26 27  1  0  0  0  0
 26 28  1  0  0  0  0
 26 29  1  0  0  0  0
M  END
> <VConfSearch Rank>
836

> <Conf_Id>
145

> <Delta U+W>
3.784

> <U+W>
-24.042

> <U>
28.220

> <W>
-52.262

> <W(PB)>
-54.724

> <W(SA)>
2.462

> <Valence>
7.040

> <Coulomb>
19.984

> <VdW>
1.197

> <VdW6>
-10.566

> <VdW12>
11.763

> <Bond>
0.320

> <Angle>
2.280

> <Pdih>
4.439

> <Idih>
0.000

> <Tether>
0.000

$$$$
VeraChem MOL file


 29 28  0  0  0  0  0  0  0  0999 V2000     
   18.1638   17.8294   26.8638 C   0  0  0  0  0  0  0  0  0  0  0  0
   17.3647   18.3456   27.4118 H   0  0  0  0  0  0  0  0  0  0  0  0
   17.6974   17.1418   26.1462 H   0  0  0  0  0  0  0  0  0  0  0  0
   18.7333   17.2288   27.5848 H   0  0  0  0  0  0  0  0  0  0  0  0
   19.0855   18.8378   26.1461 C   0  0  0  0  0  0  0  0  0  0  0  0
   19.8951   18.2924   25.6465 H   0  0  0  0  0  0  0  0  0  0  0  0
   19.5623   19.4874   26.8934 H   0  0  0  0  0  0  0  0  0  0  0  0
   18.3014   19.7050   25.1319 C   0  0  0  0  0  0  0  0  0  0  0  0
   17.7622   19.0676   24.4178 H   0  0  0  0  0  0  0  0  0  0  0  0
   17.5302   20.2607   25.6832 H   0  0  0  0  0  0  0  0  0  0  0  0
   19.1921   20.7230   24.3729 C   0  0  0  0  0  0  0  0  0  0  0  0
   20.0599   21.0025   24.9861 H   0  0  0  0  0  0  0  0  0  0  0  0
   18.6151   21.6486   24.2393 H   0  0  0  0  0  0  0  0  0  0  0  0
   19.6586   20.2581   22.9692 C   0  0  0  0  0  0  0  0  0  0  0  0
   18.7765   20.0881   22.3378 H   0  0  0  0  0  0  0  0  0  0  0  0
   20.2108   21.0876   22.5097 H   0  0  0  0  0  0  0  0  0  0  0  0
   20.5464   18.9851   22.9851 C   0  0  0  0  0  0  0  0  0  0  0  0
   19.9585   18.1399   23.3628 H   0  0  0  0  0  0  0  0  0  0  0  0
   21.3751   19.1260   23.6914 H   0  0  0  0  0  0  0  0  0  0  0  0
   21.1266   18.5781   21.6099 C   0  0  2  0  0  0  0  0  0  0  0  0
   21.6620   17.6340   21.7508 H   0  0  0  0  0  0  0  0  0  0  0  0
   22.1385   19.6079   21.0776 C   0  0  0  0  0  0  0  0  0  0  0  0
   22.6368   19.2252   20.1785 H   0  0  0  0  0  0  0  0  0  0  0  0
   21.6548   20.5555   20.8131 H   0  0  0  0  0  0  0  0  0  0  0  0
   22.9147   19.8144   21.8249 H   0  0  0  0  0  0  0  0  0  0  0  0
   20.0536   18.3011   20.5932 N   0  3  0  0  0  0  0  0  0  0  0  0
   19.5074   19.1426   20.3928 H   0  0  0  0  0  0  0  0  0  0  0  0
   19.4032   17.5810   20.9204 H   0  0  0  0  0  0  0  0  0  0  0  0
   20.4522   17.9750   19.7081 H   0  0  0  0  0  0  0  0  0  0  0  0
  1  2  1  0  0  0  0
  1  3  1  0  0  0  0
  1  4  1  0  0  0  0
  1  5  1  0  0  0  0
  5  6  1  0  0  0  0
  5  7  1  0  0  0  0
  5  8  1  0  0  0  0
  8  9  1  0  0  0  0
  8 10  1  0  0  0  0
  8 11  1  0  0  0  0
 11 12  1  0  0  0  0
 11 13  1  0  0  0  0
 11 14  1  0  0  0  0
 14 15  1  0  0  0  0
 14 16  1  0  0  0  0
 14 17  1  0  0  0  0
 17 18  1  0  0  0  0
 17 19  1  0  0  0  0
 17 20  1  0  0  0  0
 20 21  1  0  0  0  0
 20 22  1  0  0  0  0
 22 23  1  0  0  0  0
 22 24  1  0  0  0  0
 22 25  1  0  0  0  0
 20 26  1  0  0  0  0
 26 27  1  0  0  0  0
 26 28  1  0  0  0  0
 26 29  1  0  0  0  0
M  END
> <VConfSearch Rank>
837

> <Conf_Id>
71

> <Delta U+W>
3.542

> <U+W>
-24.284

> <U>
28.217

> <W>
-52.501

> <W(PB)>
-54.947

> <W(SA)>
2.446

> <Valence>
6.821

> <Coulomb>
20.147

> <VdW>
1.249

> <VdW6>
-10.237

> <VdW12>
11.486

> <Bond>
0.317

> <Angle>
1.990

> <Pdih>
4.515

> <Idih>
0.000

> <Tether>
0.000

$$$$
VeraChem MOL file


 29 28  0  0  0  0  0  0  0  0999 V2000     
   19.7160   22.9891   22.7085 C   0  0  0  0  0  0  0  0  0  0  0  0
   20.1041   22.6260   21.7479 H   0  0  0  0  0  0  0  0  0  0  0  0
   18.7951   23.5541   22.5139 H   0  0  0  0  0  0  0  0  0  0  0  0
   20.4547   23.6834   23.1297 H   0  0  0  0  0  0  0  0  0  0  0  0
   19.4539   21.8178   23.6786 C   0  0  0  0  0  0  0  0  0  0  0  0
   19.0998   22.2163   24.6396 H   0  0  0  0  0  0  0  0  0  0  0  0
   20.4004   21.3038   23.8845 H   0  0  0  0  0  0  0  0  0  0  0  0
   18.4062   20.8307   23.1100 C   0  0  0  0  0  0  0  0  0  0  0  0
   17.4695   21.3826   22.9507 H   0  0  0  0  0  0  0  0  0  0  0  0
   18.7168   20.4699   22.1198 H   0  0  0  0  0  0  0  0  0  0  0  0
   18.1144   19.6304   24.0481 C   0  0  0  0  0  0  0  0  0  0  0  0
   17.0457   19.3875   23.9688 H   0  0  0  0  0  0  0  0  0  0  0  0
   18.2746   19.9172   25.0965 H   0  0  0  0  0  0  0  0  0  0  0  0
   18.9104   18.3412   23.7190 C   0  0  0  0  0  0  0  0  0  0  0  0
   18.5601   17.5469   24.3908 H   0  0  0  0  0  0  0  0  0  0  0  0
   18.6564   18.0171   22.7010 H   0  0  0  0  0  0  0  0  0  0  0  0
   20.4487   18.4935   23.8538 C   0  0  0  0  0  0  0  0  0  0  0  0
   20.6847   18.9481   24.8247 H   0  0  0  0  0  0  0  0  0  0  0  0
   20.8136   19.1898   23.0885 H   0  0  0  0  0  0  0  0  0  0  0  0
   21.2460   17.1743   23.7228 C   0  0  2  0  0  0  0  0  0  0  0  0
   22.3058   17.4223   23.8367 H   0  0  0  0  0  0  0  0  0  0  0  0
   21.0652   16.5253   22.3396 C   0  0  0  0  0  0  0  0  0  0  0  0
   21.2989   17.2396   21.5404 H   0  0  0  0  0  0  0  0  0  0  0  0
   21.7397   15.6677   22.2271 H   0  0  0  0  0  0  0  0  0  0  0  0
   20.0395   16.1668   22.1915 H   0  0  0  0  0  0  0  0  0  0  0  0
   20.9274   16.1982   24.8218 N   0  3  0  0  0  0  0  0  0  0  0  0
   21.0864   16.6089   25.7464 H   0  0  0  0  0  0  0  0  0  0  0  0
   21.5089   15.3579   24.7559 H   0  0  0  0  0  0  0  0  0  0  0  0
   19.9500   15.8991   24.7812 H   0  0  0  0  0  0  0  0  0  0  0  0
  1  2  1  0  0  0  0
  1  3  1  0  0  0  0
  1  4  1  0  0  0  0
  1  5  1  0  0  0  0
  5  6  1  0  0  0  0
  5  7  1  0  0  0  0
  5  8  1  0  0  0  0
  8  9  1  0  0  0  0
  8 10  1  0  0  0  0
  8 11  1  0  0  0  0
 11 12  1  0  0  0  0
 11 13  1  0  0  0  0
 11 14  1  0  0  0  0
 14 15  1  0  0  0  0
 14 16  1  0  0  0  0
 14 17  1  0  0  0  0
 17 18  1  0  0  0  0
 17 19  1  0  0  0  0
 17 20  1  0  0  0  0
 20 21  1  0  0  0  0
 20 22  1  0  0  0  0
 22 23  1  0  0  0  0
 22 24  1  0  0  0  0
 22 25  1  0  0  0  0
 20 26  1  0  0  0  0
 26 27  1  0  0  0  0
 26 28  1  0  0  0  0
 26 29  1  0  0  0  0
M  END
> <VConfSearch Rank>
838

> <Conf_Id>
163

> <Delta U+W>
3.309

> <U+W>
-24.517

> <U>
27.916

> <W>
-52.433

> <W(PB)>
-54.866

> <W(SA)>
2.433

> <Valence>
6.693

> <Coulomb>
20.015

> <VdW>
1.208

> <VdW6>
-10.294

> <VdW12>
11.503

> <Bond>
0.312

> <Angle>
1.939

> <Pdih>
4.441

> <Idih>
0.000

> <Tether>
0.000

$$$$
VeraChem MOL file


 29 28  0  0  0  0  0  0  0  0999 V2000     
   19.3262   22.2406   25.9957 C   0  0  0  0  0  0  0  0  0  0  0  0
   19.3471   23.1110   25.3272 H   0  0  0  0  0  0  0  0  0  0  0  0
   18.3151   21.8157   25.9764 H   0  0  0  0  0  0  0  0  0  0  0  0
   19.5137   22.5972   27.0168 H   0  0  0  0  0  0  0  0  0  0  0  0
   20.3900   21.1978   25.5839 C   0  0  0  0  0  0  0  0  0  0  0  0
   20.3255   20.3223   26.2449 H   0  0  0  0  0  0  0  0  0  0  0  0
   21.3875   21.6304   25.7435 H   0  0  0  0  0  0  0  0  0  0  0  0
   20.2759   20.7487   24.1070 C   0  0  0  0  0  0  0  0  0  0  0  0
   20.3449   21.6265   23.4500 H   0  0  0  0  0  0  0  0  0  0  0  0
   21.1453   20.1195   23.8771 H   0  0  0  0  0  0  0  0  0  0  0  0
   18.9741   19.9662   23.7995 C   0  0  0  0  0  0  0  0  0  0  0  0
   18.1062   20.5968   24.0313 H   0  0  0  0  0  0  0  0  0  0  0  0
   18.9014   19.0949   24.4636 H   0  0  0  0  0  0  0  0  0  0  0  0
   18.8549   19.5202   22.3189 C   0  0  0  0  0  0  0  0  0  0  0  0
   17.8841   19.0274   22.1748 H   0  0  0  0  0  0  0  0  0  0  0  0
   18.8310   20.4123   21.6779 H   0  0  0  0  0  0  0  0  0  0  0  0
   19.9857   18.5800   21.8221 C   0  0  0  0  0  0  0  0  0  0  0  0
   20.9279   19.1409   21.7776 H   0  0  0  0  0  0  0  0  0  0  0  0
   19.7691   18.2778   20.7889 H   0  0  0  0  0  0  0  0  0  0  0  0
   20.1858   17.3191   22.6915 C   0  0  2  0  0  0  0  0  0  0  0  0
   20.4037   17.6383   23.7151 H   0  0  0  0  0  0  0  0  0  0  0  0
   21.3807   16.4994   22.1800 C   0  0  0  0  0  0  0  0  0  0  0  0
   21.5506   15.6222   22.8165 H   0  0  0  0  0  0  0  0  0  0  0  0
   21.2122   16.1497   21.1537 H   0  0  0  0  0  0  0  0  0  0  0  0
   22.2984   17.1006   22.1900 H   0  0  0  0  0  0  0  0  0  0  0  0
   18.9473   16.4683   22.7564 N   0  3  0  0  0  0  0  0  0  0  0  0
   18.1527   16.9982   23.1246 H   0  0  0  0  0  0  0  0  0  0  0  0
   19.0830   15.6538   23.3619 H   0  0  0  0  0  0  0  0  0  0  0  0
   18.6847   16.1221   21.8298 H   0  0  0  0  0  0  0  0  0  0  0  0
  1  2  1  0  0  0  0
  1  3  1  0  0  0  0
  1  4  1  0  0  0  0
  1  5  1  0  0  0  0
  5  6  1  0  0  0  0
  5  7  1  0  0  0  0
  5  8  1  0  0  0  0
  8  9  1  0  0  0  0
  8 10  1  0  0  0  0
  8 11  1  0  0  0  0
 11 12  1  0  0  0  0
 11 13  1  0  0  0  0
 11 14  1  0  0  0  0
 14 15  1  0  0  0  0
 14 16  1  0  0  0  0
 14 17  1  0  0  0  0
 17 18  1  0  0  0  0
 17 19  1  0  0  0  0
 17 20  1  0  0  0  0
 20 21  1  0  0  0  0
 20 22  1  0  0  0  0
 22 23  1  0  0  0  0
 22 24  1  0  0  0  0
 22 25  1  0  0  0  0
 20 26  1  0  0  0  0
 26 27  1  0  0  0  0
 26 28  1  0  0  0  0
 26 29  1  0  0  0  0
M  END
> <VConfSearch Rank>
839

> <Conf_Id>
173

> <Delta U+W>
1.363

> <U+W>
-26.462

> <U>
25.816

> <W>
-52.279

> <W(PB)>
-54.727

> <W(SA)>
2.449

> <Valence>
4.504

> <Coulomb>
20.342

> <VdW>
0.971

> <VdW6>
-10.532

> <VdW12>
11.503

> <Bond>
0.307

> <Angle>
1.715

> <Pdih>
2.481

> <Idih>
0.000

> <Tether>
0.000

$$$$
VeraChem MOL file


 29 28  0  0  0  0  0  0  0  0999 V2000     
   23.6091   18.4194   23.1943 C   0  0  0  0  0  0  0  0  0  0  0  0
   23.7292   18.6641   22.1308 H   0  0  0  0  0  0  0  0  0  0  0  0
   24.3742   18.9670   23.7599 H   0  0  0  0  0  0  0  0  0  0  0  0
   23.8032   17.3460   23.3174 H   0  0  0  0  0  0  0  0  0  0  0  0
   22.1913   18.7767   23.6884 C   0  0  0  0  0  0  0  0  0  0  0  0
   22.0928   18.4966   24.7463 H   0  0  0  0  0  0  0  0  0  0  0  0
   21.4603   18.1820   23.1249 H   0  0  0  0  0  0  0  0  0  0  0  0
   21.8901   20.2829   23.5153 C   0  0  0  0  0  0  0  0  0  0  0  0
   22.6965   20.8641   23.9835 H   0  0  0  0  0  0  0  0  0  0  0  0
   21.9110   20.5380   22.4468 H   0  0  0  0  0  0  0  0  0  0  0  0
   20.5414   20.7419   24.1276 C   0  0  0  0  0  0  0  0  0  0  0  0
   20.4626   21.8273   23.9760 H   0  0  0  0  0  0  0  0  0  0  0  0
   20.5520   20.5959   25.2164 H   0  0  0  0  0  0  0  0  0  0  0  0
   19.2875   20.0743   23.5050 C   0  0  0  0  0  0  0  0  0  0  0  0
   18.4877   20.8252   23.4594 H   0  0  0  0  0  0  0  0  0  0  0  0
   19.5002   19.7919   22.4660 H   0  0  0  0  0  0  0  0  0  0  0  0
   18.7758   18.8556   24.3225 C   0  0  0  0  0  0  0  0  0  0  0  0
   18.5237   19.1893   25.3376 H   0  0  0  0  0  0  0  0  0  0  0  0
   19.5753   18.1165   24.4447 H   0  0  0  0  0  0  0  0  0  0  0  0
   17.5393   18.1446   23.7242 C   0  0  2  0  0  0  0  0  0  0  0  0
   17.2489   17.3546   24.4238 H   0  0  0  0  0  0  0  0  0  0  0  0
   17.8552   17.4757   22.3749 C   0  0  0  0  0  0  0  0  0  0  0  0
   18.7263   16.8146   22.4617 H   0  0  0  0  0  0  0  0  0  0  0  0
   17.0067   16.8653   22.0421 H   0  0  0  0  0  0  0  0  0  0  0  0
   18.0616   18.2155   21.5926 H   0  0  0  0  0  0  0  0  0  0  0  0
   16.3494   19.0570   23.6088 N   0  3  0  0  0  0  0  0  0  0  0  0
   16.1052   19.4714   24.5128 H   0  0  0  0  0  0  0  0  0  0  0  0
   15.5243   18.5547   23.2690 H   0  0  0  0  0  0  0  0  0  0  0  0
   16.5323   19.8239   22.9569 H   0  0  0  0  0  0  0  0  0  0  0  0
  1  2  1  0  0  0  0
  1  3  1  0  0  0  0
  1  4  1  0  0  0  0
  1  5  1  0  0  0  0
  5  6  1  0  0  0  0
  5  7  1  0  0  0  0
  5  8  1  0  0  0  0
  8  9  1  0  0  0  0
  8 10  1  0  0  0  0
  8 11  1  0  0  0  0
 11 12  1  0  0  0  0
 11 13  1  0  0  0  0
 11 14  1  0  0  0  0
 14 15  1  0  0  0  0
 14 16  1  0  0  0  0
 14 17  1  0  0  0  0
 17 18  1  0  0  0  0
 17 19  1  0  0  0  0
 17 20  1  0  0  0  0
 20 21  1  0  0  0  0
 20 22  1  0  0  0  0
 22 23  1  0  0  0  0
 22 24  1  0  0  0  0
 22 25  1  0  0  0  0
 20 26  1  0  0  0  0
 26 27  1  0  0  0  0
 26 28  1  0  0  0  0
 26 29  1  0  0  0  0
M  END
> <VConfSearch Rank>
840

> <Conf_Id>
117

> <Delta U+W>
3.377

> <U+W>
-24.449

> <U>
27.947

> <W>
-52.396

> <W(PB)>
-54.842

> <W(SA)>
2.447

> <Valence>
6.731

> <Coulomb>
20.067

> <VdW>
1.149

> <VdW6>
-10.427

> <VdW12>
11.575

> <Bond>
0.324

> <Angle>
1.943

> <Pdih>
4.465

> <Idih>
0.000

> <Tether>
0.000

$$$$
VeraChem MOL file


 29 28  0  0  0  0  0  0  0  0999 V2000     
   22.7875   20.7061   20.0732 C   0  0  0  0  0  0  0  0  0  0  0  0
   23.6773   20.5153   20.6873 H   0  0  0  0  0  0  0  0  0  0  0  0
   22.6382   19.8438   19.4103 H   0  0  0  0  0  0  0  0  0  0  0  0
   22.9931   21.5825   19.4450 H   0  0  0  0  0  0  0  0  0  0  0  0
   21.5454   20.9481   20.9566 C   0  0  0  0  0  0  0  0  0  0  0  0
   20.6800   21.1693   20.3162 H   0  0  0  0  0  0  0  0  0  0  0  0
   21.7111   21.8356   21.5834 H   0  0  0  0  0  0  0  0  0  0  0  0
   21.2337   19.7284   21.8516 C   0  0  0  0  0  0  0  0  0  0  0  0
   21.0711   18.8434   21.2209 H   0  0  0  0  0  0  0  0  0  0  0  0
   22.1023   19.5099   22.4881 H   0  0  0  0  0  0  0  0  0  0  0  0
   19.9904   19.9671   22.7377 C   0  0  0  0  0  0  0  0  0  0  0  0
   19.1229   20.1868   22.1000 H   0  0  0  0  0  0  0  0  0  0  0  0
   20.1539   20.8520   23.3683 H   0  0  0  0  0  0  0  0  0  0  0  0
   19.6784   18.7462   23.6324 C   0  0  0  0  0  0  0  0  0  0  0  0
   19.5115   17.8625   23.0008 H   0  0  0  0  0  0  0  0  0  0  0  0
   20.5518   18.5292   24.2616 H   0  0  0  0  0  0  0  0  0  0  0  0
   18.4334   18.9885   24.5198 C   0  0  0  0  0  0  0  0  0  0  0  0
   17.5854   19.2570   23.8757 H   0  0  0  0  0  0  0  0  0  0  0  0
   18.6095   19.8477   25.1806 H   0  0  0  0  0  0  0  0  0  0  0  0
   18.0458   17.7550   25.3638 C   0  0  2  0  0  0  0  0  0  0  0  0
   17.8994   16.9081   24.6863 H   0  0  0  0  0  0  0  0  0  0  0  0
   16.7262   18.0106   26.1092 C   0  0  0  0  0  0  0  0  0  0  0  0
   16.4260   17.1247   26.6822 H   0  0  0  0  0  0  0  0  0  0  0  0
   16.8206   18.8529   26.8060 H   0  0  0  0  0  0  0  0  0  0  0  0
   15.9179   18.2399   25.4035 H   0  0  0  0  0  0  0  0  0  0  0  0
   19.1276   17.3552   26.3296 N   0  3  0  0  0  0  0  0  0  0  0  0
   20.0016   17.1385   25.8429 H   0  0  0  0  0  0  0  0  0  0  0  0
   18.8617   16.5246   26.8663 H   0  0  0  0  0  0  0  0  0  0  0  0
   19.3245   18.1034   26.9996 H   0  0  0  0  0  0  0  0  0  0  0  0
  1  2  1  0  0  0  0
  1  3  1  0  0  0  0
  1  4  1  0  0  0  0
  1  5  1  0  0  0  0
  5  6  1  0  0  0  0
  5  7  1  0  0  0  0
  5  8  1  0  0  0  0
  8  9  1  0  0  0  0
  8 10  1  0  0  0  0
  8 11  1  0  0  0  0
 11 12  1  0  0  0  0
 11 13  1  0  0  0  0
 11 14  1  0  0  0  0
 14 15  1  0  0  0  0
 14 16  1  0  0  0  0
 14 17  1  0  0  0  0
 17 18  1  0  0  0  0
 17 19  1  0  0  0  0
 17 20  1  0  0  0  0
 20 21  1  0  0  0  0
 20 22  1  0  0  0  0
 22 23  1  0  0  0  0
 22 24  1  0  0  0  0
 22 25  1  0  0  0  0
 20 26  1  0  0  0  0
 26 27  1  0  0  0  0
 26 28  1  0  0  0  0
 26 29  1  0  0  0  0
M  END
> <VConfSearch Rank>
841

> <Conf_Id>
164

> <Delta U+W>
0.000

> <U+W>
-27.826

> <U>
23.963

> <W>
-51.789

> <W(PB)>
-54.342

> <W(SA)>
2.554

> <Valence>
3.166

> <Coulomb>
19.734

> <VdW>
1.062

> <VdW6>
-7.938

> <VdW12>
9.001

> <Bond>
0.188

> <Angle>
0.880

> <Pdih>
2.098

> <Idih>
0.000

> <Tether>
0.000

$$$$
VeraChem MOL file


 29 28  0  0  0  0  0  0  0  0999 V2000     
   16.3982   22.1598   21.9489 C   0  0  0  0  0  0  0  0  0  0  0  0
   15.7189   21.9805   22.7925 H   0  0  0  0  0  0  0  0  0  0  0  0
   17.0013   23.0480   22.1783 H   0  0  0  0  0  0  0  0  0  0  0  0
   15.7866   22.3865   21.0659 H   0  0  0  0  0  0  0  0  0  0  0  0
   17.2961   20.9318   21.6891 C   0  0  0  0  0  0  0  0  0  0  0  0
   17.9398   21.1281   20.8201 H   0  0  0  0  0  0  0  0  0  0  0  0
   16.6672   20.0687   21.4295 H   0  0  0  0  0  0  0  0  0  0  0  0
   18.1682   20.5909   22.9176 C   0  0  0  0  0  0  0  0  0  0  0  0
   18.7931   21.4573   23.1747 H   0  0  0  0  0  0  0  0  0  0  0  0
   17.5206   20.3977   23.7841 H   0  0  0  0  0  0  0  0  0  0  0  0
   19.0689   19.3616   22.6612 C   0  0  0  0  0  0  0  0  0  0  0  0
   19.7163   19.5556   21.7949 H   0  0  0  0  0  0  0  0  0  0  0  0
   18.4425   18.4965   22.4029 H   0  0  0  0  0  0  0  0  0  0  0  0
   19.9408   19.0206   23.8909 C   0  0  0  0  0  0  0  0  0  0  0  0
   20.5557   19.8937   24.1455 H   0  0  0  0  0  0  0  0  0  0  0  0
   19.2930   18.8216   24.7558 H   0  0  0  0  0  0  0  0  0  0  0  0
   20.8457   17.7914   23.6297 C   0  0  0  0  0  0  0  0  0  0  0  0
   21.5400   18.0105   22.8075 H   0  0  0  0  0  0  0  0  0  0  0  0
   20.2148   16.9590   23.2907 H   0  0  0  0  0  0  0  0  0  0  0  0
   21.6404   17.3277   24.8718 C   0  0  2  0  0  0  0  0  0  0  0  0
   20.9320   17.1562   25.6881 H   0  0  0  0  0  0  0  0  0  0  0  0
   22.6672   18.3789   25.3300 C   0  0  0  0  0  0  0  0  0  0  0  0
   23.3637   18.6322   24.5210 H   0  0  0  0  0  0  0  0  0  0  0  0
   22.1744   19.3003   25.6610 H   0  0  0  0  0  0  0  0  0  0  0  0
   23.2530   18.0026   26.1777 H   0  0  0  0  0  0  0  0  0  0  0  0
   22.3219   16.0117   24.6185 N   0  3  0  0  0  0  0  0  0  0  0  0
   22.8173   15.6807   25.4514 H   0  0  0  0  0  0  0  0  0  0  0  0
   23.0092   16.0856   23.8635 H   0  0  0  0  0  0  0  0  0  0  0  0
   21.6512   15.2843   24.3541 H   0  0  0  0  0  0  0  0  0  0  0  0
  1  2  1  0  0  0  0
  1  3  1  0  0  0  0
  1  4  1  0  0  0  0
  1  5  1  0  0  0  0
  5  6  1  0  0  0  0
  5  7  1  0  0  0  0
  5  8  1  0  0  0  0
  8  9  1  0  0  0  0
  8 10  1  0  0  0  0
  8 11  1  0  0  0  0
 11 12  1  0  0  0  0
 11 13  1  0  0  0  0
 11 14  1  0  0  0  0
 14 15  1  0  0  0  0
 14 16  1  0  0  0  0
 14 17  1  0  0  0  0
 17 18  1  0  0  0  0
 17 19  1  0  0  0  0
 17 20  1  0  0  0  0
 20 21  1  0  0  0  0
 20 22  1  0  0  0  0
 22 23  1  0  0  0  0
 22 24  1  0  0  0  0
 22 25  1  0  0  0  0
 20 26  1  0  0  0  0
 26 27  1  0  0  0  0
 26 28  1  0  0  0  0
 26 29  1  0  0  0  0
M  END
> <VConfSearch Rank>
842

> <Conf_Id>
58

> <Delta U+W>
0.412

> <U+W>
-27.414

> <U>
24.279

> <W>
-51.694

> <W(PB)>
-54.271

> <W(SA)>
2.577

> <Valence>
3.709

> <Coulomb>
19.380

> <VdW>
1.191

> <VdW6>
-8.093

> <VdW12>
9.284

> <Bond>
0.200

> <Angle>
1.161

> <Pdih>
2.348

> <Idih>
0.000

> <Tether>
0.000

$$$$
VeraChem MOL file


 29 28  0  0  0  0  0  0  0  0999 V2000     
   22.1354   22.9268   22.1802 C   0  0  0  0  0  0  0  0  0  0  0  0
   21.5858   23.5761   22.8741 H   0  0  0  0  0  0  0  0  0  0  0  0
   23.0477   22.5821   22.6843 H   0  0  0  0  0  0  0  0  0  0  0  0
   22.4364   23.5343   21.3168 H   0  0  0  0  0  0  0  0  0  0  0  0
   21.2659   21.7337   21.7304 C   0  0  0  0  0  0  0  0  0  0  0  0
   21.8296   21.1220   21.0121 H   0  0  0  0  0  0  0  0  0  0  0  0
   20.3789   22.1084   21.2005 H   0  0  0  0  0  0  0  0  0  0  0  0
   20.8283   20.8615   22.9278 C   0  0  0  0  0  0  0  0  0  0  0  0
   21.7182   20.4911   23.4554 H   0  0  0  0  0  0  0  0  0  0  0  0
   20.2675   21.4778   23.6440 H   0  0  0  0  0  0  0  0  0  0  0  0
   19.9571   19.6658   22.4812 C   0  0  0  0  0  0  0  0  0  0  0  0
   20.5188   19.0508   21.7645 H   0  0  0  0  0  0  0  0  0  0  0  0
   19.0678   20.0373   21.9533 H   0  0  0  0  0  0  0  0  0  0  0  0
   19.5193   18.7934   23.6793 C   0  0  0  0  0  0  0  0  0  0  0  0
   20.4120   18.4269   24.2031 H   0  0  0  0  0  0  0  0  0  0  0  0
   18.9636   19.4175   24.3914 H   0  0  0  0  0  0  0  0  0  0  0  0
   18.6426   17.5974   23.2251 C   0  0  0  0  0  0  0  0  0  0  0  0
   19.1922   17.0112   22.4770 H   0  0  0  0  0  0  0  0  0  0  0  0
   17.7480   17.9769   22.7137 H   0  0  0  0  0  0  0  0  0  0  0  0
   18.1991   16.6458   24.3613 C   0  0  2  0  0  0  0  0  0  0  0  0
   17.6196   15.8390   23.9020 H   0  0  0  0  0  0  0  0  0  0  0  0
   17.2884   17.3489   25.3829 C   0  0  0  0  0  0  0  0  0  0  0  0
   16.8805   16.6225   26.0965 H   0  0  0  0  0  0  0  0  0  0  0  0
   17.8320   18.1104   25.9546 H   0  0  0  0  0  0  0  0  0  0  0  0
   16.4416   17.8339   24.8815 H   0  0  0  0  0  0  0  0  0  0  0  0
   19.3647   15.9850   25.0443 N   0  3  0  0  0  0  0  0  0  0  0  0
   19.9521   15.4770   24.3767 H   0  0  0  0  0  0  0  0  0  0  0  0
   19.0523   15.3128   25.7508 H   0  0  0  0  0  0  0  0  0  0  0  0
   19.9573   16.6730   25.5156 H   0  0  0  0  0  0  0  0  0  0  0  0
  1  2  1  0  0  0  0
  1  3  1  0  0  0  0
  1  4  1  0  0  0  0
  1  5  1  0  0  0  0
  5  6  1  0  0  0  0
  5  7  1  0  0  0  0
  5  8  1  0  0  0  0
  8  9  1  0  0  0  0
  8 10  1  0  0  0  0
  8 11  1  0  0  0  0
 11 12  1  0  0  0  0
 11 13  1  0  0  0  0
 11 14  1  0  0  0  0
 14 15  1  0  0  0  0
 14 16  1  0  0  0  0
 14 17  1  0  0  0  0
 17 18  1  0  0  0  0
 17 19  1  0  0  0  0
 17 20  1  0  0  0  0
 20 21  1  0  0  0  0
 20 22  1  0  0  0  0
 22 23  1  0  0  0  0
 22 24  1  0  0  0  0
 22 25  1  0  0  0  0
 20 26  1  0  0  0  0
 26 27  1  0  0  0  0
 26 28  1  0  0  0  0
 26 29  1  0  0  0  0
M  END
> <VConfSearch Rank>
843

> <Conf_Id>
137

> <Delta U+W>
0.280

> <U+W>
-27.546

> <U>
24.513

> <W>
-52.059

> <W(PB)>
-54.556

> <W(SA)>
2.497

> <Valence>
3.677

> <Coulomb>
19.662

> <VdW>
1.174

> <VdW6>
-8.569

> <VdW12>
9.743

> <Bond>
0.224

> <Angle>
1.211

> <Pdih>
2.243

> <Idih>
0.000

> <Tether>
0.000

$$$$
VeraChem MOL file


 29 28  0  0  0  0  0  0  0  0999 V2000     
   20.5334   18.5542   19.1674 C   0  0  0  0  0  0  0  0  0  0  0  0
   19.8568   17.7022   19.3140 H   0  0  0  0  0  0  0  0  0  0  0  0
   19.9325   19.4187   18.8564 H   0  0  0  0  0  0  0  0  0  0  0  0
   21.2160   18.3047   18.3447 H   0  0  0  0  0  0  0  0  0  0  0  0
   21.3239   18.8632   20.4565 C   0  0  0  0  0  0  0  0  0  0  0  0
   22.0160   19.6959   20.2683 H   0  0  0  0  0  0  0  0  0  0  0  0
   21.9397   17.9931   20.7241 H   0  0  0  0  0  0  0  0  0  0  0  0
   20.3859   19.2188   21.6312 C   0  0  0  0  0  0  0  0  0  0  0  0
   19.7745   20.0903   21.3597 H   0  0  0  0  0  0  0  0  0  0  0  0
   19.6946   18.3833   21.8006 H   0  0  0  0  0  0  0  0  0  0  0  0
   21.1781   19.5245   22.9253 C   0  0  0  0  0  0  0  0  0  0  0  0
   21.9227   20.3034   22.7101 H   0  0  0  0  0  0  0  0  0  0  0  0
   21.7441   18.6346   23.2335 H   0  0  0  0  0  0  0  0  0  0  0  0
   20.2919   20.0087   24.0996 C   0  0  0  0  0  0  0  0  0  0  0  0
   20.9573   20.3384   24.9077 H   0  0  0  0  0  0  0  0  0  0  0  0
   19.7204   20.8940   23.7882 H   0  0  0  0  0  0  0  0  0  0  0  0
   19.3235   18.9217   24.6348 C   0  0  0  0  0  0  0  0  0  0  0  0
   19.8955   18.0411   24.9559 H   0  0  0  0  0  0  0  0  0  0  0  0
   18.6721   18.5896   23.8176 H   0  0  0  0  0  0  0  0  0  0  0  0
   18.4223   19.4069   25.7937 C   0  0  2  0  0  0  0  0  0  0  0  0
   17.9099   20.3186   25.4716 H   0  0  0  0  0  0  0  0  0  0  0  0
   19.2284   19.7233   27.0665 C   0  0  0  0  0  0  0  0  0  0  0  0
   19.8157   18.8551   27.3904 H   0  0  0  0  0  0  0  0  0  0  0  0
   19.9144   20.5630   26.9074 H   0  0  0  0  0  0  0  0  0  0  0  0
   18.5579   20.0054   27.8877 H   0  0  0  0  0  0  0  0  0  0  0  0
   17.3464   18.4021   26.0996 N   0  3  0  0  0  0  0  0  0  0  0  0
   16.7665   18.2083   25.2780 H   0  0  0  0  0  0  0  0  0  0  0  0
   16.7230   18.7358   26.8403 H   0  0  0  0  0  0  0  0  0  0  0  0
   17.7439   17.5123   26.4127 H   0  0  0  0  0  0  0  0  0  0  0  0
  1  2  1  0  0  0  0
  1  3  1  0  0  0  0
  1  4  1  0  0  0  0
  1  5  1  0  0  0  0
  5  6  1  0  0  0  0
  5  7  1  0  0  0  0
  5  8  1  0  0  0  0
  8  9  1  0  0  0  0
  8 10  1  0  0  0  0
  8 11  1  0  0  0  0
 11 12  1  0  0  0  0
 11 13  1  0  0  0  0
 11 14  1  0  0  0  0
 14 15  1  0  0  0  0
 14 16  1  0  0  0  0
 14 17  1  0  0  0  0
 17 18  1  0  0  0  0
 17 19  1  0  0  0  0
 17 20  1  0  0  0  0
 20 21  1  0  0  0  0
 20 22  1  0  0  0  0
 22 23  1  0  0  0  0
 22 24  1  0  0  0  0
 22 25  1  0  0  0  0
 20 26  1  0  0  0  0
 26 27  1  0  0  0  0
 26 28  1  0  0  0  0
 26 29  1  0  0  0  0
M  END
> <VConfSearch Rank>
844

> <Conf_Id>
40

> <Delta U+W>
1.128

> <U+W>
-26.698

> <U>
25.442

> <W>
-52.140

> <W(PB)>
-54.658

> <W(SA)>
2.519

> <Valence>
4.343

> <Coulomb>
19.740

> <VdW>
1.360

> <VdW6>
-8.739

> <VdW12>
10.099

> <Bond>
0.251

> <Angle>
1.483

> <Pdih>
2.608

> <Idih>
0.000

> <Tether>
0.000

$$$$
VeraChem MOL file


 29 28  0  0  0  0  0  0  0  0999 V2000     
   17.2190   22.5843   22.8855 C   0  0  0  0  0  0  0  0  0  0  0  0
   18.1611   22.9172   22.4330 H   0  0  0  0  0  0  0  0  0  0  0  0
   16.6230   22.0833   22.1116 H   0  0  0  0  0  0  0  0  0  0  0  0
   16.6713   23.4812   23.2024 H   0  0  0  0  0  0  0  0  0  0  0  0
   17.4653   21.6480   24.0904 C   0  0  0  0  0  0  0  0  0  0  0  0
   16.5037   21.4493   24.5840 H   0  0  0  0  0  0  0  0  0  0  0  0
   18.0926   22.1589   24.8342 H   0  0  0  0  0  0  0  0  0  0  0  0
   18.1104   20.2958   23.7012 C   0  0  0  0  0  0  0  0  0  0  0  0
   18.1146   19.6554   24.5921 H   0  0  0  0  0  0  0  0  0  0  0  0
   17.4795   19.7895   22.9577 H   0  0  0  0  0  0  0  0  0  0  0  0
   19.5540   20.4361   23.1543 C   0  0  0  0  0  0  0  0  0  0  0  0
   20.1867   20.9372   23.8998 H   0  0  0  0  0  0  0  0  0  0  0  0
   19.5456   21.0860   22.2699 H   0  0  0  0  0  0  0  0  0  0  0  0
   20.1989   19.0879   22.7478 C   0  0  0  0  0  0  0  0  0  0  0  0
   19.5556   18.5785   22.0169 H   0  0  0  0  0  0  0  0  0  0  0  0
   21.1414   19.3074   22.2293 H   0  0  0  0  0  0  0  0  0  0  0  0
   20.4775   18.1451   23.9470 C   0  0  0  0  0  0  0  0  0  0  0  0
   19.5320   17.9037   24.4475 H   0  0  0  0  0  0  0  0  0  0  0  0
   21.1033   18.6606   24.6876 H   0  0  0  0  0  0  0  0  0  0  0  0
   21.1545   16.8220   23.5274 C   0  0  2  0  0  0  0  0  0  0  0  0
   20.5324   16.3455   22.7635 H   0  0  0  0  0  0  0  0  0  0  0  0
   21.2567   15.8695   24.7295 C   0  0  0  0  0  0  0  0  0  0  0  0
   21.7052   14.9140   24.4308 H   0  0  0  0  0  0  0  0  0  0  0  0
   21.8733   16.3021   25.5274 H   0  0  0  0  0  0  0  0  0  0  0  0
   20.2634   15.6555   25.1433 H   0  0  0  0  0  0  0  0  0  0  0  0
   22.5100   17.0366   22.9110 N   0  3  0  0  0  0  0  0  0  0  0  0
   23.1522   17.4855   23.5695 H   0  0  0  0  0  0  0  0  0  0  0  0
   22.4533   17.6319   22.0804 H   0  0  0  0  0  0  0  0  0  0  0  0
   22.9348   16.1501   22.6240 H   0  0  0  0  0  0  0  0  0  0  0  0
  1  2  1  0  0  0  0
  1  3  1  0  0  0  0
  1  4  1  0  0  0  0
  1  5  1  0  0  0  0
  5  6  1  0  0  0  0
  5  7  1  0  0  0  0
  5  8  1  0  0  0  0
  8  9  1  0  0  0  0
  8 10  1  0  0  0  0
  8 11  1  0  0  0  0
 11 12  1  0  0  0  0
 11 13  1  0  0  0  0
 11 14  1  0  0  0  0
 14 15  1  0  0  0  0
 14 16  1  0  0  0  0
 14 17  1  0  0  0  0
 17 18  1  0  0  0  0
 17 19  1  0  0  0  0
 17 20  1  0  0  0  0
 20 21  1  0  0  0  0
 20 22  1  0  0  0  0
 22 23  1  0  0  0  0
 22 24  1  0  0  0  0
 22 25  1  0  0  0  0
 20 26  1  0  0  0  0
 26 27  1  0  0  0  0
 26 28  1  0  0  0  0
 26 29  1  0  0  0  0
M  END
> <VConfSearch Rank>
845

> <Conf_Id>
134

> <Delta U+W>
1.228

> <U+W>
-26.598

> <U>
25.451

> <W>
-52.048

> <W(PB)>
-54.539

> <W(SA)>
2.490

> <Valence>
4.319

> <Coulomb>
19.732

> <VdW>
1.400

> <VdW6>
-9.173

> <VdW12>
10.573

> <Bond>
0.281

> <Angle>
1.459

> <Pdih>
2.580

> <Idih>
0.000

> <Tether>
0.000

$$$$
VeraChem MOL file


 29 28  0  0  0  0  0  0  0  0999 V2000     
   20.2806   23.3798   23.4948 C   0  0  0  0  0  0  0  0  0  0  0  0
   21.3347   23.0826   23.5564 H   0  0  0  0  0  0  0  0  0  0  0  0
   19.9980   23.4298   22.4353 H   0  0  0  0  0  0  0  0  0  0  0  0
   20.1992   24.3918   23.9120 H   0  0  0  0  0  0  0  0  0  0  0  0
   19.3673   22.4016   24.2681 C   0  0  0  0  0  0  0  0  0  0  0  0
   18.3474   22.8107   24.2847 H   0  0  0  0  0  0  0  0  0  0  0  0
   19.6916   22.3424   25.3164 H   0  0  0  0  0  0  0  0  0  0  0  0
   19.3211   20.9819   23.6530 C   0  0  0  0  0  0  0  0  0  0  0  0
   18.5507   20.4080   24.1837 H   0  0  0  0  0  0  0  0  0  0  0  0
   18.9944   21.0464   22.6061 H   0  0  0  0  0  0  0  0  0  0  0  0
   20.6743   20.2306   23.7338 C   0  0  0  0  0  0  0  0  0  0  0  0
   21.0001   20.1649   24.7810 H   0  0  0  0  0  0  0  0  0  0  0  0
   21.4447   20.8076   23.2064 H   0  0  0  0  0  0  0  0  0  0  0  0
   20.6306   18.8124   23.1132 C   0  0  0  0  0  0  0  0  0  0  0  0
   20.3193   18.8905   22.0631 H   0  0  0  0  0  0  0  0  0  0  0  0
   21.6510   18.4049   23.1057 H   0  0  0  0  0  0  0  0  0  0  0  0
   19.7030   17.8314   23.8757 C   0  0  0  0  0  0  0  0  0  0  0  0
   18.6561   18.1432   23.7718 H   0  0  0  0  0  0  0  0  0  0  0  0
   19.9416   17.8841   24.9462 H   0  0  0  0  0  0  0  0  0  0  0  0
   19.8441   16.3632   23.4141 C   0  0  2  0  0  0  0  0  0  0  0  0
   20.8981   16.0790   23.4912 H   0  0  0  0  0  0  0  0  0  0  0  0
   19.3927   16.1694   21.9554 C   0  0  0  0  0  0  0  0  0  0  0  0
   18.3553   16.4973   21.8142 H   0  0  0  0  0  0  0  0  0  0  0  0
   20.0288   16.7333   21.2632 H   0  0  0  0  0  0  0  0  0  0  0  0
   19.4577   15.1128   21.6680 H   0  0  0  0  0  0  0  0  0  0  0  0
   19.0868   15.4338   24.3213 N   0  3  0  0  0  0  0  0  0  0  0  0
   19.4017   15.5152   25.2924 H   0  0  0  0  0  0  0  0  0  0  0  0
   19.2101   14.4562   24.0422 H   0  0  0  0  0  0  0  0  0  0  0  0
   18.0826   15.6316   24.3056 H   0  0  0  0  0  0  0  0  0  0  0  0
  1  2  1  0  0  0  0
  1  3  1  0  0  0  0
  1  4  1  0  0  0  0
  1  5  1  0  0  0  0
  5  6  1  0  0  0  0
  5  7  1  0  0  0  0
  5  8  1  0  0  0  0
  8  9  1  0  0  0  0
  8 10  1  0  0  0  0
  8 11  1  0  0  0  0
 11 12  1  0  0  0  0
 11 13  1  0  0  0  0
 11 14  1  0  0  0  0
 14 15  1  0  0  0  0
 14 16  1  0  0  0  0
 14 17  1  0  0  0  0
 17 18  1  0  0  0  0
 17 19  1  0  0  0  0
 17 20  1  0  0  0  0
 20 21  1  0  0  0  0
 20 22  1  0  0  0  0
 22 23  1  0  0  0  0
 22 24  1  0  0  0  0
 22 25  1  0  0  0  0
 20 26  1  0  0  0  0
 26 27  1  0  0  0  0
 26 28  1  0  0  0  0
 26 29  1  0  0  0  0
M  END
> <VConfSearch Rank>
846

> <Conf_Id>
73

> <Delta U+W>
1.580

> <U+W>
-26.246

> <U>
25.821

> <W>
-52.067

> <W(PB)>
-54.581

> <W(SA)>
2.514

> <Valence>
4.779

> <Coulomb>
19.614

> <VdW>
1.428

> <VdW6>
-9.390

> <VdW12>
10.818

> <Bond>
0.283

> <Angle>
1.640

> <Pdih>
2.856

> <Idih>
0.000

> <Tether>
0.000

$$$$
VeraChem MOL file


 29 28  0  0  0  0  0  0  0  0999 V2000     
   24.1330   18.0400   24.0563 C   0  0  0  0  0  0  0  0  0  0  0  0
   24.2768   19.0218   23.5865 H   0  0  0  0  0  0  0  0  0  0  0  0
   24.9930   17.8510   24.7119 H   0  0  0  0  0  0  0  0  0  0  0  0
   24.1380   17.2784   23.2657 H   0  0  0  0  0  0  0  0  0  0  0  0
   22.8158   17.9970   24.8595 C   0  0  0  0  0  0  0  0  0  0  0  0
   22.8536   18.7464   25.6625 H   0  0  0  0  0  0  0  0  0  0  0  0
   22.7175   17.0161   25.3453 H   0  0  0  0  0  0  0  0  0  0  0  0
   21.5882   18.2593   23.9593 C   0  0  0  0  0  0  0  0  0  0  0  0
   21.7048   19.2366   23.4733 H   0  0  0  0  0  0  0  0  0  0  0  0
   21.5534   17.5063   23.1600 H   0  0  0  0  0  0  0  0  0  0  0  0
   20.2673   18.2210   24.7650 C   0  0  0  0  0  0  0  0  0  0  0  0
   20.2745   19.0124   25.5272 H   0  0  0  0  0  0  0  0  0  0  0  0
   20.2107   17.2688   25.3104 H   0  0  0  0  0  0  0  0  0  0  0  0
   18.9986   18.3571   23.8874 C   0  0  0  0  0  0  0  0  0  0  0  0
   18.9909   17.5634   23.1275 H   0  0  0  0  0  0  0  0  0  0  0  0
   18.1239   18.1809   24.5271 H   0  0  0  0  0  0  0  0  0  0  0  0
   18.8670   19.7404   23.1995 C   0  0  0  0  0  0  0  0  0  0  0  0
   19.7296   19.9019   22.5414 H   0  0  0  0  0  0  0  0  0  0  0  0
   18.8944   20.5359   23.9559 H   0  0  0  0  0  0  0  0  0  0  0  0
   17.5811   19.8723   22.3546 C   0  0  2  0  0  0  0  0  0  0  0  0
   17.5583   19.0492   21.6338 H   0  0  0  0  0  0  0  0  0  0  0  0
   17.5880   21.1967   21.5745 C   0  0  0  0  0  0  0  0  0  0  0  0
   18.4642   21.2576   20.9169 H   0  0  0  0  0  0  0  0  0  0  0  0
   16.6936   21.2813   20.9450 H   0  0  0  0  0  0  0  0  0  0  0  0
   17.6105   22.0577   22.2542 H   0  0  0  0  0  0  0  0  0  0  0  0
   16.3309   19.7578   23.1835 N   0  3  0  0  0  0  0  0  0  0  0  0
   15.4899   19.8303   22.6038 H   0  0  0  0  0  0  0  0  0  0  0  0
   16.2820   20.4979   23.8887 H   0  0  0  0  0  0  0  0  0  0  0  0
   16.2881   18.8605   23.6740 H   0  0  0  0  0  0  0  0  0  0  0  0
  1  2  1  0  0  0  0
  1  3  1  0  0  0  0
  1  4  1  0  0  0  0
  1  5  1  0  0  0  0
  5  6  1  0  0  0  0
  5  7  1  0  0  0  0
  5  8  1  0  0  0  0
  8  9  1  0  0  0  0
  8 10  1  0  0  0  0
  8 11  1  0  0  0  0
 11 12  1  0  0  0  0
 11 13  1  0  0  0  0
 11 14  1  0  0  0  0
 14 15  1  0  0  0  0
 14 16  1  0  0  0  0
 14 17  1  0  0  0  0
 17 18  1  0  0  0  0
 17 19  1  0  0  0  0
 17 20  1  0  0  0  0
 20 21  1  0  0  0  0
 20 22  1  0  0  0  0
 22 23  1  0  0  0  0
 22 24  1  0  0  0  0
 22 25  1  0  0  0  0
 20 26  1  0  0  0  0
 26 27  1  0  0  0  0
 26 28  1  0  0  0  0
 26 29  1  0  0  0  0
M  END
> <VConfSearch Rank>
847

> <Conf_Id>
111

> <Delta U+W>
0.580

> <U+W>
-27.246

> <U>
24.710

> <W>
-51.957

> <W(PB)>
-54.511

> <W(SA)>
2.555

> <Valence>
3.735

> <Coulomb>
19.760

> <VdW>
1.216

> <VdW6>
-8.624

> <VdW12>
9.840

> <Bond>
0.236

> <Angle>
1.168

> <Pdih>
2.330

> <Idih>
0.000

> <Tether>
0.000

$$$$
VeraChem MOL file


 29 28  0  0  0  0  0  0  0  0999 V2000     
   16.7993   16.8744   25.8872 C   0  0  0  0  0  0  0  0  0  0  0  0
   15.9759   17.5287   25.5723 H   0  0  0  0  0  0  0  0  0  0  0  0
   16.9656   16.1298   25.0978 H   0  0  0  0  0  0  0  0  0  0  0  0
   16.4790   16.3410   26.7916 H   0  0  0  0  0  0  0  0  0  0  0  0
   18.0814   17.6890   26.1604 C   0  0  0  0  0  0  0  0  0  0  0  0
   18.8766   17.0130   26.5048 H   0  0  0  0  0  0  0  0  0  0  0  0
   17.8939   18.4002   26.9770 H   0  0  0  0  0  0  0  0  0  0  0  0
   18.5538   18.4510   24.9025 C   0  0  0  0  0  0  0  0  0  0  0  0
   18.7288   17.7309   24.0925 H   0  0  0  0  0  0  0  0  0  0  0  0
   17.7565   19.1266   24.5632 H   0  0  0  0  0  0  0  0  0  0  0  0
   19.8416   19.2650   25.1742 C   0  0  0  0  0  0  0  0  0  0  0  0
   20.6552   18.5857   25.4637 H   0  0  0  0  0  0  0  0  0  0  0  0
   19.6720   19.9269   26.0347 H   0  0  0  0  0  0  0  0  0  0  0  0
   20.2904   20.1299   23.9709 C   0  0  0  0  0  0  0  0  0  0  0  0
   19.4829   20.8266   23.7099 H   0  0  0  0  0  0  0  0  0  0  0  0
   21.1445   20.7463   24.2839 H   0  0  0  0  0  0  0  0  0  0  0  0
   20.6986   19.2943   22.7302 C   0  0  0  0  0  0  0  0  0  0  0  0
   19.8223   18.7779   22.3184 H   0  0  0  0  0  0  0  0  0  0  0  0
   21.4016   18.5137   23.0496 H   0  0  0  0  0  0  0  0  0  0  0  0
   21.3678   20.1299   21.6153 C   0  0  2  0  0  0  0  0  0  0  0  0
   22.2173   20.6651   22.0505 H   0  0  0  0  0  0  0  0  0  0  0  0
   20.4016   21.1619   21.0067 C   0  0  0  0  0  0  0  0  0  0  0  0
   19.5019   20.6766   20.6083 H   0  0  0  0  0  0  0  0  0  0  0  0
   20.0908   21.9042   21.7510 H   0  0  0  0  0  0  0  0  0  0  0  0
   20.8852   21.7074   20.1870 H   0  0  0  0  0  0  0  0  0  0  0  0
   21.9308   19.2453   20.5379 N   0  3  0  0  0  0  0  0  0  0  0  0
   22.6100   18.5777   20.9147 H   0  0  0  0  0  0  0  0  0  0  0  0
   22.4098   19.7927   19.8171 H   0  0  0  0  0  0  0  0  0  0  0  0
   21.1947   18.7065   20.0735 H   0  0  0  0  0  0  0  0  0  0  0  0
  1  2  1  0  0  0  0
  1  3  1  0  0  0  0
  1  4  1  0  0  0  0
  1  5  1  0  0  0  0
  5  6  1  0  0  0  0
  5  7  1  0  0  0  0
  5  8  1  0  0  0  0
  8  9  1  0  0  0  0
  8 10  1  0  0  0  0
  8 11  1  0  0  0  0
 11 12  1  0  0  0  0
 11 13  1  0  0  0  0
 11 14  1  0  0  0  0
 14 15  1  0  0  0  0
 14 16  1  0  0  0  0
 14 17  1  0  0  0  0
 17 18  1  0  0  0  0
 17 19  1  0  0  0  0
 17 20  1  0  0  0  0
 20 21  1  0  0  0  0
 20 22  1  0  0  0  0
 22 23  1  0  0  0  0
 22 24  1  0  0  0  0
 22 25  1  0  0  0  0
 20 26  1  0  0  0  0
 26 27  1  0  0  0  0
 26 28  1  0  0  0  0
 26 29  1  0  0  0  0
M  END
> <VConfSearch Rank>
848

> <Conf_Id>
39

> <Delta U+W>
0.965

> <U+W>
-26.861

> <U>
25.129

> <W>
-51.990

> <W(PB)>
-54.526

> <W(SA)>
2.536

> <Valence>
4.206

> <Coulomb>
19.678

> <VdW>
1.245

> <VdW6>
-8.834

> <VdW12>
10.079

> <Bond>
0.240

> <Angle>
1.353

> <Pdih>
2.613

> <Idih>
0.000

> <Tether>
0.000

$$$$
VeraChem MOL file


 29 28  0  0  0  0  0  0  0  0999 V2000     
   15.9013   18.1100   25.0321 C   0  0  0  0  0  0  0  0  0  0  0  0
   15.9476   18.9583   25.7272 H   0  0  0  0  0  0  0  0  0  0  0  0
   15.6702   18.4964   24.0319 H   0  0  0  0  0  0  0  0  0  0  0  0
   15.0639   17.4700   25.3390 H   0  0  0  0  0  0  0  0  0  0  0  0
   17.2240   17.3104   25.0420 C   0  0  0  0  0  0  0  0  0  0  0  0
   17.1659   16.4893   24.3139 H   0  0  0  0  0  0  0  0  0  0  0  0
   17.3431   16.8391   26.0277 H   0  0  0  0  0  0  0  0  0  0  0  0
   18.4731   18.1782   24.7543 C   0  0  0  0  0  0  0  0  0  0  0  0
   18.5270   18.9967   25.4851 H   0  0  0  0  0  0  0  0  0  0  0  0
   19.3620   17.5560   24.9190 H   0  0  0  0  0  0  0  0  0  0  0  0
   18.5041   18.7568   23.3167 C   0  0  0  0  0  0  0  0  0  0  0  0
   17.6100   19.3717   23.1522 H   0  0  0  0  0  0  0  0  0  0  0  0
   18.4548   17.9381   22.5859 H   0  0  0  0  0  0  0  0  0  0  0  0
   19.7466   19.6355   23.0295 C   0  0  0  0  0  0  0  0  0  0  0  0
   19.6097   20.1073   22.0478 H   0  0  0  0  0  0  0  0  0  0  0  0
   19.7857   20.4517   23.7631 H   0  0  0  0  0  0  0  0  0  0  0  0
   21.0815   18.8414   23.0402 C   0  0  0  0  0  0  0  0  0  0  0  0
   20.9856   17.9638   22.3876 H   0  0  0  0  0  0  0  0  0  0  0  0
   21.2727   18.4517   24.0476 H   0  0  0  0  0  0  0  0  0  0  0  0
   22.3214   19.6511   22.5929 C   0  0  2  0  0  0  0  0  0  0  0  0
   23.1831   18.9779   22.6385 H   0  0  0  0  0  0  0  0  0  0  0  0
   22.6062   20.8365   23.5315 C   0  0  0  0  0  0  0  0  0  0  0  0
   21.8228   21.6011   23.4675 H   0  0  0  0  0  0  0  0  0  0  0  0
   22.6750   20.5007   24.5736 H   0  0  0  0  0  0  0  0  0  0  0  0
   23.5601   21.3113   23.2712 H   0  0  0  0  0  0  0  0  0  0  0  0
   22.2257   20.1070   21.1629 N   0  3  0  0  0  0  0  0  0  0  0  0
   22.0788   19.3183   20.5265 H   0  0  0  0  0  0  0  0  0  0  0  0
   23.0804   20.5858   20.8650 H   0  0  0  0  0  0  0  0  0  0  0  0
   21.4476   20.7581   21.0320 H   0  0  0  0  0  0  0  0  0  0  0  0
  1  2  1  0  0  0  0
  1  3  1  0  0  0  0
  1  4  1  0  0  0  0
  1  5  1  0  0  0  0
  5  6  1  0  0  0  0
  5  7  1  0  0  0  0
  5  8  1  0  0  0  0
  8  9  1  0  0  0  0
  8 10  1  0  0  0  0
  8 11  1  0  0  0  0
 11 12  1  0  0  0  0
 11 13  1  0  0  0  0
 11 14  1  0  0  0  0
 14 15  1  0  0  0  0
 14 16  1  0  0  0  0
 14 17  1  0  0  0  0
 17 18  1  0  0  0  0
 17 19  1  0  0  0  0
 17 20  1  0  0  0  0
 20 21  1  0  0  0  0
 20 22  1  0  0  0  0
 22 23  1  0  0  0  0
 22 24  1  0  0  0  0
 22 25  1  0  0  0  0
 20 26  1  0  0  0  0
 26 27  1  0  0  0  0
 26 28  1  0  0  0  0
 26 29  1  0  0  0  0
M  END
> <VConfSearch Rank>
849

> <Conf_Id>
155

> <Delta U+W>
1.624

> <U+W>
-26.202

> <U>
25.894

> <W>
-52.096

> <W(PB)>
-54.602

> <W(SA)>
2.506

> <Valence>
4.779

> <Coulomb>
19.659

> <VdW>
1.456

> <VdW6>
-9.843

> <VdW12>
11.299

> <Bond>
0.315

> <Angle>
1.725

> <Pdih>
2.740

> <Idih>
0.000

> <Tether>
0.000

$$$$
VeraChem MOL file


 29 28  0  0  0  0  0  0  0  0999 V2000     
   21.2661   17.4673   26.9284 C   0  0  0  0  0  0  0  0  0  0  0  0
   21.7447   18.4526   26.8670 H   0  0  0  0  0  0  0  0  0  0  0  0
   20.2189   17.6111   27.2246 H   0  0  0  0  0  0  0  0  0  0  0  0
   21.7672   16.9058   27.7275 H   0  0  0  0  0  0  0  0  0  0  0  0
   21.3644   16.7048   25.5877 C   0  0  0  0  0  0  0  0  0  0  0  0
   20.9781   15.6858   25.7300 H   0  0  0  0  0  0  0  0  0  0  0  0
   22.4197   16.5963   25.3009 H   0  0  0  0  0  0  0  0  0  0  0  0
   20.5761   17.3798   24.4396 C   0  0  0  0  0  0  0  0  0  0  0  0
   20.6158   16.7261   23.5574 H   0  0  0  0  0  0  0  0  0  0  0  0
   19.5191   17.4521   24.7268 H   0  0  0  0  0  0  0  0  0  0  0  0
   21.1244   18.7787   24.0599 C   0  0  0  0  0  0  0  0  0  0  0  0
   22.2103   18.7063   23.9092 H   0  0  0  0  0  0  0  0  0  0  0  0
   20.9733   19.4810   24.8903 H   0  0  0  0  0  0  0  0  0  0  0  0
   20.4905   19.3658   22.7746 C   0  0  0  0  0  0  0  0  0  0  0  0
   21.0381   20.2817   22.5186 H   0  0  0  0  0  0  0  0  0  0  0  0
   20.6427   18.6697   21.9382 H   0  0  0  0  0  0  0  0  0  0  0  0
   18.9800   19.6858   22.9211 C   0  0  0  0  0  0  0  0  0  0  0  0
   18.8290   20.3908   23.7493 H   0  0  0  0  0  0  0  0  0  0  0  0
   18.4451   18.7675   23.1917 H   0  0  0  0  0  0  0  0  0  0  0  0
   18.3355   20.2503   21.6341 C   0  0  2  0  0  0  0  0  0  0  0  0
   18.5510   19.5614   20.8115 H   0  0  0  0  0  0  0  0  0  0  0  0
   18.8882   21.6390   21.2656 C   0  0  0  0  0  0  0  0  0  0  0  0
   18.7563   22.3504   22.0904 H   0  0  0  0  0  0  0  0  0  0  0  0
   19.9549   21.5925   21.0184 H   0  0  0  0  0  0  0  0  0  0  0  0
   18.3702   22.0395   20.3854 H   0  0  0  0  0  0  0  0  0  0  0  0
   16.8381   20.3061   21.7584 N   0  3  0  0  0  0  0  0  0  0  0  0
   16.4415   19.3834   21.9591 H   0  0  0  0  0  0  0  0  0  0  0  0
   16.4036   20.6428   20.8944 H   0  0  0  0  0  0  0  0  0  0  0  0
   16.5487   20.9361   22.5115 H   0  0  0  0  0  0  0  0  0  0  0  0
  1  2  1  0  0  0  0
  1  3  1  0  0  0  0
  1  4  1  0  0  0  0
  1  5  1  0  0  0  0
  5  6  1  0  0  0  0
  5  7  1  0  0  0  0
  5  8  1  0  0  0  0
  8  9  1  0  0  0  0
  8 10  1  0  0  0  0
  8 11  1  0  0  0  0
 11 12  1  0  0  0  0
 11 13  1  0  0  0  0
 11 14  1  0  0  0  0
 14 15  1  0  0  0  0
 14 16  1  0  0  0  0
 14 17  1  0  0  0  0
 17 18  1  0  0  0  0
 17 19  1  0  0  0  0
 17 20  1  0  0  0  0
 20 21  1  0  0  0  0
 20 22  1  0  0  0  0
 22 23  1  0  0  0  0
 22 24  1  0  0  0  0
 22 25  1  0  0  0  0
 20 26  1  0  0  0  0
 26 27  1  0  0  0  0
 26 28  1  0  0  0  0
 26 29  1  0  0  0  0
M  END
> <VConfSearch Rank>
850

> <Conf_Id>
135

> <Delta U+W>
1.581

> <U+W>
-26.245

> <U>
25.974

> <W>
-52.219

> <W(PB)>
-54.709

> <W(SA)>
2.490

> <Valence>
4.811

> <Coulomb>
19.700

> <VdW>
1.463

> <VdW6>
-9.391

> <VdW12>
10.854

> <Bond>
0.285

> <Angle>
1.671

> <Pdih>
2.855

> <Idih>
0.000

> <Tether>
0.000

$$$$
VeraChem MOL file


 29 28  0  0  0  0  0  0  0  0999 V2000     
   22.4376   20.8282   20.9907 C   0  0  0  0  0  0  0  0  0  0  0  0
   22.5305   19.7693   20.7165 H   0  0  0  0  0  0  0  0  0  0  0  0
   21.4921   21.2074   20.5835 H   0  0  0  0  0  0  0  0  0  0  0  0
   23.2521   21.3754   20.4988 H   0  0  0  0  0  0  0  0  0  0  0  0
   22.5097   21.0134   22.5233 C   0  0  0  0  0  0  0  0  0  0  0  0
   22.3879   22.0767   22.7731 H   0  0  0  0  0  0  0  0  0  0  0  0
   23.5138   20.7296   22.8680 H   0  0  0  0  0  0  0  0  0  0  0  0
   21.4634   20.1716   23.2925 C   0  0  0  0  0  0  0  0  0  0  0  0
   21.6145   19.1098   23.0575 H   0  0  0  0  0  0  0  0  0  0  0  0
   21.6499   20.2819   24.3696 H   0  0  0  0  0  0  0  0  0  0  0  0
   20.0009   20.5820   22.9866 C   0  0  0  0  0  0  0  0  0  0  0  0
   19.7608   20.3663   21.9371 H   0  0  0  0  0  0  0  0  0  0  0  0
   19.9000   21.6690   23.1107 H   0  0  0  0  0  0  0  0  0  0  0  0
   18.9638   19.8840   23.9001 C   0  0  0  0  0  0  0  0  0  0  0  0
   19.1821   20.1347   24.9466 H   0  0  0  0  0  0  0  0  0  0  0  0
   17.9703   20.2992   23.6813 H   0  0  0  0  0  0  0  0  0  0  0  0
   18.9208   18.3452   23.7157 C   0  0  0  0  0  0  0  0  0  0  0  0
   19.8627   17.8982   24.0581 H   0  0  0  0  0  0  0  0  0  0  0  0
   18.8401   18.1234   22.6433 H   0  0  0  0  0  0  0  0  0  0  0  0
   17.7394   17.6677   24.4464 C   0  0  2  0  0  0  0  0  0  0  0  0
   16.8124   18.1493   24.1203 H   0  0  0  0  0  0  0  0  0  0  0  0
   17.8487   17.8062   25.9755 C   0  0  0  0  0  0  0  0  0  0  0  0
   18.7937   17.3890   26.3451 H   0  0  0  0  0  0  0  0  0  0  0  0
   17.7916   18.8560   26.2856 H   0  0  0  0  0  0  0  0  0  0  0  0
   17.0260   17.2764   26.4712 H   0  0  0  0  0  0  0  0  0  0  0  0
   17.6226   16.2189   24.0621 N   0  3  0  0  0  0  0  0  0  0  0  0
   16.8170   15.7762   24.5136 H   0  0  0  0  0  0  0  0  0  0  0  0
   18.4552   15.6907   24.3368 H   0  0  0  0  0  0  0  0  0  0  0  0
   17.5053   16.1053   23.0510 H   0  0  0  0  0  0  0  0  0  0  0  0
  1  2  1  0  0  0  0
  1  3  1  0  0  0  0
  1  4  1  0  0  0  0
  1  5  1  0  0  0  0
  5  6  1  0  0  0  0
  5  7  1  0  0  0  0
  5  8  1  0  0  0  0
  8  9  1  0  0  0  0
  8 10  1  0  0  0  0
  8 11  1  0  0  0  0
 11 12  1  0  0  0  0
 11 13  1  0  0  0  0
 11 14  1  0  0  0  0
 14 15  1  0  0  0  0
 14 16  1  0  0  0  0
 14 17  1  0  0  0  0
 17 18  1  0  0  0  0
 17 19  1  0  0  0  0
 17 20  1  0  0  0  0
 20 21  1  0  0  0  0
 20 22  1  0  0  0  0
 22 23  1  0  0  0  0
 22 24  1  0  0  0  0
 22 25  1  0  0  0  0
 20 26  1  0  0  0  0
 26 27  1  0  0  0  0
 26 28  1  0  0  0  0
 26 29  1  0  0  0  0
M  END
> <VConfSearch Rank>
851

> <Conf_Id>
130

> <Delta U+W>
1.359

> <U+W>
-26.467

> <U>
25.687

> <W>
-52.154

> <W(PB)>
-54.643

> <W(SA)>
2.489

> <Valence>
4.682

> <Coulomb>
19.653

> <VdW>
1.352

> <VdW6>
-9.477

> <VdW12>
10.829

> <Bond>
0.274

> <Angle>
1.550

> <Pdih>
2.858

> <Idih>
0.000

> <Tether>
0.000

$$$$
VeraChem MOL file


 29 28  0  0  0  0  0  0  0  0999 V2000     
   22.9614   20.8289   25.3420 C   0  0  0  0  0  0  0  0  0  0  0  0
   24.0545   20.9293   25.3469 H   0  0  0  0  0  0  0  0  0  0  0  0
   22.5412   21.7087   25.8463 H   0  0  0  0  0  0  0  0  0  0  0  0
   22.7098   19.9399   25.9334 H   0  0  0  0  0  0  0  0  0  0  0  0
   22.4357   20.7150   23.8931 C   0  0  0  0  0  0  0  0  0  0  0  0
   22.8439   19.8100   23.4219 H   0  0  0  0  0  0  0  0  0  0  0  0
   22.8190   21.5643   23.3105 H   0  0  0  0  0  0  0  0  0  0  0  0
   20.8910   20.7041   23.7960 C   0  0  0  0  0  0  0  0  0  0  0  0
   20.4900   21.6195   24.2523 H   0  0  0  0  0  0  0  0  0  0  0  0
   20.6152   20.7448   22.7348 H   0  0  0  0  0  0  0  0  0  0  0  0
   20.2412   19.4633   24.4606 C   0  0  0  0  0  0  0  0  0  0  0  0
   20.4689   19.4722   25.5344 H   0  0  0  0  0  0  0  0  0  0  0  0
   20.6940   18.5495   24.0574 H   0  0  0  0  0  0  0  0  0  0  0  0
   18.6993   19.4233   24.2982 C   0  0  0  0  0  0  0  0  0  0  0  0
   18.2721   18.7130   25.0195 H   0  0  0  0  0  0  0  0  0  0  0  0
   18.2962   20.4052   24.5821 H   0  0  0  0  0  0  0  0  0  0  0  0
   18.2040   19.0675   22.8689 C   0  0  0  0  0  0  0  0  0  0  0  0
   18.9403   19.3648   22.1128 H   0  0  0  0  0  0  0  0  0  0  0  0
   17.3086   19.6699   22.6666 H   0  0  0  0  0  0  0  0  0  0  0  0
   17.8207   17.5814   22.6708 C   0  0  2  0  0  0  0  0  0  0  0  0
   17.0568   17.3249   23.4112 H   0  0  0  0  0  0  0  0  0  0  0  0
   19.0136   16.6296   22.8614 C   0  0  0  0  0  0  0  0  0  0  0  0
   19.3700   16.6482   23.8977 H   0  0  0  0  0  0  0  0  0  0  0  0
   18.7232   15.5956   22.6386 H   0  0  0  0  0  0  0  0  0  0  0  0
   19.8471   16.8996   22.2009 H   0  0  0  0  0  0  0  0  0  0  0  0
   17.1918   17.3619   21.3229 N   0  3  0  0  0  0  0  0  0  0  0  0
   16.3654   17.9523   21.1915 H   0  0  0  0  0  0  0  0  0  0  0  0
   16.8935   16.3896   21.2035 H   0  0  0  0  0  0  0  0  0  0  0  0
   17.8465   17.5757   20.5657 H   0  0  0  0  0  0  0  0  0  0  0  0
  1  2  1  0  0  0  0
  1  3  1  0  0  0  0
  1  4  1  0  0  0  0
  1  5  1  0  0  0  0
  5  6  1  0  0  0  0
  5  7  1  0  0  0  0
  5  8  1  0  0  0  0
  8  9  1  0  0  0  0
  8 10  1  0  0  0  0
  8 11  1  0  0  0  0
 11 12  1  0  0  0  0
 11 13  1  0  0  0  0
 11 14  1  0  0  0  0
 14 15  1  0  0  0  0
 14 16  1  0  0  0  0
 14 17  1  0  0  0  0
 17 18  1  0  0  0  0
 17 19  1  0  0  0  0
 17 20  1  0  0  0  0
 20 21  1  0  0  0  0
 20 22  1  0  0  0  0
 22 23  1  0  0  0  0
 22 24  1  0  0  0  0
 22 25  1  0  0  0  0
 20 26  1  0  0  0  0
 26 27  1  0  0  0  0
 26 28  1  0  0  0  0
 26 29  1  0  0  0  0
M  END
> <VConfSearch Rank>
852

> <Conf_Id>
157

> <Delta U+W>
4.354

> <U+W>
-23.472

> <U>
28.780

> <W>
-52.252

> <W(PB)>
-54.715

> <W(SA)>
2.462

> <Valence>
7.566

> <Coulomb>
19.822

> <VdW>
1.392

> <VdW6>
-10.248

> <VdW12>
11.641

> <Bond>
0.340

> <Angle>
2.096

> <Pdih>
5.129

> <Idih>
0.000

> <Tether>
0.000

$$$$
VeraChem MOL file


 29 28  0  0  0  0  0  0  0  0999 V2000     
   20.7907   22.4349   24.8510 C   0  0  0  0  0  0  0  0  0  0  0  0
   20.7142   23.5152   24.6718 H   0  0  0  0  0  0  0  0  0  0  0  0
   19.7742   22.0264   24.8572 H   0  0  0  0  0  0  0  0  0  0  0  0
   21.2174   22.2930   25.8524 H   0  0  0  0  0  0  0  0  0  0  0  0
   21.6792   21.7696   23.7741 C   0  0  0  0  0  0  0  0  0  0  0  0
   22.6714   22.2404   23.8160 H   0  0  0  0  0  0  0  0  0  0  0  0
   21.2866   21.9817   22.7699 H   0  0  0  0  0  0  0  0  0  0  0  0
   21.8482   20.2417   23.9757 C   0  0  0  0  0  0  0  0  0  0  0  0
   22.8736   19.9709   23.6883 H   0  0  0  0  0  0  0  0  0  0  0  0
   21.7635   19.9873   25.0412 H   0  0  0  0  0  0  0  0  0  0  0  0
   20.8829   19.3624   23.1395 C   0  0  0  0  0  0  0  0  0  0  0  0
   21.1521   18.3126   23.3132 H   0  0  0  0  0  0  0  0  0  0  0  0
   21.0545   19.5492   22.0705 H   0  0  0  0  0  0  0  0  0  0  0  0
   19.3839   19.5769   23.4637 C   0  0  0  0  0  0  0  0  0  0  0  0
   19.2167   19.4758   24.5441 H   0  0  0  0  0  0  0  0  0  0  0  0
   19.1034   20.6051   23.2018 H   0  0  0  0  0  0  0  0  0  0  0  0
   18.4452   18.6182   22.6867 C   0  0  0  0  0  0  0  0  0  0  0  0
   18.5712   18.7958   21.6104 H   0  0  0  0  0  0  0  0  0  0  0  0
   17.4031   18.8746   22.9193 H   0  0  0  0  0  0  0  0  0  0  0  0
   18.6771   17.1188   22.9802 C   0  0  2  0  0  0  0  0  0  0  0  0
   19.7084   16.8697   22.7145 H   0  0  0  0  0  0  0  0  0  0  0  0
   17.7408   16.2549   22.1206 C   0  0  0  0  0  0  0  0  0  0  0  0
   16.6878   16.4593   22.3518 H   0  0  0  0  0  0  0  0  0  0  0  0
   17.9006   16.4512   21.0531 H   0  0  0  0  0  0  0  0  0  0  0  0
   17.9281   15.1881   22.2947 H   0  0  0  0  0  0  0  0  0  0  0  0
   18.5137   16.7876   24.4381 N   0  3  0  0  0  0  0  0  0  0  0  0
   19.1611   17.3306   25.0161 H   0  0  0  0  0  0  0  0  0  0  0  0
   18.6952   15.7963   24.6200 H   0  0  0  0  0  0  0  0  0  0  0  0
   17.5645   16.9910   24.7623 H   0  0  0  0  0  0  0  0  0  0  0  0
  1  2  1  0  0  0  0
  1  3  1  0  0  0  0
  1  4  1  0  0  0  0
  1  5  1  0  0  0  0
  5  6  1  0  0  0  0
  5  7  1  0  0  0  0
  5  8  1  0  0  0  0
  8  9  1  0  0  0  0
  8 10  1  0  0  0  0
  8 11  1  0  0  0  0
 11 12  1  0  0  0  0
 11 13  1  0  0  0  0
 11 14  1  0  0  0  0
 14 15  1  0  0  0  0
 14 16  1  0  0  0  0
 14 17  1  0  0  0  0
 17 18  1  0  0  0  0
 17 19  1  0  0  0  0
 17 20  1  0  0  0  0
 20 21  1  0  0  0  0
 20 22  1  0  0  0  0
 22 23  1  0  0  0  0
 22 24  1  0  0  0  0
 22 25  1  0  0  0  0
 20 26  1  0  0  0  0
 26 27  1  0  0  0  0
 26 28  1  0  0  0  0
 26 29  1  0  0  0  0
M  END
> <VConfSearch Rank>
853

> <Conf_Id>
158

> <Delta U+W>
3.648

> <U+W>
-24.178

> <U>
28.057

> <W>
-52.235

> <W(PB)>
-54.696

> <W(SA)>
2.460

> <Valence>
6.543

> <Coulomb>
20.387

> <VdW>
1.127

> <VdW6>
-10.342

> <VdW12>
11.469

> <Bond>
0.308

> <Angle>
1.938

> <Pdih>
4.297

> <Idih>
0.000

> <Tether>
0.000

$$$$
VeraChem MOL file


 29 28  0  0  0  0  0  0  0  0999 V2000     
   22.2299   19.0890   20.7139 C   0  0  0  0  0  0  0  0  0  0  0  0
   22.6940   18.1871   21.1339 H   0  0  0  0  0  0  0  0  0  0  0  0
   21.1633   18.8863   20.5570 H   0  0  0  0  0  0  0  0  0  0  0  0
   22.6793   19.2702   19.7290 H   0  0  0  0  0  0  0  0  0  0  0  0
   22.4466   20.3078   21.6393 C   0  0  0  0  0  0  0  0  0  0  0  0
   21.9460   21.1887   21.2139 H   0  0  0  0  0  0  0  0  0  0  0  0
   23.5191   20.5461   21.6650 H   0  0  0  0  0  0  0  0  0  0  0  0
   21.9553   20.0752   23.0885 C   0  0  0  0  0  0  0  0  0  0  0  0
   22.4720   19.2044   23.5151 H   0  0  0  0  0  0  0  0  0  0  0  0
   22.2498   20.9395   23.6996 H   0  0  0  0  0  0  0  0  0  0  0  0
   20.4244   19.8779   23.1963 C   0  0  0  0  0  0  0  0  0  0  0  0
   20.1270   18.9862   22.6337 H   0  0  0  0  0  0  0  0  0  0  0  0
   19.9136   20.7299   22.7271 H   0  0  0  0  0  0  0  0  0  0  0  0
   19.9663   19.7541   24.6703 C   0  0  0  0  0  0  0  0  0  0  0  0
   20.5219   18.9546   25.1798 H   0  0  0  0  0  0  0  0  0  0  0  0
   20.2313   20.6853   25.1900 H   0  0  0  0  0  0  0  0  0  0  0  0
   18.4395   19.5229   24.8235 C   0  0  0  0  0  0  0  0  0  0  0  0
   17.9010   19.9542   23.9693 H   0  0  0  0  0  0  0  0  0  0  0  0
   18.1026   20.0860   25.7040 H   0  0  0  0  0  0  0  0  0  0  0  0
   18.0224   18.0466   25.0285 C   0  0  2  0  0  0  0  0  0  0  0  0
   18.5396   17.6670   25.9151 H   0  0  0  0  0  0  0  0  0  0  0  0
   18.3937   17.1487   23.8363 C   0  0  0  0  0  0  0  0  0  0  0  0
   17.9767   17.5386   22.8995 H   0  0  0  0  0  0  0  0  0  0  0  0
   19.4816   17.0688   23.7282 H   0  0  0  0  0  0  0  0  0  0  0  0
   18.0094   16.1319   23.9832 H   0  0  0  0  0  0  0  0  0  0  0  0
   16.5515   17.9388   25.3206 N   0  3  0  0  0  0  0  0  0  0  0  0
   16.2885   18.4912   26.1419 H   0  0  0  0  0  0  0  0  0  0  0  0
   16.2769   16.9696   25.5048 H   0  0  0  0  0  0  0  0  0  0  0  0
   15.9887   18.2713   24.5329 H   0  0  0  0  0  0  0  0  0  0  0  0
  1  2  1  0  0  0  0
  1  3  1  0  0  0  0
  1  4  1  0  0  0  0
  1  5  1  0  0  0  0
  5  6  1  0  0  0  0
  5  7  1  0  0  0  0
  5  8  1  0  0  0  0
  8  9  1  0  0  0  0
  8 10  1  0  0  0  0
  8 11  1  0  0  0  0
 11 12  1  0  0  0  0
 11 13  1  0  0  0  0
 11 14  1  0  0  0  0
 14 15  1  0  0  0  0
 14 16  1  0  0  0  0
 14 17  1  0  0  0  0
 17 18  1  0  0  0  0
 17 19  1  0  0  0  0
 17 20  1  0  0  0  0
 20 21  1  0  0  0  0
 20 22  1  0  0  0  0
 22 23  1  0  0  0  0
 22 24  1  0  0  0  0
 22 25  1  0  0  0  0
 20 26  1  0  0  0  0
 26 27  1  0  0  0  0
 26 28  1  0  0  0  0
 26 29  1  0  0  0  0
M  END
> <VConfSearch Rank>
854

> <Conf_Id>
156

> <Delta U+W>
3.393

> <U+W>
-24.433

> <U>
27.713

> <W>
-52.146

> <W(PB)>
-54.603

> <W(SA)>
2.458

> <Valence>
6.758

> <Coulomb>
19.720

> <VdW>
1.235

> <VdW6>
-9.782

> <VdW12>
11.017

> <Bond>
0.287

> <Angle>
1.880

> <Pdih>
4.591

> <Idih>
0.000

> <Tether>
0.000

$$$$
VeraChem MOL file


 29 28  0  0  0  0  0  0  0  0999 V2000     
   22.7938   21.5508   23.9802 C   0  0  0  0  0  0  0  0  0  0  0  0
   22.1021   22.2040   24.5280 H   0  0  0  0  0  0  0  0  0  0  0  0
   23.6649   21.3611   24.6207 H   0  0  0  0  0  0  0  0  0  0  0  0
   23.1406   22.0956   23.0926 H   0  0  0  0  0  0  0  0  0  0  0  0
   22.1051   20.2306   23.5745 C   0  0  0  0  0  0  0  0  0  0  0  0
   22.8107   19.6112   23.0036 H   0  0  0  0  0  0  0  0  0  0  0  0
   21.2657   20.4586   22.9043 H   0  0  0  0  0  0  0  0  0  0  0  0
   21.6032   19.4465   24.8097 C   0  0  0  0  0  0  0  0  0  0  0  0
   22.4431   19.2969   25.5020 H   0  0  0  0  0  0  0  0  0  0  0  0
   20.8668   20.0485   25.3580 H   0  0  0  0  0  0  0  0  0  0  0  0
   21.0048   18.0581   24.4643 C   0  0  0  0  0  0  0  0  0  0  0  0
   20.6983   17.5646   25.3968 H   0  0  0  0  0  0  0  0  0  0  0  0
   21.7970   17.4273   24.0381 H   0  0  0  0  0  0  0  0  0  0  0  0
   19.8024   18.0733   23.4850 C   0  0  0  0  0  0  0  0  0  0  0  0
   20.1276   18.4524   22.5081 H   0  0  0  0  0  0  0  0  0  0  0  0
   19.4941   17.0332   23.3189 H   0  0  0  0  0  0  0  0  0  0  0  0
   18.5931   18.8972   24.0058 C   0  0  0  0  0  0  0  0  0  0  0  0
   18.8938   19.9429   24.1441 H   0  0  0  0  0  0  0  0  0  0  0  0
   18.3042   18.5301   24.9994 H   0  0  0  0  0  0  0  0  0  0  0  0
   17.3490   18.8793   23.0865 C   0  0  2  0  0  0  0  0  0  0  0  0
   16.6004   19.5353   23.5413 H   0  0  0  0  0  0  0  0  0  0  0  0
   16.7282   17.4758   22.9753 C   0  0  0  0  0  0  0  0  0  0  0  0
   15.7727   17.5214   22.4384 H   0  0  0  0  0  0  0  0  0  0  0  0
   17.3827   16.7830   22.4335 H   0  0  0  0  0  0  0  0  0  0  0  0
   16.5308   17.0567   23.9698 H   0  0  0  0  0  0  0  0  0  0  0  0
   17.6333   19.4522   21.7254 N   0  3  0  0  0  0  0  0  0  0  0  0
   18.0022   20.4053   21.7889 H   0  0  0  0  0  0  0  0  0  0  0  0
   16.7862   19.4891   21.1511 H   0  0  0  0  0  0  0  0  0  0  0  0
   18.3214   18.8869   21.2219 H   0  0  0  0  0  0  0  0  0  0  0  0
  1  2  1  0  0  0  0
  1  3  1  0  0  0  0
  1  4  1  0  0  0  0
  1  5  1  0  0  0  0
  5  6  1  0  0  0  0
  5  7  1  0  0  0  0
  5  8  1  0  0  0  0
  8  9  1  0  0  0  0
  8 10  1  0  0  0  0
  8 11  1  0  0  0  0
 11 12  1  0  0  0  0
 11 13  1  0  0  0  0
 11 14  1  0  0  0  0
 14 15  1  0  0  0  0
 14 16  1  0  0  0  0
 14 17  1  0  0  0  0
 17 18  1  0  0  0  0
 17 19  1  0  0  0  0
 17 20  1  0  0  0  0
 20 21  1  0  0  0  0
 20 22  1  0  0  0  0
 22 23  1  0  0  0  0
 22 24  1  0  0  0  0
 22 25  1  0  0  0  0
 20 26  1  0  0  0  0
 26 27  1  0  0  0  0
 26 28  1  0  0  0  0
 26 29  1  0  0  0  0
M  END
> <VConfSearch Rank>
855

> <Conf_Id>
78

> <Delta U+W>
1.477

> <U+W>
-26.349

> <U>
26.385

> <W>
-52.734

> <W(PB)>
-55.179

> <W(SA)>
2.445

> <Valence>
4.726

> <Coulomb>
20.482

> <VdW>
1.177

> <VdW6>
-10.349

> <VdW12>
11.526

> <Bond>
0.319

> <Angle>
1.933

> <Pdih>
2.474

> <Idih>
0.000

> <Tether>
0.000

$$$$
VeraChem MOL file


 29 28  0  0  0  0  0  0  0  0999 V2000     
   22.9142   20.2645   21.8899 C   0  0  0  0  0  0  0  0  0  0  0  0
   23.5296   20.7869   22.6337 H   0  0  0  0  0  0  0  0  0  0  0  0
   22.7281   19.2501   22.2596 H   0  0  0  0  0  0  0  0  0  0  0  0
   23.5054   20.1801   20.9689 H   0  0  0  0  0  0  0  0  0  0  0  0
   21.6012   21.0362   21.6211 C   0  0  0  0  0  0  0  0  0  0  0  0
   21.0282   20.5488   20.8201 H   0  0  0  0  0  0  0  0  0  0  0  0
   21.8662   22.0323   21.2396 H   0  0  0  0  0  0  0  0  0  0  0  0
   20.7211   21.2092   22.8857 C   0  0  0  0  0  0  0  0  0  0  0  0
   21.3493   21.2241   23.7869 H   0  0  0  0  0  0  0  0  0  0  0  0
   20.2477   22.1997   22.8394 H   0  0  0  0  0  0  0  0  0  0  0  0
   19.5905   20.1597   23.0423 C   0  0  0  0  0  0  0  0  0  0  0  0
   18.9071   20.2296   22.1850 H   0  0  0  0  0  0  0  0  0  0  0  0
   19.0014   20.4334   23.9271 H   0  0  0  0  0  0  0  0  0  0  0  0
   20.0910   18.7010   23.1830 C   0  0  0  0  0  0  0  0  0  0  0  0
   20.6073   18.4075   22.2603 H   0  0  0  0  0  0  0  0  0  0  0  0
   20.8361   18.6366   23.9867 H   0  0  0  0  0  0  0  0  0  0  0  0
   18.9487   17.6814   23.4296 C   0  0  0  0  0  0  0  0  0  0  0  0
   19.3782   16.6719   23.4768 H   0  0  0  0  0  0  0  0  0  0  0  0
   18.2837   17.6881   22.5559 H   0  0  0  0  0  0  0  0  0  0  0  0
   18.1011   17.9316   24.6995 C   0  0  2  0  0  0  0  0  0  0  0  0
   17.6635   18.9318   24.6325 H   0  0  0  0  0  0  0  0  0  0  0  0
   18.9450   17.8543   25.9841 C   0  0  0  0  0  0  0  0  0  0  0  0
   18.3122   17.9833   26.8708 H   0  0  0  0  0  0  0  0  0  0  0  0
   19.4540   16.8860   26.0667 H   0  0  0  0  0  0  0  0  0  0  0  0
   19.7036   18.6453   26.0092 H   0  0  0  0  0  0  0  0  0  0  0  0
   16.9460   16.9724   24.7763 N   0  3  0  0  0  0  0  0  0  0  0  0
   17.2687   16.0036   24.8470 H   0  0  0  0  0  0  0  0  0  0  0  0
   16.3462   17.0374   23.9487 H   0  0  0  0  0  0  0  0  0  0  0  0
   16.3584   17.1591   25.5939 H   0  0  0  0  0  0  0  0  0  0  0  0
  1  2  1  0  0  0  0
  1  3  1  0  0  0  0
  1  4  1  0  0  0  0
  1  5  1  0  0  0  0
  5  6  1  0  0  0  0
  5  7  1  0  0  0  0
  5  8  1  0  0  0  0
  8  9  1  0  0  0  0
  8 10  1  0  0  0  0
  8 11  1  0  0  0  0
 11 12  1  0  0  0  0
 11 13  1  0  0  0  0
 11 14  1  0  0  0  0
 14 15  1  0  0  0  0
 14 16  1  0  0  0  0
 14 17  1  0  0  0  0
 17 18  1  0  0  0  0
 17 19  1  0  0  0  0
 17 20  1  0  0  0  0
 20 21  1  0  0  0  0
 20 22  1  0  0  0  0
 22 23  1  0  0  0  0
 22 24  1  0  0  0  0
 22 25  1  0  0  0  0
 20 26  1  0  0  0  0
 26 27  1  0  0  0  0
 26 28  1  0  0  0  0
 26 29  1  0  0  0  0
M  END
> <VConfSearch Rank>
856

> <Conf_Id>
145

> <Delta U+W>
3.784

> <U+W>
-24.042

> <U>
28.220

> <W>
-52.262

> <W(PB)>
-54.724

> <W(SA)>
2.462

> <Valence>
7.040

> <Coulomb>
19.984

> <VdW>
1.197

> <VdW6>
-10.566

> <VdW12>
11.763

> <Bond>
0.320

> <Angle>
2.280

> <Pdih>
4.439

> <Idih>
0.000

> <Tether>
0.000

$$$$
VeraChem MOL file


 29 28  0  0  0  0  0  0  0  0999 V2000     
   17.3991   18.0050   26.4413 C   0  0  0  0  0  0  0  0  0  0  0  0
   16.4078   17.5587   26.2884 H   0  0  0  0  0  0  0  0  0  0  0  0
   18.1373   17.1934   26.4794 H   0  0  0  0  0  0  0  0  0  0  0  0
   17.3966   18.5046   27.4188 H   0  0  0  0  0  0  0  0  0  0  0  0
   17.7355   19.0078   25.3175 C   0  0  0  0  0  0  0  0  0  0  0  0
   18.7103   19.4656   25.5242 H   0  0  0  0  0  0  0  0  0  0  0  0
   16.9994   19.8237   25.3285 H   0  0  0  0  0  0  0  0  0  0  0  0
   17.7331   18.3277   23.9272 C   0  0  0  0  0  0  0  0  0  0  0  0
   18.4142   17.4657   23.9202 H   0  0  0  0  0  0  0  0  0  0  0  0
   16.7283   17.9204   23.7488 H   0  0  0  0  0  0  0  0  0  0  0  0
   18.0838   19.2954   22.7670 C   0  0  0  0  0  0  0  0  0  0  0  0
   17.7959   20.3234   23.0270 H   0  0  0  0  0  0  0  0  0  0  0  0
   17.4654   19.0266   21.8994 H   0  0  0  0  0  0  0  0  0  0  0  0
   19.5659   19.2555   22.3131 C   0  0  0  0  0  0  0  0  0  0  0  0
   19.8026   18.2448   21.9550 H   0  0  0  0  0  0  0  0  0  0  0  0
   19.6673   19.9208   21.4464 H   0  0  0  0  0  0  0  0  0  0  0  0
   20.5778   19.6734   23.4132 C   0  0  0  0  0  0  0  0  0  0  0  0
   20.5332   18.9514   24.2376 H   0  0  0  0  0  0  0  0  0  0  0  0
   20.2806   20.6428   23.8343 H   0  0  0  0  0  0  0  0  0  0  0  0
   22.0496   19.7628   22.9449 C   0  0  2  0  0  0  0  0  0  0  0  0
   22.6570   19.9892   23.8267 H   0  0  0  0  0  0  0  0  0  0  0  0
   22.2688   20.8979   21.9294 C   0  0  0  0  0  0  0  0  0  0  0  0
   23.3390   21.0290   21.7272 H   0  0  0  0  0  0  0  0  0  0  0  0
   21.7718   20.6919   20.9742 H   0  0  0  0  0  0  0  0  0  0  0  0
   21.8856   21.8492   22.3188 H   0  0  0  0  0  0  0  0  0  0  0  0
   22.5626   18.4542   22.4101 N   0  3  0  0  0  0  0  0  0  0  0  0
   22.0516   18.1718   21.5700 H   0  0  0  0  0  0  0  0  0  0  0  0
   22.4644   17.7028   23.0988 H   0  0  0  0  0  0  0  0  0  0  0  0
   23.5541   18.5146   22.1613 H   0  0  0  0  0  0  0  0  0  0  0  0
  1  2  1  0  0  0  0
  1  3  1  0  0  0  0
  1  4  1  0  0  0  0
  1  5  1  0  0  0  0
  5  6  1  0  0  0  0
  5  7  1  0  0  0  0
  5  8  1  0  0  0  0
  8  9  1  0  0  0  0
  8 10  1  0  0  0  0
  8 11  1  0  0  0  0
 11 12  1  0  0  0  0
 11 13  1  0  0  0  0
 11 14  1  0  0  0  0
 14 15  1  0  0  0  0
 14 16  1  0  0  0  0
 14 17  1  0  0  0  0
 17 18  1  0  0  0  0
 17 19  1  0  0  0  0
 17 20  1  0  0  0  0
 20 21  1  0  0  0  0
 20 22  1  0  0  0  0
 22 23  1  0  0  0  0
 22 24  1  0  0  0  0
 22 25  1  0  0  0  0
 20 26  1  0  0  0  0
 26 27  1  0  0  0  0
 26 28  1  0  0  0  0
 26 29  1  0  0  0  0
M  END
> <VConfSearch Rank>
857

> <Conf_Id>
71

> <Delta U+W>
3.542

> <U+W>
-24.284

> <U>
28.217

> <W>
-52.501

> <W(PB)>
-54.947

> <W(SA)>
2.446

> <Valence>
6.821

> <Coulomb>
20.147

> <VdW>
1.249

> <VdW6>
-10.237

> <VdW12>
11.486

> <Bond>
0.317

> <Angle>
1.990

> <Pdih>
4.515

> <Idih>
0.000

> <Tether>
0.000

$$$$
VeraChem MOL file


 29 28  0  0  0  0  0  0  0  0999 V2000     
   21.6146   22.4272   22.2784 C   0  0  0  0  0  0  0  0  0  0  0  0
   21.1550   22.1153   21.3315 H   0  0  0  0  0  0  0  0  0  0  0  0
   21.2681   23.4432   22.5085 H   0  0  0  0  0  0  0  0  0  0  0  0
   22.7013   22.4676   22.1286 H   0  0  0  0  0  0  0  0  0  0  0  0
   21.2575   21.4480   23.4166 C   0  0  0  0  0  0  0  0  0  0  0  0
   21.7593   21.7685   24.3403 H   0  0  0  0  0  0  0  0  0  0  0  0
   21.6557   20.4556   23.1742 H   0  0  0  0  0  0  0  0  0  0  0  0
   19.7294   21.3829   23.6536 C   0  0  0  0  0  0  0  0  0  0  0  0
   19.3834   22.3903   23.9236 H   0  0  0  0  0  0  0  0  0  0  0  0
   19.2075   21.1234   22.7223 H   0  0  0  0  0  0  0  0  0  0  0  0
   19.3202   20.4045   24.7854 C   0  0  0  0  0  0  0  0  0  0  0  0
   18.4655   20.8405   25.3209 H   0  0  0  0  0  0  0  0  0  0  0  0
   20.1244   20.3235   25.5297 H   0  0  0  0  0  0  0  0  0  0  0  0
   18.8957   18.9938   24.3016 C   0  0  0  0  0  0  0  0  0  0  0  0
   18.5523   18.4258   25.1759 H   0  0  0  0  0  0  0  0  0  0  0  0
   18.0264   19.0926   23.6380 H   0  0  0  0  0  0  0  0  0  0  0  0
   20.0207   18.2053   23.5801 C   0  0  0  0  0  0  0  0  0  0  0  0
   20.9314   18.2301   24.1925 H   0  0  0  0  0  0  0  0  0  0  0  0
   20.2682   18.7066   22.6361 H   0  0  0  0  0  0  0  0  0  0  0  0
   19.6806   16.7293   23.2660 C   0  0  2  0  0  0  0  0  0  0  0  0
   20.5504   16.2952   22.7631 H   0  0  0  0  0  0  0  0  0  0  0  0
   18.4801   16.6039   22.3120 C   0  0  0  0  0  0  0  0  0  0  0  0
   18.6383   17.2016   21.4057 H   0  0  0  0  0  0  0  0  0  0  0  0
   18.3431   15.5605   22.0026 H   0  0  0  0  0  0  0  0  0  0  0  0
   17.5494   16.9379   22.7861 H   0  0  0  0  0  0  0  0  0  0  0  0
   19.4684   15.9107   24.5097 N   0  3  0  0  0  0  0  0  0  0  0  0
   20.2812   15.9543   25.1310 H   0  0  0  0  0  0  0  0  0  0  0  0
   19.3069   14.9247   24.2854 H   0  0  0  0  0  0  0  0  0  0  0  0
   18.6578   16.2419   25.0385 H   0  0  0  0  0  0  0  0  0  0  0  0
  1  2  1  0  0  0  0
  1  3  1  0  0  0  0
  1  4  1  0  0  0  0
  1  5  1  0  0  0  0
  5  6  1  0  0  0  0
  5  7  1  0  0  0  0
  5  8  1  0  0  0  0
  8  9  1  0  0  0  0
  8 10  1  0  0  0  0
  8 11  1  0  0  0  0
 11 12  1  0  0  0  0
 11 13  1  0  0  0  0
 11 14  1  0  0  0  0
 14 15  1  0  0  0  0
 14 16  1  0  0  0  0
 14 17  1  0  0  0  0
 17 18  1  0  0  0  0
 17 19  1  0  0  0  0
 17 20  1  0  0  0  0
 20 21  1  0  0  0  0
 20 22  1  0  0  0  0
 22 23  1  0  0  0  0
 22 24  1  0  0  0  0
 22 25  1  0  0  0  0
 20 26  1  0  0  0  0
 26 27  1  0  0  0  0
 26 28  1  0  0  0  0
 26 29  1  0  0  0  0
M  END
> <VConfSearch Rank>
858

> <Conf_Id>
163

> <Delta U+W>
3.309

> <U+W>
-24.517

> <U>
27.916

> <W>
-52.433

> <W(PB)>
-54.866

> <W(SA)>
2.433

> <Valence>
6.693

> <Coulomb>
20.015

> <VdW>
1.208

> <VdW6>
-10.294

> <VdW12>
11.503

> <Bond>
0.312

> <Angle>
1.939

> <Pdih>
4.441

> <Idih>
0.000

> <Tether>
0.000

$$$$
VeraChem MOL file


 29 28  0  0  0  0  0  0  0  0999 V2000     
   17.1927   19.7797   20.5780 C   0  0  0  0  0  0  0  0  0  0  0  0
   16.2207   19.7072   21.0829 H   0  0  0  0  0  0  0  0  0  0  0  0
   17.5879   20.7908   20.7350 H   0  0  0  0  0  0  0  0  0  0  0  0
   17.0212   19.6571   19.5007 H   0  0  0  0  0  0  0  0  0  0  0  0
   18.1698   18.6998   21.0957 C   0  0  0  0  0  0  0  0  0  0  0  0
   19.1447   18.8153   20.6018 H   0  0  0  0  0  0  0  0  0  0  0  0
   17.7909   17.7114   20.8004 H   0  0  0  0  0  0  0  0  0  0  0  0
   18.3553   18.7198   22.6322 C   0  0  0  0  0  0  0  0  0  0  0  0
   17.3789   18.6001   23.1215 H   0  0  0  0  0  0  0  0  0  0  0  0
   18.9525   17.8424   22.9118 H   0  0  0  0  0  0  0  0  0  0  0  0
   19.0473   20.0050   23.1529 C   0  0  0  0  0  0  0  0  0  0  0  0
   18.4490   20.8809   22.8711 H   0  0  0  0  0  0  0  0  0  0  0  0
   20.0184   20.1288   22.6558 H   0  0  0  0  0  0  0  0  0  0  0  0
   19.2290   20.0297   24.6930 C   0  0  0  0  0  0  0  0  0  0  0  0
   19.6703   20.9931   24.9818 H   0  0  0  0  0  0  0  0  0  0  0  0
   18.2395   20.0037   25.1698 H   0  0  0  0  0  0  0  0  0  0  0  0
   20.0917   18.8766   25.2721 C   0  0  0  0  0  0  0  0  0  0  0  0
   19.5503   17.9287   25.1587 H   0  0  0  0  0  0  0  0  0  0  0  0
   20.2069   19.0269   26.3537 H   0  0  0  0  0  0  0  0  0  0  0  0
   21.4872   18.7450   24.6233 C   0  0  2  0  0  0  0  0  0  0  0  0
   21.3536   18.5926   23.5481 H   0  0  0  0  0  0  0  0  0  0  0  0
   22.2300   17.5259   25.1920 C   0  0  0  0  0  0  0  0  0  0  0  0
   23.2069   17.4059   24.7076 H   0  0  0  0  0  0  0  0  0  0  0  0
   22.3942   17.6291   26.2719 H   0  0  0  0  0  0  0  0  0  0  0  0
   21.6577   16.6058   25.0196 H   0  0  0  0  0  0  0  0  0  0  0  0
   22.3118   19.9922   24.7858 N   0  3  0  0  0  0  0  0  0  0  0  0
   21.8377   20.8050   24.3827 H   0  0  0  0  0  0  0  0  0  0  0  0
   23.2210   19.9038   24.3232 H   0  0  0  0  0  0  0  0  0  0  0  0
   22.4879   20.1959   25.7732 H   0  0  0  0  0  0  0  0  0  0  0  0
  1  2  1  0  0  0  0
  1  3  1  0  0  0  0
  1  4  1  0  0  0  0
  1  5  1  0  0  0  0
  5  6  1  0  0  0  0
  5  7  1  0  0  0  0
  5  8  1  0  0  0  0
  8  9  1  0  0  0  0
  8 10  1  0  0  0  0
  8 11  1  0  0  0  0
 11 12  1  0  0  0  0
 11 13  1  0  0  0  0
 11 14  1  0  0  0  0
 14 15  1  0  0  0  0
 14 16  1  0  0  0  0
 14 17  1  0  0  0  0
 17 18  1  0  0  0  0
 17 19  1  0  0  0  0
 17 20  1  0  0  0  0
 20 21  1  0  0  0  0
 20 22  1  0  0  0  0
 22 23  1  0  0  0  0
 22 24  1  0  0  0  0
 22 25  1  0  0  0  0
 20 26  1  0  0  0  0
 26 27  1  0  0  0  0
 26 28  1  0  0  0  0
 26 29  1  0  0  0  0
M  END
> <VConfSearch Rank>
859

> <Conf_Id>
173

> <Delta U+W>
1.363

> <U+W>
-26.462

> <U>
25.816

> <W>
-52.279

> <W(PB)>
-54.727

> <W(SA)>
2.449

> <Valence>
4.504

> <Coulomb>
20.342

> <VdW>
0.971

> <VdW6>
-10.532

> <VdW12>
11.503

> <Bond>
0.307

> <Angle>
1.715

> <Pdih>
2.481

> <Idih>
0.000

> <Tether>
0.000

$$$$
VeraChem MOL file


 29 28  0  0  0  0  0  0  0  0999 V2000     
   20.2676   18.1721   27.2454 C   0  0  0  0  0  0  0  0  0  0  0  0
   19.8861   17.1430   27.2222 H   0  0  0  0  0  0  0  0  0  0  0  0
   21.2352   18.1667   27.7640 H   0  0  0  0  0  0  0  0  0  0  0  0
   19.5704   18.7769   27.8397 H   0  0  0  0  0  0  0  0  0  0  0  0
   20.4055   18.7443   25.8187 C   0  0  0  0  0  0  0  0  0  0  0  0
   20.7629   19.7818   25.8752 H   0  0  0  0  0  0  0  0  0  0  0  0
   19.4129   18.7672   25.3497 H   0  0  0  0  0  0  0  0  0  0  0  0
   21.3750   17.9025   24.9581 C   0  0  0  0  0  0  0  0  0  0  0  0
   22.3252   17.7896   25.4982 H   0  0  0  0  0  0  0  0  0  0  0  0
   20.9694   16.8884   24.8391 H   0  0  0  0  0  0  0  0  0  0  0  0
   21.6784   18.5025   23.5608 C   0  0  0  0  0  0  0  0  0  0  0  0
   22.4027   17.8397   23.0673 H   0  0  0  0  0  0  0  0  0  0  0  0
   22.1887   19.4696   23.6680 H   0  0  0  0  0  0  0  0  0  0  0  0
   20.4423   18.6435   22.6346 C   0  0  0  0  0  0  0  0  0  0  0  0
   20.7575   18.4174   21.6074 H   0  0  0  0  0  0  0  0  0  0  0  0
   19.6972   17.8824   22.8994 H   0  0  0  0  0  0  0  0  0  0  0  0
   19.8206   20.0675   22.6594 C   0  0  0  0  0  0  0  0  0  0  0  0
   20.5800   20.7923   22.3378 H   0  0  0  0  0  0  0  0  0  0  0  0
   19.5580   20.3504   23.6848 H   0  0  0  0  0  0  0  0  0  0  0  0
   18.5700   20.2464   21.7668 C   0  0  2  0  0  0  0  0  0  0  0  0
   18.2757   21.2988   21.8274 H   0  0  0  0  0  0  0  0  0  0  0  0
   17.3821   19.4035   22.2627 C   0  0  0  0  0  0  0  0  0  0  0  0
   17.1803   19.5996   23.3231 H   0  0  0  0  0  0  0  0  0  0  0  0
   16.4741   19.6531   21.7001 H   0  0  0  0  0  0  0  0  0  0  0  0
   17.5661   18.3297   22.1407 H   0  0  0  0  0  0  0  0  0  0  0  0
   18.8547   19.9763   20.3151 N   0  3  0  0  0  0  0  0  0  0  0  0
   19.6152   20.5664   19.9656 H   0  0  0  0  0  0  0  0  0  0  0  0
   18.0326   20.1588   19.7324 H   0  0  0  0  0  0  0  0  0  0  0  0
   19.1268   19.0015   20.1658 H   0  0  0  0  0  0  0  0  0  0  0  0
  1  2  1  0  0  0  0
  1  3  1  0  0  0  0
  1  4  1  0  0  0  0
  1  5  1  0  0  0  0
  5  6  1  0  0  0  0
  5  7  1  0  0  0  0
  5  8  1  0  0  0  0
  8  9  1  0  0  0  0
  8 10  1  0  0  0  0
  8 11  1  0  0  0  0
 11 12  1  0  0  0  0
 11 13  1  0  0  0  0
 11 14  1  0  0  0  0
 14 15  1  0  0  0  0
 14 16  1  0  0  0  0
 14 17  1  0  0  0  0
 17 18  1  0  0  0  0
 17 19  1  0  0  0  0
 17 20  1  0  0  0  0
 20 21  1  0  0  0  0
 20 22  1  0  0  0  0
 22 23  1  0  0  0  0
 22 24  1  0  0  0  0
 22 25  1  0  0  0  0
 20 26  1  0  0  0  0
 26 27  1  0  0  0  0
 26 28  1  0  0  0  0
 26 29  1  0  0  0  0
M  END
> <VConfSearch Rank>
860

> <Conf_Id>
117

> <Delta U+W>
3.377

> <U+W>
-24.449

> <U>
27.947

> <W>
-52.396

> <W(PB)>
-54.842

> <W(SA)>
2.447

> <Valence>
6.731

> <Coulomb>
20.067

> <VdW>
1.149

> <VdW6>
-10.427

> <VdW12>
11.575

> <Bond>
0.324

> <Angle>
1.943

> <Pdih>
4.465

> <Idih>
0.000

> <Tether>
0.000

$$$$
VeraChem MOL file


 29 28  0  0  0  0  0  0  0  0999 V2000     
   21.6228   18.0559   27.8456 C   0  0  0  0  0  0  0  0  0  0  0  0
   22.3024   18.9180   27.8334 H   0  0  0  0  0  0  0  0  0  0  0  0
   20.7239   18.3370   28.4097 H   0  0  0  0  0  0  0  0  0  0  0  0
   22.1206   17.2419   28.3885 H   0  0  0  0  0  0  0  0  0  0  0  0
   21.2621   17.6136   26.4117 C   0  0  0  0  0  0  0  0  0  0  0  0
   20.6097   16.7303   26.4559 H   0  0  0  0  0  0  0  0  0  0  0  0
   22.1760   17.3068   25.8840 H   0  0  0  0  0  0  0  0  0  0  0  0
   20.5595   18.7421   25.6249 C   0  0  0  0  0  0  0  0  0  0  0  0
   19.6479   19.0469   26.1574 H   0  0  0  0  0  0  0  0  0  0  0  0
   21.2145   19.6235   25.5855 H   0  0  0  0  0  0  0  0  0  0  0  0
   20.1966   18.3029   24.1885 C   0  0  0  0  0  0  0  0  0  0  0  0
   19.5428   17.4206   24.2294 H   0  0  0  0  0  0  0  0  0  0  0  0
   21.1087   17.9984   23.6566 H   0  0  0  0  0  0  0  0  0  0  0  0
   19.4931   19.4319   23.4019 C   0  0  0  0  0  0  0  0  0  0  0  0
   18.5792   19.7332   23.9326 H   0  0  0  0  0  0  0  0  0  0  0  0
   20.1497   20.3115   23.3710 H   0  0  0  0  0  0  0  0  0  0  0  0
   19.1318   18.9897   21.9631 C   0  0  0  0  0  0  0  0  0  0  0  0
   18.5210   18.0784   22.0147 H   0  0  0  0  0  0  0  0  0  0  0  0
   20.0459   18.7238   21.4156 H   0  0  0  0  0  0  0  0  0  0  0  0
   18.3520   20.0675   21.1794 C   0  0  2  0  0  0  0  0  0  0  0  0
   17.4601   20.3325   21.7556 H   0  0  0  0  0  0  0  0  0  0  0  0
   17.9007   19.5163   19.8175 C   0  0  0  0  0  0  0  0  0  0  0  0
   17.3145   20.2650   19.2705 H   0  0  0  0  0  0  0  0  0  0  0  0
   18.7616   19.2363   19.1975 H   0  0  0  0  0  0  0  0  0  0  0  0
   17.2690   18.6285   19.9461 H   0  0  0  0  0  0  0  0  0  0  0  0
   19.1434   21.3340   20.9993 N   0  3  0  0  0  0  0  0  0  0  0  0
   19.4135   21.7372   21.9005 H   0  0  0  0  0  0  0  0  0  0  0  0
   18.6040   22.0437   20.4953 H   0  0  0  0  0  0  0  0  0  0  0  0
   20.0011   21.1652   20.4670 H   0  0  0  0  0  0  0  0  0  0  0  0
  1  2  1  0  0  0  0
  1  3  1  0  0  0  0
  1  4  1  0  0  0  0
  1  5  1  0  0  0  0
  5  6  1  0  0  0  0
  5  7  1  0  0  0  0
  5  8  1  0  0  0  0
  8  9  1  0  0  0  0
  8 10  1  0  0  0  0
  8 11  1  0  0  0  0
 11 12  1  0  0  0  0
 11 13  1  0  0  0  0
 11 14  1  0  0  0  0
 14 15  1  0  0  0  0
 14 16  1  0  0  0  0
 14 17  1  0  0  0  0
 17 18  1  0  0  0  0
 17 19  1  0  0  0  0
 17 20  1  0  0  0  0
 20 21  1  0  0  0  0
 20 22  1  0  0  0  0
 22 23  1  0  0  0  0
 22 24  1  0  0  0  0
 22 25  1  0  0  0  0
 20 26  1  0  0  0  0
 26 27  1  0  0  0  0
 26 28  1  0  0  0  0
 26 29  1  0  0  0  0
M  END
> <VConfSearch Rank>
861

> <Conf_Id>
164

> <Delta U+W>
0.000

> <U+W>
-27.826

> <U>
23.963

> <W>
-51.789

> <W(PB)>
-54.342

> <W(SA)>
2.554

> <Valence>
3.166

> <Coulomb>
19.734

> <VdW>
1.062

> <VdW6>
-7.938

> <VdW12>
9.001

> <Bond>
0.188

> <Angle>
0.880

> <Pdih>
2.098

> <Idih>
0.000

> <Tether>
0.000

$$$$
VeraChem MOL file


 29 28  0  0  0  0  0  0  0  0999 V2000     
   16.6065   15.4787   23.2833 C   0  0  0  0  0  0  0  0  0  0  0  0
   17.0076   14.9422   24.1531 H   0  0  0  0  0  0  0  0  0  0  0  0
   15.7768   16.1114   23.6246 H   0  0  0  0  0  0  0  0  0  0  0  0
   16.1986   14.7346   22.5870 H   0  0  0  0  0  0  0  0  0  0  0  0
   17.7023   16.3227   22.5986 C   0  0  0  0  0  0  0  0  0  0  0  0
   17.2801   16.8199   21.7141 H   0  0  0  0  0  0  0  0  0  0  0  0
   18.5014   15.6596   22.2385 H   0  0  0  0  0  0  0  0  0  0  0  0
   18.2937   17.3789   23.5581 C   0  0  0  0  0  0  0  0  0  0  0  0
   17.4909   18.0376   23.9172 H   0  0  0  0  0  0  0  0  0  0  0  0
   18.7125   16.8773   24.4416 H   0  0  0  0  0  0  0  0  0  0  0  0
   19.3914   18.2261   22.8759 C   0  0  0  0  0  0  0  0  0  0  0  0
   18.9719   18.7275   21.9927 H   0  0  0  0  0  0  0  0  0  0  0  0
   20.1928   17.5658   22.5162 H   0  0  0  0  0  0  0  0  0  0  0  0
   19.9832   19.2824   23.8364 C   0  0  0  0  0  0  0  0  0  0  0  0
   19.1737   19.9308   24.1963 H   0  0  0  0  0  0  0  0  0  0  0  0
   20.4073   18.7803   24.7171 H   0  0  0  0  0  0  0  0  0  0  0  0
   21.0795   20.1329   23.1490 C   0  0  0  0  0  0  0  0  0  0  0  0
   20.6444   20.6877   22.3071 H   0  0  0  0  0  0  0  0  0  0  0  0
   21.8300   19.4554   22.7206 H   0  0  0  0  0  0  0  0  0  0  0  0
   21.7963   21.1148   24.1038 C   0  0  2  0  0  0  0  0  0  0  0  0
   22.1843   20.5453   24.9539 H   0  0  0  0  0  0  0  0  0  0  0  0
   20.8472   22.2025   24.6381 C   0  0  0  0  0  0  0  0  0  0  0  0
   20.3820   22.7615   23.8167 H   0  0  0  0  0  0  0  0  0  0  0  0
   20.0507   21.7695   25.2541 H   0  0  0  0  0  0  0  0  0  0  0  0
   21.3927   22.9154   25.2685 H   0  0  0  0  0  0  0  0  0  0  0  0
   22.9871   21.7461   23.4375 N   0  3  0  0  0  0  0  0  0  0  0  0
   23.4886   22.3675   24.0787 H   0  0  0  0  0  0  0  0  0  0  0  0
   22.7092   22.3045   22.6259 H   0  0  0  0  0  0  0  0  0  0  0  0
   23.6550   21.0411   23.1122 H   0  0  0  0  0  0  0  0  0  0  0  0
  1  2  1  0  0  0  0
  1  3  1  0  0  0  0
  1  4  1  0  0  0  0
  1  5  1  0  0  0  0
  5  6  1  0  0  0  0
  5  7  1  0  0  0  0
  5  8  1  0  0  0  0
  8  9  1  0  0  0  0
  8 10  1  0  0  0  0
  8 11  1  0  0  0  0
 11 12  1  0  0  0  0
 11 13  1  0  0  0  0
 11 14  1  0  0  0  0
 14 15  1  0  0  0  0
 14 16  1  0  0  0  0
 14 17  1  0  0  0  0
 17 18  1  0  0  0  0
 17 19  1  0  0  0  0
 17 20  1  0  0  0  0
 20 21  1  0  0  0  0
 20 22  1  0  0  0  0
 22 23  1  0  0  0  0
 22 24  1  0  0  0  0
 22 25  1  0  0  0  0
 20 26  1  0  0  0  0
 26 27  1  0  0  0  0
 26 28  1  0  0  0  0
 26 29  1  0  0  0  0
M  END
> <VConfSearch Rank>
862

> <Conf_Id>
58

> <Delta U+W>
0.412

> <U+W>
-27.414

> <U>
24.279

> <W>
-51.694

> <W(PB)>
-54.271

> <W(SA)>
2.577

> <Valence>
3.709

> <Coulomb>
19.380

> <VdW>
1.191

> <VdW6>
-8.093

> <VdW12>
9.284

> <Bond>
0.200

> <Angle>
1.161

> <Pdih>
2.348

> <Idih>
0.000

> <Tether>
0.000

$$$$
VeraChem MOL file


 29 28  0  0  0  0  0  0  0  0999 V2000     
   23.1811   22.0972   22.3817 C   0  0  0  0  0  0  0  0  0  0  0  0
   22.6870   22.9380   22.8859 H   0  0  0  0  0  0  0  0  0  0  0  0
   23.8757   21.6320   23.0934 H   0  0  0  0  0  0  0  0  0  0  0  0
   23.7720   22.5028   21.5502 H   0  0  0  0  0  0  0  0  0  0  0  0
   22.1468   21.0739   21.8669 C   0  0  0  0  0  0  0  0  0  0  0  0
   22.6678   20.2631   21.3386 H   0  0  0  0  0  0  0  0  0  0  0  0
   21.4883   21.5590   21.1327 H   0  0  0  0  0  0  0  0  0  0  0  0
   21.3010   20.4870   23.0184 C   0  0  0  0  0  0  0  0  0  0  0  0
   21.9636   20.0051   23.7506 H   0  0  0  0  0  0  0  0  0  0  0  0
   20.7842   21.3013   23.5449 H   0  0  0  0  0  0  0  0  0  0  0  0
   20.2638   19.4621   22.5066 C   0  0  0  0  0  0  0  0  0  0  0  0
   20.7818   18.6487   21.9798 H   0  0  0  0  0  0  0  0  0  0  0  0
   19.6021   19.9449   21.7742 H   0  0  0  0  0  0  0  0  0  0  0  0
   19.4176   18.8751   23.6588 C   0  0  0  0  0  0  0  0  0  0  0  0
   20.0846   18.3958   24.3875 H   0  0  0  0  0  0  0  0  0  0  0  0
   18.9083   19.6953   24.1816 H   0  0  0  0  0  0  0  0  0  0  0  0
   18.3766   17.8500   23.1385 C   0  0  0  0  0  0  0  0  0  0  0  0
   18.8958   17.0630   22.5759 H   0  0  0  0  0  0  0  0  0  0  0  0
   17.7087   18.3439   22.4203 H   0  0  0  0  0  0  0  0  0  0  0  0
   17.5171   17.1796   24.2362 C   0  0  2  0  0  0  0  0  0  0  0  0
   16.8541   16.4649   23.7387 H   0  0  0  0  0  0  0  0  0  0  0  0
   16.6320   18.1952   24.9794 C   0  0  0  0  0  0  0  0  0  0  0  0
   15.9379   17.6779   25.6531 H   0  0  0  0  0  0  0  0  0  0  0  0
   17.2293   18.8890   25.5828 H   0  0  0  0  0  0  0  0  0  0  0  0
   16.0333   18.7820   24.2717 H   0  0  0  0  0  0  0  0  0  0  0  0
   18.3443   16.3774   25.2026 N   0  3  0  0  0  0  0  0  0  0  0  0
   18.9036   15.6685   24.7196 H   0  0  0  0  0  0  0  0  0  0  0  0
   17.7555   15.8907   25.8846 H   0  0  0  0  0  0  0  0  0  0  0  0
   18.9888   16.9759   25.7250 H   0  0  0  0  0  0  0  0  0  0  0  0
  1  2  1  0  0  0  0
  1  3  1  0  0  0  0
  1  4  1  0  0  0  0
  1  5  1  0  0  0  0
  5  6  1  0  0  0  0
  5  7  1  0  0  0  0
  5  8  1  0  0  0  0
  8  9  1  0  0  0  0
  8 10  1  0  0  0  0
  8 11  1  0  0  0  0
 11 12  1  0  0  0  0
 11 13  1  0  0  0  0
 11 14  1  0  0  0  0
 14 15  1  0  0  0  0
 14 16  1  0  0  0  0
 14 17  1  0  0  0  0
 17 18  1  0  0  0  0
 17 19  1  0  0  0  0
 17 20  1  0  0  0  0
 20 21  1  0  0  0  0
 20 22  1  0  0  0  0
 22 23  1  0  0  0  0
 22 24  1  0  0  0  0
 22 25  1  0  0  0  0
 20 26  1  0  0  0  0
 26 27  1  0  0  0  0
 26 28  1  0  0  0  0
 26 29  1  0  0  0  0
M  END
> <VConfSearch Rank>
863

> <Conf_Id>
137

> <Delta U+W>
0.280

> <U+W>
-27.546

> <U>
24.513

> <W>
-52.059

> <W(PB)>
-54.556

> <W(SA)>
2.497

> <Valence>
3.677

> <Coulomb>
19.662

> <VdW>
1.174

> <VdW6>
-8.569

> <VdW12>
9.743

> <Bond>
0.224

> <Angle>
1.211

> <Pdih>
2.243

> <Idih>
0.000

> <Tether>
0.000

$$$$
VeraChem MOL file


 29 28  0  0  0  0  0  0  0  0999 V2000     
   22.6338   19.4212   20.1247 C   0  0  0  0  0  0  0  0  0  0  0  0
   23.1839   20.0490   20.8377 H   0  0  0  0  0  0  0  0  0  0  0  0
   22.9899   18.3883   20.2328 H   0  0  0  0  0  0  0  0  0  0  0  0
   22.8867   19.7606   19.1118 H   0  0  0  0  0  0  0  0  0  0  0  0
   21.1120   19.5112   20.3654 C   0  0  0  0  0  0  0  0  0  0  0  0
   20.5882   18.9013   19.6160 H   0  0  0  0  0  0  0  0  0  0  0  0
   20.7802   20.5486   20.2182 H   0  0  0  0  0  0  0  0  0  0  0  0
   20.7284   19.0379   21.7849 C   0  0  0  0  0  0  0  0  0  0  0  0
   21.0600   18.0000   21.9261 H   0  0  0  0  0  0  0  0  0  0  0  0
   21.2663   19.6485   22.5215 H   0  0  0  0  0  0  0  0  0  0  0  0
   19.2027   19.1321   22.0281 C   0  0  0  0  0  0  0  0  0  0  0  0
   18.6816   18.5853   21.2301 H   0  0  0  0  0  0  0  0  0  0  0  0
   18.8775   20.1785   21.9472 H   0  0  0  0  0  0  0  0  0  0  0  0
   18.7513   18.5518   23.3914 C   0  0  0  0  0  0  0  0  0  0  0  0
   17.6541   18.5289   23.3989 H   0  0  0  0  0  0  0  0  0  0  0  0
   19.0836   17.5078   23.4747 H   0  0  0  0  0  0  0  0  0  0  0  0
   19.2625   19.3631   24.6104 C   0  0  0  0  0  0  0  0  0  0  0  0
   18.9215   20.4040   24.5325 H   0  0  0  0  0  0  0  0  0  0  0  0
   20.3584   19.3914   24.5870 H   0  0  0  0  0  0  0  0  0  0  0  0
   18.8313   18.7758   25.9741 C   0  0  2  0  0  0  0  0  0  0  0  0
   19.1275   17.7227   26.0035 H   0  0  0  0  0  0  0  0  0  0  0  0
   17.3097   18.8614   26.1915 C   0  0  0  0  0  0  0  0  0  0  0  0
   16.9537   19.8953   26.1025 H   0  0  0  0  0  0  0  0  0  0  0  0
   16.7664   18.2464   25.4651 H   0  0  0  0  0  0  0  0  0  0  0  0
   17.0413   18.4944   27.1898 H   0  0  0  0  0  0  0  0  0  0  0  0
   19.5541   19.4506   27.1068 N   0  3  0  0  0  0  0  0  0  0  0  0
   20.5702   19.3680   27.0086 H   0  0  0  0  0  0  0  0  0  0  0  0
   19.3012   19.0389   28.0097 H   0  0  0  0  0  0  0  0  0  0  0  0
   19.3292   20.4482   27.1523 H   0  0  0  0  0  0  0  0  0  0  0  0
  1  2  1  0  0  0  0
  1  3  1  0  0  0  0
  1  4  1  0  0  0  0
  1  5  1  0  0  0  0
  5  6  1  0  0  0  0
  5  7  1  0  0  0  0
  5  8  1  0  0  0  0
  8  9  1  0  0  0  0
  8 10  1  0  0  0  0
  8 11  1  0  0  0  0
 11 12  1  0  0  0  0
 11 13  1  0  0  0  0
 11 14  1  0  0  0  0
 14 15  1  0  0  0  0
 14 16  1  0  0  0  0
 14 17  1  0  0  0  0
 17 18  1  0  0  0  0
 17 19  1  0  0  0  0
 17 20  1  0  0  0  0
 20 21  1  0  0  0  0
 20 22  1  0  0  0  0
 22 23  1  0  0  0  0
 22 24  1  0  0  0  0
 22 25  1  0  0  0  0
 20 26  1  0  0  0  0
 26 27  1  0  0  0  0
 26 28  1  0  0  0  0
 26 29  1  0  0  0  0
M  END
> <VConfSearch Rank>
864

> <Conf_Id>
40

> <Delta U+W>
1.128

> <U+W>
-26.698

> <U>
25.442

> <W>
-52.140

> <W(PB)>
-54.658

> <W(SA)>
2.519

> <Valence>
4.343

> <Coulomb>
19.740

> <VdW>
1.360

> <VdW6>
-8.739

> <VdW12>
10.099

> <Bond>
0.251

> <Angle>
1.483

> <Pdih>
2.608

> <Idih>
0.000

> <Tether>
0.000

$$$$
VeraChem MOL file


 29 28  0  0  0  0  0  0  0  0999 V2000     
   16.1259   21.3070   22.6056 C   0  0  0  0  0  0  0  0  0  0  0  0
   15.7292   20.3355   22.9248 H   0  0  0  0  0  0  0  0  0  0  0  0
   16.2137   21.9511   23.4901 H   0  0  0  0  0  0  0  0  0  0  0  0
   15.3857   21.7596   21.9331 H   0  0  0  0  0  0  0  0  0  0  0  0
   17.4873   21.1586   21.8888 C   0  0  0  0  0  0  0  0  0  0  0  0
   17.7766   22.1356   21.4772 H   0  0  0  0  0  0  0  0  0  0  0  0
   17.3814   20.4823   21.0291 H   0  0  0  0  0  0  0  0  0  0  0  0
   18.6219   20.6559   22.8141 C   0  0  0  0  0  0  0  0  0  0  0  0
   19.5645   20.7177   22.2559 H   0  0  0  0  0  0  0  0  0  0  0  0
   18.7234   21.3353   23.6715 H   0  0  0  0  0  0  0  0  0  0  0  0
   18.4096   19.2053   23.3177 C   0  0  0  0  0  0  0  0  0  0  0  0
   18.3137   18.5247   22.4606 H   0  0  0  0  0  0  0  0  0  0  0  0
   17.4606   19.1466   23.8659 H   0  0  0  0  0  0  0  0  0  0  0  0
   19.5335   18.7024   24.2572 C   0  0  0  0  0  0  0  0  0  0  0  0
   19.6417   19.3945   25.1039 H   0  0  0  0  0  0  0  0  0  0  0  0
   19.2134   17.7422   24.6824 H   0  0  0  0  0  0  0  0  0  0  0  0
   20.9016   18.5225   23.5496 C   0  0  0  0  0  0  0  0  0  0  0  0
   21.2341   19.4880   23.1495 H   0  0  0  0  0  0  0  0  0  0  0  0
   20.7900   17.8473   22.6909 H   0  0  0  0  0  0  0  0  0  0  0  0
   22.0004   17.9850   24.4924 C   0  0  2  0  0  0  0  0  0  0  0  0
   22.0673   18.6527   25.3569 H   0  0  0  0  0  0  0  0  0  0  0  0
   23.3618   17.9817   23.7788 C   0  0  0  0  0  0  0  0  0  0  0  0
   24.1533   17.6338   24.4540 H   0  0  0  0  0  0  0  0  0  0  0  0
   23.3480   17.3241   22.9005 H   0  0  0  0  0  0  0  0  0  0  0  0
   23.6299   18.9919   23.4451 H   0  0  0  0  0  0  0  0  0  0  0  0
   21.6842   16.6146   25.0262 N   0  3  0  0  0  0  0  0  0  0  0  0
   21.6016   15.9298   24.2700 H   0  0  0  0  0  0  0  0  0  0  0  0
   20.8020   16.6095   25.5451 H   0  0  0  0  0  0  0  0  0  0  0  0
   22.4153   16.2830   25.6620 H   0  0  0  0  0  0  0  0  0  0  0  0
  1  2  1  0  0  0  0
  1  3  1  0  0  0  0
  1  4  1  0  0  0  0
  1  5  1  0  0  0  0
  5  6  1  0  0  0  0
  5  7  1  0  0  0  0
  5  8  1  0  0  0  0
  8  9  1  0  0  0  0
  8 10  1  0  0  0  0
  8 11  1  0  0  0  0
 11 12  1  0  0  0  0
 11 13  1  0  0  0  0
 11 14  1  0  0  0  0
 14 15  1  0  0  0  0
 14 16  1  0  0  0  0
 14 17  1  0  0  0  0
 17 18  1  0  0  0  0
 17 19  1  0  0  0  0
 17 20  1  0  0  0  0
 20 21  1  0  0  0  0
 20 22  1  0  0  0  0
 22 23  1  0  0  0  0
 22 24  1  0  0  0  0
 22 25  1  0  0  0  0
 20 26  1  0  0  0  0
 26 27  1  0  0  0  0
 26 28  1  0  0  0  0
 26 29  1  0  0  0  0
M  END
> <VConfSearch Rank>
865

> <Conf_Id>
134

> <Delta U+W>
1.228

> <U+W>
-26.598

> <U>
25.451

> <W>
-52.048

> <W(PB)>
-54.539

> <W(SA)>
2.490

> <Valence>
4.319

> <Coulomb>
19.732

> <VdW>
1.400

> <VdW6>
-9.173

> <VdW12>
10.573

> <Bond>
0.281

> <Angle>
1.459

> <Pdih>
2.580

> <Idih>
0.000

> <Tether>
0.000

$$$$
VeraChem MOL file


 29 28  0  0  0  0  0  0  0  0999 V2000     
   20.7967   15.4376   21.4194 C   0  0  0  0  0  0  0  0  0  0  0  0
   20.5397   15.0130   22.3975 H   0  0  0  0  0  0  0  0  0  0  0  0
   19.8795   15.5021   20.8198 H   0  0  0  0  0  0  0  0  0  0  0  0
   21.4739   14.7314   20.9218 H   0  0  0  0  0  0  0  0  0  0  0  0
   21.4682   16.8227   21.5587 C   0  0  0  0  0  0  0  0  0  0  0  0
   21.8205   17.1445   20.5687 H   0  0  0  0  0  0  0  0  0  0  0  0
   22.3632   16.7385   22.1908 H   0  0  0  0  0  0  0  0  0  0  0  0
   20.5263   17.9119   22.1267 C   0  0  0  0  0  0  0  0  0  0  0  0
   21.0450   18.8767   22.0595 H   0  0  0  0  0  0  0  0  0  0  0  0
   19.6346   17.9936   21.4903 H   0  0  0  0  0  0  0  0  0  0  0  0
   20.1002   17.6542   23.5944 C   0  0  0  0  0  0  0  0  0  0  0  0
   20.9920   17.5740   24.2310 H   0  0  0  0  0  0  0  0  0  0  0  0
   19.5853   16.6872   23.6611 H   0  0  0  0  0  0  0  0  0  0  0  0
   19.1529   18.7401   24.1615 C   0  0  0  0  0  0  0  0  0  0  0  0
   18.2583   18.8014   23.5278 H   0  0  0  0  0  0  0  0  0  0  0  0
   18.8093   18.4175   25.1542 H   0  0  0  0  0  0  0  0  0  0  0  0
   19.8167   20.1357   24.2882 C   0  0  0  0  0  0  0  0  0  0  0  0
   20.0363   20.5415   23.2927 H   0  0  0  0  0  0  0  0  0  0  0  0
   20.7812   20.0198   24.7998 H   0  0  0  0  0  0  0  0  0  0  0  0
   18.9639   21.1559   25.0760 C   0  0  2  0  0  0  0  0  0  0  0  0
   18.7249   20.7224   26.0520 H   0  0  0  0  0  0  0  0  0  0  0  0
   17.6456   21.4877   24.3542 C   0  0  0  0  0  0  0  0  0  0  0  0
   17.8323   21.8725   23.3438 H   0  0  0  0  0  0  0  0  0  0  0  0
   17.0028   20.6036   24.2720 H   0  0  0  0  0  0  0  0  0  0  0  0
   17.0821   22.2480   24.9090 H   0  0  0  0  0  0  0  0  0  0  0  0
   19.7389   22.4148   25.3495 N   0  3  0  0  0  0  0  0  0  0  0  0
   20.6008   22.2219   25.8680 H   0  0  0  0  0  0  0  0  0  0  0  0
   19.1911   23.0777   25.9055 H   0  0  0  0  0  0  0  0  0  0  0  0
   20.0016   22.8886   24.4810 H   0  0  0  0  0  0  0  0  0  0  0  0
  1  2  1  0  0  0  0
  1  3  1  0  0  0  0
  1  4  1  0  0  0  0
  1  5  1  0  0  0  0
  5  6  1  0  0  0  0
  5  7  1  0  0  0  0
  5  8  1  0  0  0  0
  8  9  1  0  0  0  0
  8 10  1  0  0  0  0
  8 11  1  0  0  0  0
 11 12  1  0  0  0  0
 11 13  1  0  0  0  0
 11 14  1  0  0  0  0
 14 15  1  0  0  0  0
 14 16  1  0  0  0  0
 14 17  1  0  0  0  0
 17 18  1  0  0  0  0
 17 19  1  0  0  0  0
 17 20  1  0  0  0  0
 20 21  1  0  0  0  0
 20 22  1  0  0  0  0
 22 23  1  0  0  0  0
 22 24  1  0  0  0  0
 22 25  1  0  0  0  0
 20 26  1  0  0  0  0
 26 27  1  0  0  0  0
 26 28  1  0  0  0  0
 26 29  1  0  0  0  0
M  END
> <VConfSearch Rank>
866

> <Conf_Id>
73

> <Delta U+W>
1.580

> <U+W>
-26.246

> <U>
25.821

> <W>
-52.067

> <W(PB)>
-54.581

> <W(SA)>
2.514

> <Valence>
4.779

> <Coulomb>
19.614

> <VdW>
1.428

> <VdW6>
-9.390

> <VdW12>
10.818

> <Bond>
0.283

> <Angle>
1.640

> <Pdih>
2.856

> <Idih>
0.000

> <Tether>
0.000

$$$$
VeraChem MOL file


 29 28  0  0  0  0  0  0  0  0999 V2000     
   16.1286   16.8247   22.4544 C   0  0  0  0  0  0  0  0  0  0  0  0
   16.8364   15.9882   22.3873 H   0  0  0  0  0  0  0  0  0  0  0  0
   15.1487   16.4156   22.7328 H   0  0  0  0  0  0  0  0  0  0  0  0
   16.0352   17.2745   21.4573 H   0  0  0  0  0  0  0  0  0  0  0  0
   16.5983   17.8670   23.4912 C   0  0  0  0  0  0  0  0  0  0  0  0
   16.6506   17.3968   24.4832 H   0  0  0  0  0  0  0  0  0  0  0  0
   15.8537   18.6724   23.5608 H   0  0  0  0  0  0  0  0  0  0  0  0
   17.9761   18.4600   23.1223 C   0  0  0  0  0  0  0  0  0  0  0  0
   18.7066   17.6442   23.0464 H   0  0  0  0  0  0  0  0  0  0  0  0
   17.9180   18.9310   22.1314 H   0  0  0  0  0  0  0  0  0  0  0  0
   18.4499   19.5018   24.1643 C   0  0  0  0  0  0  0  0  0  0  0  0
   18.5662   19.0197   25.1447 H   0  0  0  0  0  0  0  0  0  0  0  0
   17.6676   20.2637   24.2867 H   0  0  0  0  0  0  0  0  0  0  0  0
   19.7690   20.2146   23.7766 C   0  0  0  0  0  0  0  0  0  0  0  0
   19.6506   20.6989   22.7974 H   0  0  0  0  0  0  0  0  0  0  0  0
   19.9438   21.0208   24.5010 H   0  0  0  0  0  0  0  0  0  0  0  0
   20.9978   19.2695   23.7469 C   0  0  0  0  0  0  0  0  0  0  0  0
   20.8307   18.4802   23.0037 H   0  0  0  0  0  0  0  0  0  0  0  0
   21.1059   18.7695   24.7186 H   0  0  0  0  0  0  0  0  0  0  0  0
   22.3107   20.0005   23.3909 C   0  0  2  0  0  0  0  0  0  0  0  0
   22.1666   20.5202   22.4386 H   0  0  0  0  0  0  0  0  0  0  0  0
   23.4558   18.9895   23.2205 C   0  0  0  0  0  0  0  0  0  0  0  0
   23.2195   18.2611   22.4347 H   0  0  0  0  0  0  0  0  0  0  0  0
   24.3840   19.4988   22.9332 H   0  0  0  0  0  0  0  0  0  0  0  0
   23.6416   18.4395   24.1516 H   0  0  0  0  0  0  0  0  0  0  0  0
   22.6818   21.0481   24.4048 N   0  3  0  0  0  0  0  0  0  0  0  0
   23.5447   21.5332   24.1427 H   0  0  0  0  0  0  0  0  0  0  0  0
   22.8306   20.6357   25.3297 H   0  0  0  0  0  0  0  0  0  0  0  0
   21.9485   21.7562   24.4968 H   0  0  0  0  0  0  0  0  0  0  0  0
  1  2  1  0  0  0  0
  1  3  1  0  0  0  0
  1  4  1  0  0  0  0
  1  5  1  0  0  0  0
  5  6  1  0  0  0  0
  5  7  1  0  0  0  0
  5  8  1  0  0  0  0
  8  9  1  0  0  0  0
  8 10  1  0  0  0  0
  8 11  1  0  0  0  0
 11 12  1  0  0  0  0
 11 13  1  0  0  0  0
 11 14  1  0  0  0  0
 14 15  1  0  0  0  0
 14 16  1  0  0  0  0
 14 17  1  0  0  0  0
 17 18  1  0  0  0  0
 17 19  1  0  0  0  0
 17 20  1  0  0  0  0
 20 21  1  0  0  0  0
 20 22  1  0  0  0  0
 22 23  1  0  0  0  0
 22 24  1  0  0  0  0
 22 25  1  0  0  0  0
 20 26  1  0  0  0  0
 26 27  1  0  0  0  0
 26 28  1  0  0  0  0
 26 29  1  0  0  0  0
M  END
> <VConfSearch Rank>
867

> <Conf_Id>
111

> <Delta U+W>
0.580

> <U+W>
-27.246

> <U>
24.710

> <W>
-51.957

> <W(PB)>
-54.511

> <W(SA)>
2.555

> <Valence>
3.735

> <Coulomb>
19.760

> <VdW>
1.216

> <VdW6>
-8.624

> <VdW12>
9.840

> <Bond>
0.236

> <Angle>
1.168

> <Pdih>
2.330

> <Idih>
0.000

> <Tether>
0.000

$$$$
VeraChem MOL file


 29 28  0  0  0  0  0  0  0  0999 V2000     
   20.7803   15.9926   26.3935 C   0  0  0  0  0  0  0  0  0  0  0  0
   19.9682   16.2815   27.0734 H   0  0  0  0  0  0  0  0  0  0  0  0
   20.3583   15.3485   25.6110 H   0  0  0  0  0  0  0  0  0  0  0  0
   21.5037   15.3977   26.9660 H   0  0  0  0  0  0  0  0  0  0  0  0
   21.4600   17.2359   25.7818 C   0  0  0  0  0  0  0  0  0  0  0  0
   22.2879   16.9169   25.1332 H   0  0  0  0  0  0  0  0  0  0  0  0
   21.9019   17.8417   26.5853 H   0  0  0  0  0  0  0  0  0  0  0  0
   20.4626   18.0920   24.9705 C   0  0  0  0  0  0  0  0  0  0  0  0
   20.0222   17.4734   24.1776 H   0  0  0  0  0  0  0  0  0  0  0  0
   19.6380   18.4100   25.6233 H   0  0  0  0  0  0  0  0  0  0  0  0
   21.1440   19.3368   24.3533 C   0  0  0  0  0  0  0  0  0  0  0  0
   21.9353   19.0205   23.6597 H   0  0  0  0  0  0  0  0  0  0  0  0
   21.6424   19.9048   25.1510 H   0  0  0  0  0  0  0  0  0  0  0  0
   20.1586   20.2806   23.6213 C   0  0  0  0  0  0  0  0  0  0  0  0
   19.3905   20.6160   24.3307 H   0  0  0  0  0  0  0  0  0  0  0  0
   20.7058   21.1800   23.3067 H   0  0  0  0  0  0  0  0  0  0  0  0
   19.4940   19.6335   22.3789 C   0  0  0  0  0  0  0  0  0  0  0  0
   18.8306   18.8162   22.6888 H   0  0  0  0  0  0  0  0  0  0  0  0
   20.2785   19.1823   21.7573 H   0  0  0  0  0  0  0  0  0  0  0  0
   18.6975   20.6350   21.5121 C   0  0  2  0  0  0  0  0  0  0  0  0
   19.3635   21.4602   21.2415 H   0  0  0  0  0  0  0  0  0  0  0  0
   17.4849   21.2136   22.2631 C   0  0  0  0  0  0  0  0  0  0  0  0
   16.8146   20.4166   22.6081 H   0  0  0  0  0  0  0  0  0  0  0  0
   17.7986   21.8002   23.1343 H   0  0  0  0  0  0  0  0  0  0  0  0
   16.9103   21.8830   21.6111 H   0  0  0  0  0  0  0  0  0  0  0  0
   18.2573   20.0043   20.2203 N   0  3  0  0  0  0  0  0  0  0  0  0
   19.0539   19.6502   19.6828 H   0  0  0  0  0  0  0  0  0  0  0  0
   17.7634   20.6760   19.6256 H   0  0  0  0  0  0  0  0  0  0  0  0
   17.6230   19.2180   20.3849 H   0  0  0  0  0  0  0  0  0  0  0  0
  1  2  1  0  0  0  0
  1  3  1  0  0  0  0
  1  4  1  0  0  0  0
  1  5  1  0  0  0  0
  5  6  1  0  0  0  0
  5  7  1  0  0  0  0
  5  8  1  0  0  0  0
  8  9  1  0  0  0  0
  8 10  1  0  0  0  0
  8 11  1  0  0  0  0
 11 12  1  0  0  0  0
 11 13  1  0  0  0  0
 11 14  1  0  0  0  0
 14 15  1  0  0  0  0
 14 16  1  0  0  0  0
 14 17  1  0  0  0  0
 17 18  1  0  0  0  0
 17 19  1  0  0  0  0
 17 20  1  0  0  0  0
 20 21  1  0  0  0  0
 20 22  1  0  0  0  0
 22 23  1  0  0  0  0
 22 24  1  0  0  0  0
 22 25  1  0  0  0  0
 20 26  1  0  0  0  0
 26 27  1  0  0  0  0
 26 28  1  0  0  0  0
 26 29  1  0  0  0  0
M  END
> <VConfSearch Rank>
868

> <Conf_Id>
39

> <Delta U+W>
0.965

> <U+W>
-26.861

> <U>
25.129

> <W>
-51.990

> <W(PB)>
-54.526

> <W(SA)>
2.536

> <Valence>
4.206

> <Coulomb>
19.678

> <VdW>
1.245

> <VdW6>
-8.834

> <VdW12>
10.079

> <Bond>
0.240

> <Angle>
1.353

> <Pdih>
2.613

> <Idih>
0.000

> <Tether>
0.000

$$$$
VeraChem MOL file


 29 28  0  0  0  0  0  0  0  0999 V2000     
   22.9769   21.4040   25.0276 C   0  0  0  0  0  0  0  0  0  0  0  0
   22.3188   21.8447   25.7877 H   0  0  0  0  0  0  0  0  0  0  0  0
   23.2406   20.3884   25.3473 H   0  0  0  0  0  0  0  0  0  0  0  0
   23.9033   21.9924   25.0041 H   0  0  0  0  0  0  0  0  0  0  0  0
   22.3004   21.4060   23.6379 C   0  0  0  0  0  0  0  0  0  0  0  0
   22.9633   20.9289   22.9027 H   0  0  0  0  0  0  0  0  0  0  0  0
   22.1753   22.4470   23.3088 H   0  0  0  0  0  0  0  0  0  0  0  0
   20.9165   20.7126   23.6230 C   0  0  0  0  0  0  0  0  0  0  0  0
   20.2577   21.1937   24.3589 H   0  0  0  0  0  0  0  0  0  0  0  0
   20.4622   20.8862   22.6394 H   0  0  0  0  0  0  0  0  0  0  0  0
   20.9871   19.1893   23.9003 C   0  0  0  0  0  0  0  0  0  0  0  0
   21.4494   19.0185   24.8810 H   0  0  0  0  0  0  0  0  0  0  0  0
   21.6424   18.7075   23.1617 H   0  0  0  0  0  0  0  0  0  0  0  0
   19.6029   18.4947   23.8982 C   0  0  0  0  0  0  0  0  0  0  0  0
   19.7413   17.4601   24.2381 H   0  0  0  0  0  0  0  0  0  0  0  0
   18.9565   18.9813   24.6405 H   0  0  0  0  0  0  0  0  0  0  0  0
   18.9135   18.4941   22.5062 C   0  0  0  0  0  0  0  0  0  0  0  0
   19.6155   18.1093   21.7550 H   0  0  0  0  0  0  0  0  0  0  0  0
   18.6820   19.5237   22.2070 H   0  0  0  0  0  0  0  0  0  0  0  0
   17.6100   17.6646   22.4285 C   0  0  2  0  0  0  0  0  0  0  0  0
   17.2362   17.7419   21.4028 H   0  0  0  0  0  0  0  0  0  0  0  0
   16.5194   18.2141   23.3644 C   0  0  0  0  0  0  0  0  0  0  0  0
   16.7877   18.0836   24.4196 H   0  0  0  0  0  0  0  0  0  0  0  0
   16.3511   19.2827   23.1817 H   0  0  0  0  0  0  0  0  0  0  0  0
   15.5691   17.6936   23.1934 H   0  0  0  0  0  0  0  0  0  0  0  0
   17.8445   16.1998   22.6760 N   0  3  0  0  0  0  0  0  0  0  0  0
   18.5385   15.8161   22.0281 H   0  0  0  0  0  0  0  0  0  0  0  0
   16.9834   15.6581   22.5584 H   0  0  0  0  0  0  0  0  0  0  0  0
   18.1844   16.0334   23.6263 H   0  0  0  0  0  0  0  0  0  0  0  0
  1  2  1  0  0  0  0
  1  3  1  0  0  0  0
  1  4  1  0  0  0  0
  1  5  1  0  0  0  0
  5  6  1  0  0  0  0
  5  7  1  0  0  0  0
  5  8  1  0  0  0  0
  8  9  1  0  0  0  0
  8 10  1  0  0  0  0
  8 11  1  0  0  0  0
 11 12  1  0  0  0  0
 11 13  1  0  0  0  0
 11 14  1  0  0  0  0
 14 15  1  0  0  0  0
 14 16  1  0  0  0  0
 14 17  1  0  0  0  0
 17 18  1  0  0  0  0
 17 19  1  0  0  0  0
 17 20  1  0  0  0  0
 20 21  1  0  0  0  0
 20 22  1  0  0  0  0
 22 23  1  0  0  0  0
 22 24  1  0  0  0  0
 22 25  1  0  0  0  0
 20 26  1  0  0  0  0
 26 27  1  0  0  0  0
 26 28  1  0  0  0  0
 26 29  1  0  0  0  0
M  END
> <VConfSearch Rank>
869

> <Conf_Id>
155

> <Delta U+W>
1.624

> <U+W>
-26.202

> <U>
25.894

> <W>
-52.096

> <W(PB)>
-54.602

> <W(SA)>
2.506

> <Valence>
4.779

> <Coulomb>
19.659

> <VdW>
1.456

> <VdW6>
-9.843

> <VdW12>
11.299

> <Bond>
0.315

> <Angle>
1.725

> <Pdih>
2.740

> <Idih>
0.000

> <Tether>
0.000

$$$$
VeraChem MOL file


 29 28  0  0  0  0  0  0  0  0999 V2000     
   23.3094   20.2131   25.1184 C   0  0  0  0  0  0  0  0  0  0  0  0
   23.5733   19.7900   24.1412 H   0  0  0  0  0  0  0  0  0  0  0  0
   22.8434   21.1934   24.9547 H   0  0  0  0  0  0  0  0  0  0  0  0
   24.2436   20.3733   25.6721 H   0  0  0  0  0  0  0  0  0  0  0  0
   22.3675   19.2750   25.9066 C   0  0  0  0  0  0  0  0  0  0  0  0
   22.2254   19.6823   26.9173 H   0  0  0  0  0  0  0  0  0  0  0  0
   22.8457   18.2939   26.0348 H   0  0  0  0  0  0  0  0  0  0  0  0
   20.9810   19.0990   25.2418 C   0  0  0  0  0  0  0  0  0  0  0  0
   20.3455   18.5040   25.9120 H   0  0  0  0  0  0  0  0  0  0  0  0
   20.5021   20.0824   25.1496 H   0  0  0  0  0  0  0  0  0  0  0  0
   21.0490   18.4050   23.8578 C   0  0  0  0  0  0  0  0  0  0  0  0
   21.6497   17.4895   23.9480 H   0  0  0  0  0  0  0  0  0  0  0  0
   21.5720   19.0489   23.1384 H   0  0  0  0  0  0  0  0  0  0  0  0
   19.6610   18.0246   23.2856 C   0  0  0  0  0  0  0  0  0  0  0  0
   19.8239   17.4233   22.3821 H   0  0  0  0  0  0  0  0  0  0  0  0
   19.1342   17.3758   23.9988 H   0  0  0  0  0  0  0  0  0  0  0  0
   18.7767   19.2516   22.9420 C   0  0  0  0  0  0  0  0  0  0  0  0
   19.2983   19.8939   22.2200 H   0  0  0  0  0  0  0  0  0  0  0  0
   18.6332   19.8531   23.8477 H   0  0  0  0  0  0  0  0  0  0  0  0
   17.3807   18.8786   22.3922 C   0  0  2  0  0  0  0  0  0  0  0  0
   16.9058   18.1911   23.0989 H   0  0  0  0  0  0  0  0  0  0  0  0
   17.4600   18.1888   21.0182 C   0  0  0  0  0  0  0  0  0  0  0  0
   17.9914   18.8143   20.2902 H   0  0  0  0  0  0  0  0  0  0  0  0
   17.9754   17.2239   21.0840 H   0  0  0  0  0  0  0  0  0  0  0  0
   16.4544   17.9916   20.6268 H   0  0  0  0  0  0  0  0  0  0  0  0
   16.4896   20.0871   22.3134 N   0  3  0  0  0  0  0  0  0  0  0  0
   16.3843   20.5384   23.2267 H   0  0  0  0  0  0  0  0  0  0  0  0
   15.5513   19.8390   21.9866 H   0  0  0  0  0  0  0  0  0  0  0  0
   16.8637   20.7859   21.6658 H   0  0  0  0  0  0  0  0  0  0  0  0
  1  2  1  0  0  0  0
  1  3  1  0  0  0  0
  1  4  1  0  0  0  0
  1  5  1  0  0  0  0
  5  6  1  0  0  0  0
  5  7  1  0  0  0  0
  5  8  1  0  0  0  0
  8  9  1  0  0  0  0
  8 10  1  0  0  0  0
  8 11  1  0  0  0  0
 11 12  1  0  0  0  0
 11 13  1  0  0  0  0
 11 14  1  0  0  0  0
 14 15  1  0  0  0  0
 14 16  1  0  0  0  0
 14 17  1  0  0  0  0
 17 18  1  0  0  0  0
 17 19  1  0  0  0  0
 17 20  1  0  0  0  0
 20 21  1  0  0  0  0
 20 22  1  0  0  0  0
 22 23  1  0  0  0  0
 22 24  1  0  0  0  0
 22 25  1  0  0  0  0
 20 26  1  0  0  0  0
 26 27  1  0  0  0  0
 26 28  1  0  0  0  0
 26 29  1  0  0  0  0
M  END
> <VConfSearch Rank>
870

> <Conf_Id>
135

> <Delta U+W>
1.581

> <U+W>
-26.245

> <U>
25.974

> <W>
-52.219

> <W(PB)>
-54.709

> <W(SA)>
2.490

> <Valence>
4.811

> <Coulomb>
19.700

> <VdW>
1.463

> <VdW6>
-9.391

> <VdW12>
10.854

> <Bond>
0.285

> <Angle>
1.671

> <Pdih>
2.855

> <Idih>
0.000

> <Tether>
0.000

$$$$
VeraChem MOL file


 29 28  0  0  0  0  0  0  0  0999 V2000     
   20.6085   22.9438   24.6527 C   0  0  0  0  0  0  0  0  0  0  0  0
   19.6332   23.0838   24.1689 H   0  0  0  0  0  0  0  0  0  0  0  0
   20.4442   22.4657   25.6264 H   0  0  0  0  0  0  0  0  0  0  0  0
   21.0360   23.9372   24.8406 H   0  0  0  0  0  0  0  0  0  0  0  0
   21.5551   22.1070   23.7627 C   0  0  0  0  0  0  0  0  0  0  0  0
   22.5136   21.9589   24.2796 H   0  0  0  0  0  0  0  0  0  0  0  0
   21.7822   22.6779   22.8515 H   0  0  0  0  0  0  0  0  0  0  0  0
   20.9622   20.7366   23.3560 C   0  0  0  0  0  0  0  0  0  0  0  0
   20.0207   20.8994   22.8151 H   0  0  0  0  0  0  0  0  0  0  0  0
   21.6496   20.2551   22.6470 H   0  0  0  0  0  0  0  0  0  0  0  0
   20.7284   19.7881   24.5588 C   0  0  0  0  0  0  0  0  0  0  0  0
   19.9538   20.2006   25.2187 H   0  0  0  0  0  0  0  0  0  0  0  0
   21.6485   19.7336   25.1568 H   0  0  0  0  0  0  0  0  0  0  0  0
   20.3283   18.3523   24.1394 C   0  0  0  0  0  0  0  0  0  0  0  0
   21.1237   17.9275   23.5129 H   0  0  0  0  0  0  0  0  0  0  0  0
   20.2750   17.7271   25.0414 H   0  0  0  0  0  0  0  0  0  0  0  0
   18.9688   18.2862   23.3971 C   0  0  0  0  0  0  0  0  0  0  0  0
   19.0440   18.7937   22.4270 H   0  0  0  0  0  0  0  0  0  0  0  0
   18.2228   18.8390   23.9832 H   0  0  0  0  0  0  0  0  0  0  0  0
   18.4521   16.8458   23.1802 C   0  0  2  0  0  0  0  0  0  0  0  0
   18.4175   16.3436   24.1519 H   0  0  0  0  0  0  0  0  0  0  0  0
   19.3693   16.0366   22.2459 C   0  0  0  0  0  0  0  0  0  0  0  0
   19.4836   16.5332   21.2743 H   0  0  0  0  0  0  0  0  0  0  0  0
   20.3656   15.9031   22.6831 H   0  0  0  0  0  0  0  0  0  0  0  0
   18.9556   15.0360   22.0700 H   0  0  0  0  0  0  0  0  0  0  0  0
   17.0440   16.8479   22.6535 N   0  3  0  0  0  0  0  0  0  0  0  0
   16.6837   15.8953   22.5459 H   0  0  0  0  0  0  0  0  0  0  0  0
   16.9879   17.3010   21.7374 H   0  0  0  0  0  0  0  0  0  0  0  0
   16.4068   17.3450   23.2826 H   0  0  0  0  0  0  0  0  0  0  0  0
  1  2  1  0  0  0  0
  1  3  1  0  0  0  0
  1  4  1  0  0  0  0
  1  5  1  0  0  0  0
  5  6  1  0  0  0  0
  5  7  1  0  0  0  0
  5  8  1  0  0  0  0
  8  9  1  0  0  0  0
  8 10  1  0  0  0  0
  8 11  1  0  0  0  0
 11 12  1  0  0  0  0
 11 13  1  0  0  0  0
 11 14  1  0  0  0  0
 14 15  1  0  0  0  0
 14 16  1  0  0  0  0
 14 17  1  0  0  0  0
 17 18  1  0  0  0  0
 17 19  1  0  0  0  0
 17 20  1  0  0  0  0
 20 21  1  0  0  0  0
 20 22  1  0  0  0  0
 22 23  1  0  0  0  0
 22 24  1  0  0  0  0
 22 25  1  0  0  0  0
 20 26  1  0  0  0  0
 26 27  1  0  0  0  0
 26 28  1  0  0  0  0
 26 29  1  0  0  0  0
M  END
> <VConfSearch Rank>
871

> <Conf_Id>
130

> <Delta U+W>
1.359

> <U+W>
-26.467

> <U>
25.687

> <W>
-52.154

> <W(PB)>
-54.643

> <W(SA)>
2.489

> <Valence>
4.682

> <Coulomb>
19.653

> <VdW>
1.352

> <VdW6>
-9.477

> <VdW12>
10.829

> <Bond>
0.274

> <Angle>
1.550

> <Pdih>
2.858

> <Idih>
0.000

> <Tether>
0.000

$$$$
VeraChem MOL file


 29 28  0  0  0  0  0  0  0  0999 V2000     
   16.9360   21.8187   22.5241 C   0  0  0  0  0  0  0  0  0  0  0  0
   15.9212   22.1770   22.7403 H   0  0  0  0  0  0  0  0  0  0  0  0
   17.4913   22.6435   22.0590 H   0  0  0  0  0  0  0  0  0  0  0  0
   16.8493   21.0060   21.7924 H   0  0  0  0  0  0  0  0  0  0  0  0
   17.6293   21.3439   23.8212 C   0  0  0  0  0  0  0  0  0  0  0  0
   17.0738   20.4975   24.2488 H   0  0  0  0  0  0  0  0  0  0  0  0
   17.5789   22.1516   24.5647 H   0  0  0  0  0  0  0  0  0  0  0  0
   19.1120   20.9479   23.6192 C   0  0  0  0  0  0  0  0  0  0  0  0
   19.6658   21.8035   23.2089 H   0  0  0  0  0  0  0  0  0  0  0  0
   19.5486   20.7451   24.6052 H   0  0  0  0  0  0  0  0  0  0  0  0
   19.3000   19.7156   22.6977 C   0  0  0  0  0  0  0  0  0  0  0  0
   18.9203   19.9564   21.6963 H   0  0  0  0  0  0  0  0  0  0  0  0
   18.6892   18.8827   23.0664 H   0  0  0  0  0  0  0  0  0  0  0  0
   20.7822   19.2816   22.5563 C   0  0  0  0  0  0  0  0  0  0  0  0
   20.8899   18.6194   21.6862 H   0  0  0  0  0  0  0  0  0  0  0  0
   21.3821   20.1718   22.3215 H   0  0  0  0  0  0  0  0  0  0  0  0
   21.3796   18.5860   23.8109 C   0  0  0  0  0  0  0  0  0  0  0  0
   20.8737   18.9212   24.7241 H   0  0  0  0  0  0  0  0  0  0  0  0
   22.4226   18.9146   23.9098 H   0  0  0  0  0  0  0  0  0  0  0  0
   21.3818   17.0397   23.7509 C   0  0  2  0  0  0  0  0  0  0  0  0
   21.9271   16.7343   22.8526 H   0  0  0  0  0  0  0  0  0  0  0  0
   19.9649   16.4459   23.6781 C   0  0  0  0  0  0  0  0  0  0  0  0
   19.4711   16.7207   22.7390 H   0  0  0  0  0  0  0  0  0  0  0  0
   20.0020   15.3502   23.7146 H   0  0  0  0  0  0  0  0  0  0  0  0
   19.3446   16.7941   24.5134 H   0  0  0  0  0  0  0  0  0  0  0  0
   22.1298   16.4559   24.9172 N   0  3  0  0  0  0  0  0  0  0  0  0
   23.0931   16.8014   24.9586 H   0  0  0  0  0  0  0  0  0  0  0  0
   22.1749   15.4345   24.8588 H   0  0  0  0  0  0  0  0  0  0  0  0
   21.6797   16.6915   25.8057 H   0  0  0  0  0  0  0  0  0  0  0  0
  1  2  1  0  0  0  0
  1  3  1  0  0  0  0
  1  4  1  0  0  0  0
  1  5  1  0  0  0  0
  5  6  1  0  0  0  0
  5  7  1  0  0  0  0
  5  8  1  0  0  0  0
  8  9  1  0  0  0  0
  8 10  1  0  0  0  0
  8 11  1  0  0  0  0
 11 12  1  0  0  0  0
 11 13  1  0  0  0  0
 11 14  1  0  0  0  0
 14 15  1  0  0  0  0
 14 16  1  0  0  0  0
 14 17  1  0  0  0  0
 17 18  1  0  0  0  0
 17 19  1  0  0  0  0
 17 20  1  0  0  0  0
 20 21  1  0  0  0  0
 20 22  1  0  0  0  0
 22 23  1  0  0  0  0
 22 24  1  0  0  0  0
 22 25  1  0  0  0  0
 20 26  1  0  0  0  0
 26 27  1  0  0  0  0
 26 28  1  0  0  0  0
 26 29  1  0  0  0  0
M  END
> <VConfSearch Rank>
872

> <Conf_Id>
157

> <Delta U+W>
4.354

> <U+W>
-23.472

> <U>
28.780

> <W>
-52.252

> <W(PB)>
-54.715

> <W(SA)>
2.462

> <Valence>
7.566

> <Coulomb>
19.822

> <VdW>
1.392

> <VdW6>
-10.248

> <VdW12>
11.641

> <Bond>
0.340

> <Angle>
2.096

> <Pdih>
5.129

> <Idih>
0.000

> <Tether>
0.000

$$$$
VeraChem MOL file


 29 28  0  0  0  0  0  0  0  0999 V2000     
   19.0287   16.1177   21.5058 C   0  0  0  0  0  0  0  0  0  0  0  0
   19.0153   15.7366   20.4765 H   0  0  0  0  0  0  0  0  0  0  0  0
   20.0122   16.5675   21.6809 H   0  0  0  0  0  0  0  0  0  0  0  0
   18.9263   15.2577   22.1804 H   0  0  0  0  0  0  0  0  0  0  0  0
   17.8788   17.1286   21.7233 C   0  0  0  0  0  0  0  0  0  0  0  0
   16.9310   16.6134   21.5133 H   0  0  0  0  0  0  0  0  0  0  0  0
   17.9458   17.9470   20.9930 H   0  0  0  0  0  0  0  0  0  0  0  0
   17.8241   17.6956   23.1653 C   0  0  0  0  0  0  0  0  0  0  0  0
   16.7684   17.8204   23.4431 H   0  0  0  0  0  0  0  0  0  0  0  0
   18.2319   16.9644   23.8768 H   0  0  0  0  0  0  0  0  0  0  0  0
   18.5204   19.0681   23.3538 C   0  0  0  0  0  0  0  0  0  0  0  0
   18.3475   19.3912   24.3884 H   0  0  0  0  0  0  0  0  0  0  0  0
   18.0308   19.8153   22.7142 H   0  0  0  0  0  0  0  0  0  0  0  0
   20.0405   19.0567   23.0582 C   0  0  0  0  0  0  0  0  0  0  0  0
   20.5269   18.2556   23.6301 H   0  0  0  0  0  0  0  0  0  0  0  0
   20.1985   18.8203   21.9982 H   0  0  0  0  0  0  0  0  0  0  0  0
   20.7317   20.4141   23.3480 C   0  0  0  0  0  0  0  0  0  0  0  0
   20.2836   21.1831   22.7047 H   0  0  0  0  0  0  0  0  0  0  0  0
   21.7874   20.3459   23.0534 H   0  0  0  0  0  0  0  0  0  0  0  0
   20.6437   20.8753   24.8203 C   0  0  2  0  0  0  0  0  0  0  0  0
   19.5881   20.9698   25.0907 H   0  0  0  0  0  0  0  0  0  0  0  0
   21.3050   22.2522   24.9894 C   0  0  0  0  0  0  0  0  0  0  0  0
   22.3721   22.2142   24.7372 H   0  0  0  0  0  0  0  0  0  0  0  0
   20.8267   22.9963   24.3403 H   0  0  0  0  0  0  0  0  0  0  0  0
   21.2107   22.6036   26.0243 H   0  0  0  0  0  0  0  0  0  0  0  0
   21.2464   19.8778   25.7708 N   0  3  0  0  0  0  0  0  0  0  0  0
   20.7860   18.9668   25.6928 H   0  0  0  0  0  0  0  0  0  0  0  0
   21.1579   20.1859   26.7434 H   0  0  0  0  0  0  0  0  0  0  0  0
   22.2426   19.7381   25.5821 H   0  0  0  0  0  0  0  0  0  0  0  0
  1  2  1  0  0  0  0
  1  3  1  0  0  0  0
  1  4  1  0  0  0  0
  1  5  1  0  0  0  0
  5  6  1  0  0  0  0
  5  7  1  0  0  0  0
  5  8  1  0  0  0  0
  8  9  1  0  0  0  0
  8 10  1  0  0  0  0
  8 11  1  0  0  0  0
 11 12  1  0  0  0  0
 11 13  1  0  0  0  0
 11 14  1  0  0  0  0
 14 15  1  0  0  0  0
 14 16  1  0  0  0  0
 14 17  1  0  0  0  0
 17 18  1  0  0  0  0
 17 19  1  0  0  0  0
 17 20  1  0  0  0  0
 20 21  1  0  0  0  0
 20 22  1  0  0  0  0
 22 23  1  0  0  0  0
 22 24  1  0  0  0  0
 22 25  1  0  0  0  0
 20 26  1  0  0  0  0
 26 27  1  0  0  0  0
 26 28  1  0  0  0  0
 26 29  1  0  0  0  0
M  END
> <VConfSearch Rank>
873

> <Conf_Id>
158

> <Delta U+W>
3.648

> <U+W>
-24.178

> <U>
28.057

> <W>
-52.235

> <W(PB)>
-54.696

> <W(SA)>
2.460

> <Valence>
6.543

> <Coulomb>
20.387

> <VdW>
1.127

> <VdW6>
-10.342

> <VdW12>
11.469

> <Bond>
0.308

> <Angle>
1.938

> <Pdih>
4.297

> <Idih>
0.000

> <Tether>
0.000

$$$$
VeraChem MOL file


 29 28  0  0  0  0  0  0  0  0999 V2000     
   21.8455   20.2526   26.3506 C   0  0  0  0  0  0  0  0  0  0  0  0
   22.3337   19.2701   26.3866 H   0  0  0  0  0  0  0  0  0  0  0  0
   21.9559   20.6551   25.3361 H   0  0  0  0  0  0  0  0  0  0  0  0
   22.3874   20.9219   27.0313 H   0  0  0  0  0  0  0  0  0  0  0  0
   20.3594   20.1502   26.7628 C   0  0  0  0  0  0  0  0  0  0  0  0
   19.8858   21.1390   26.6874 H   0  0  0  0  0  0  0  0  0  0  0  0
   20.3052   19.8633   27.8223 H   0  0  0  0  0  0  0  0  0  0  0  0
   19.5590   19.1211   25.9287 C   0  0  0  0  0  0  0  0  0  0  0  0
   20.0263   18.1311   26.0220 H   0  0  0  0  0  0  0  0  0  0  0  0
   18.5525   19.0299   26.3599 H   0  0  0  0  0  0  0  0  0  0  0  0
   19.4360   19.5012   24.4338 C   0  0  0  0  0  0  0  0  0  0  0  0
   20.4325   19.5421   23.9806 H   0  0  0  0  0  0  0  0  0  0  0  0
   19.0107   20.5105   24.3486 H   0  0  0  0  0  0  0  0  0  0  0  0
   18.5411   18.5010   23.6614 C   0  0  0  0  0  0  0  0  0  0  0  0
   18.9069   17.4737   23.7968 H   0  0  0  0  0  0  0  0  0  0  0  0
   17.5370   18.5258   24.1071 H   0  0  0  0  0  0  0  0  0  0  0  0
   18.4160   18.8269   22.1494 C   0  0  0  0  0  0  0  0  0  0  0  0
   18.5513   19.9032   21.9789 H   0  0  0  0  0  0  0  0  0  0  0  0
   17.3855   18.6033   21.8431 H   0  0  0  0  0  0  0  0  0  0  0  0
   19.3606   18.0168   21.2289 C   0  0  2  0  0  0  0  0  0  0  0  0
   19.1625   16.9527   21.3903 H   0  0  0  0  0  0  0  0  0  0  0  0
   20.8481   18.2766   21.5204 C   0  0  0  0  0  0  0  0  0  0  0  0
   21.0834   19.3467   21.4650 H   0  0  0  0  0  0  0  0  0  0  0  0
   21.1238   17.9090   22.5156 H   0  0  0  0  0  0  0  0  0  0  0  0
   21.4820   17.7505   20.7960 H   0  0  0  0  0  0  0  0  0  0  0  0
   19.0612   18.2860   19.7803 N   0  3  0  0  0  0  0  0  0  0  0  0
   18.0860   18.0732   19.5508 H   0  0  0  0  0  0  0  0  0  0  0  0
   19.6499   17.7173   19.1650 H   0  0  0  0  0  0  0  0  0  0  0  0
   19.2269   19.2672   19.5405 H   0  0  0  0  0  0  0  0  0  0  0  0
  1  2  1  0  0  0  0
  1  3  1  0  0  0  0
  1  4  1  0  0  0  0
  1  5  1  0  0  0  0
  5  6  1  0  0  0  0
  5  7  1  0  0  0  0
  5  8  1  0  0  0  0
  8  9  1  0  0  0  0
  8 10  1  0  0  0  0
  8 11  1  0  0  0  0
 11 12  1  0  0  0  0
 11 13  1  0  0  0  0
 11 14  1  0  0  0  0
 14 15  1  0  0  0  0
 14 16  1  0  0  0  0
 14 17  1  0  0  0  0
 17 18  1  0  0  0  0
 17 19  1  0  0  0  0
 17 20  1  0  0  0  0
 20 21  1  0  0  0  0
 20 22  1  0  0  0  0
 22 23  1  0  0  0  0
 22 24  1  0  0  0  0
 22 25  1  0  0  0  0
 20 26  1  0  0  0  0
 26 27  1  0  0  0  0
 26 28  1  0  0  0  0
 26 29  1  0  0  0  0
M  END
> <VConfSearch Rank>
874

> <Conf_Id>
156

> <Delta U+W>
3.393

> <U+W>
-24.433

> <U>
27.713

> <W>
-52.146

> <W(PB)>
-54.603

> <W(SA)>
2.458

> <Valence>
6.758

> <Coulomb>
19.720

> <VdW>
1.235

> <VdW6>
-9.782

> <VdW12>
11.017

> <Bond>
0.287

> <Angle>
1.880

> <Pdih>
4.591

> <Idih>
0.000

> <Tether>
0.000

$$$$
VeraChem MOL file


 29 28  0  0  0  0  0  0  0  0999 V2000     
   17.5730   21.8981   25.2534 C   0  0  0  0  0  0  0  0  0  0  0  0
   17.2239   21.0933   25.9135 H   0  0  0  0  0  0  0  0  0  0  0  0
   17.9521   22.7151   25.8810 H   0  0  0  0  0  0  0  0  0  0  0  0
   16.7066   22.2762   24.6954 H   0  0  0  0  0  0  0  0  0  0  0  0
   18.6631   21.3885   24.2872 C   0  0  0  0  0  0  0  0  0  0  0  0
   18.9712   22.2061   23.6207 H   0  0  0  0  0  0  0  0  0  0  0  0
   18.2355   20.6021   23.6513 H   0  0  0  0  0  0  0  0  0  0  0  0
   19.8937   20.8459   25.0511 C   0  0  0  0  0  0  0  0  0  0  0  0
   20.2579   21.6228   25.7373 H   0  0  0  0  0  0  0  0  0  0  0  0
   19.5943   20.0019   25.6863 H   0  0  0  0  0  0  0  0  0  0  0  0
   21.0653   20.4265   24.1258 C   0  0  0  0  0  0  0  0  0  0  0  0
   21.9000   20.0787   24.7497 H   0  0  0  0  0  0  0  0  0  0  0  0
   21.4361   21.3164   23.5987 H   0  0  0  0  0  0  0  0  0  0  0  0
   20.7312   19.3329   23.0781 C   0  0  0  0  0  0  0  0  0  0  0  0
   19.9832   19.7152   22.3723 H   0  0  0  0  0  0  0  0  0  0  0  0
   21.6379   19.1481   22.4880 H   0  0  0  0  0  0  0  0  0  0  0  0
   20.2422   18.0015   23.7109 C   0  0  0  0  0  0  0  0  0  0  0  0
   19.3199   18.1811   24.2767 H   0  0  0  0  0  0  0  0  0  0  0  0
   20.9838   17.6524   24.4414 H   0  0  0  0  0  0  0  0  0  0  0  0
   19.9642   16.8639   22.7000 C   0  0  2  0  0  0  0  0  0  0  0  0
   19.5792   16.0118   23.2687 H   0  0  0  0  0  0  0  0  0  0  0  0
   21.2426   16.4003   21.9801 C   0  0  0  0  0  0  0  0  0  0  0  0
   21.0409   15.5038   21.3811 H   0  0  0  0  0  0  0  0  0  0  0  0
   21.6323   17.1717   21.3055 H   0  0  0  0  0  0  0  0  0  0  0  0
   22.0275   16.1469   22.7035 H   0  0  0  0  0  0  0  0  0  0  0  0
   18.8898   17.2248   21.7115 N   0  3  0  0  0  0  0  0  0  0  0  0
   18.0197   17.4887   22.1825 H   0  0  0  0  0  0  0  0  0  0  0  0
   18.6757   16.4402   21.0892 H   0  0  0  0  0  0  0  0  0  0  0  0
   19.1756   18.0129   21.1251 H   0  0  0  0  0  0  0  0  0  0  0  0
  1  2  1  0  0  0  0
  1  3  1  0  0  0  0
  1  4  1  0  0  0  0
  1  5  1  0  0  0  0
  5  6  1  0  0  0  0
  5  7  1  0  0  0  0
  5  8  1  0  0  0  0
  8  9  1  0  0  0  0
  8 10  1  0  0  0  0
  8 11  1  0  0  0  0
 11 12  1  0  0  0  0
 11 13  1  0  0  0  0
 11 14  1  0  0  0  0
 14 15  1  0  0  0  0
 14 16  1  0  0  0  0
 14 17  1  0  0  0  0
 17 18  1  0  0  0  0
 17 19  1  0  0  0  0
 17 20  1  0  0  0  0
 20 21  1  0  0  0  0
 20 22  1  0  0  0  0
 22 23  1  0  0  0  0
 22 24  1  0  0  0  0
 22 25  1  0  0  0  0
 20 26  1  0  0  0  0
 26 27  1  0  0  0  0
 26 28  1  0  0  0  0
 26 29  1  0  0  0  0
M  END
> <VConfSearch Rank>
875

> <Conf_Id>
78

> <Delta U+W>
1.477

> <U+W>
-26.349

> <U>
26.385

> <W>
-52.734

> <W(PB)>
-55.179

> <W(SA)>
2.445

> <Valence>
4.726

> <Coulomb>
20.482

> <VdW>
1.177

> <VdW6>
-10.349

> <VdW12>
11.526

> <Bond>
0.319

> <Angle>
1.933

> <Pdih>
2.474

> <Idih>
0.000

> <Tether>
0.000

$$$$
VeraChem MOL file


 29 28  0  0  0  0  0  0  0  0999 V2000     
   19.5204   22.6220   22.4965 C   0  0  0  0  0  0  0  0  0  0  0  0
   20.4652   23.1336   22.7220 H   0  0  0  0  0  0  0  0  0  0  0  0
   19.7454   21.7733   21.8413 H   0  0  0  0  0  0  0  0  0  0  0  0
   18.8900   23.3209   21.9317 H   0  0  0  0  0  0  0  0  0  0  0  0
   18.8087   22.1811   23.7968 C   0  0  0  0  0  0  0  0  0  0  0  0
   17.8289   21.7404   23.5659 H   0  0  0  0  0  0  0  0  0  0  0  0
   18.6019   23.0819   24.3916 H   0  0  0  0  0  0  0  0  0  0  0  0
   19.6509   21.2036   24.6564 C   0  0  0  0  0  0  0  0  0  0  0  0
   20.7229   21.3786   24.4907 H   0  0  0  0  0  0  0  0  0  0  0  0
   19.4734   21.4398   25.7147 H   0  0  0  0  0  0  0  0  0  0  0  0
   19.3189   19.7029   24.4521 C   0  0  0  0  0  0  0  0  0  0  0  0
   18.2704   19.5213   24.7254 H   0  0  0  0  0  0  0  0  0  0  0  0
   19.9252   19.1272   25.1632 H   0  0  0  0  0  0  0  0  0  0  0  0
   19.5727   19.1847   23.0151 C   0  0  0  0  0  0  0  0  0  0  0  0
   18.9027   19.7074   22.3207 H   0  0  0  0  0  0  0  0  0  0  0  0
   20.5952   19.4334   22.7024 H   0  0  0  0  0  0  0  0  0  0  0  0
   19.3206   17.6624   22.8582 C   0  0  0  0  0  0  0  0  0  0  0  0
   19.4815   17.3824   21.8087 H   0  0  0  0  0  0  0  0  0  0  0  0
   18.2611   17.4634   23.0669 H   0  0  0  0  0  0  0  0  0  0  0  0
   20.1836   16.7520   23.7639 C   0  0  2  0  0  0  0  0  0  0  0  0
   20.0010   17.0273   24.8066 H   0  0  0  0  0  0  0  0  0  0  0  0
   21.6874   16.9061   23.4758 C   0  0  0  0  0  0  0  0  0  0  0  0
   22.2724   16.2135   24.0934 H   0  0  0  0  0  0  0  0  0  0  0  0
   21.9131   16.6972   22.4227 H   0  0  0  0  0  0  0  0  0  0  0  0
   22.0346   17.9198   23.7077 H   0  0  0  0  0  0  0  0  0  0  0  0
   19.7725   15.3120   23.6318 N   0  3  0  0  0  0  0  0  0  0  0  0
   19.9164   14.9681   22.6785 H   0  0  0  0  0  0  0  0  0  0  0  0
   18.7830   15.1798   23.8606 H   0  0  0  0  0  0  0  0  0  0  0  0
   20.3134   14.7095   24.2588 H   0  0  0  0  0  0  0  0  0  0  0  0
  1  2  1  0  0  0  0
  1  3  1  0  0  0  0
  1  4  1  0  0  0  0
  1  5  1  0  0  0  0
  5  6  1  0  0  0  0
  5  7  1  0  0  0  0
  5  8  1  0  0  0  0
  8  9  1  0  0  0  0
  8 10  1  0  0  0  0
  8 11  1  0  0  0  0
 11 12  1  0  0  0  0
 11 13  1  0  0  0  0
 11 14  1  0  0  0  0
 14 15  1  0  0  0  0
 14 16  1  0  0  0  0
 14 17  1  0  0  0  0
 17 18  1  0  0  0  0
 17 19  1  0  0  0  0
 17 20  1  0  0  0  0
 20 21  1  0  0  0  0
 20 22  1  0  0  0  0
 22 23  1  0  0  0  0
 22 24  1  0  0  0  0
 22 25  1  0  0  0  0
 20 26  1  0  0  0  0
 26 27  1  0  0  0  0
 26 28  1  0  0  0  0
 26 29  1  0  0  0  0
M  END
> <VConfSearch Rank>
876

> <Conf_Id>
145

> <Delta U+W>
3.784

> <U+W>
-24.042

> <U>
28.220

> <W>
-52.262

> <W(PB)>
-54.724

> <W(SA)>
2.462

> <Valence>
7.040

> <Coulomb>
19.984

> <VdW>
1.197

> <VdW6>
-10.566

> <VdW12>
11.763

> <Bond>
0.320

> <Angle>
2.280

> <Pdih>
4.439

> <Idih>
0.000

> <Tether>
0.000

$$$$
VeraChem MOL file


 29 28  0  0  0  0  0  0  0  0999 V2000     
   21.1765   21.5343   20.6918 C   0  0  0  0  0  0  0  0  0  0  0  0
   21.8799   21.2205   19.9094 H   0  0  0  0  0  0  0  0  0  0  0  0
   20.1564   21.3781   20.3173 H   0  0  0  0  0  0  0  0  0  0  0  0
   21.3140   22.6108   20.8565 H   0  0  0  0  0  0  0  0  0  0  0  0
   21.4134   20.7483   21.9986 C   0  0  0  0  0  0  0  0  0  0  0  0
   20.7253   21.1162   22.7691 H   0  0  0  0  0  0  0  0  0  0  0  0
   22.4292   20.9529   22.3647 H   0  0  0  0  0  0  0  0  0  0  0  0
   21.2366   19.2252   21.7877 C   0  0  0  0  0  0  0  0  0  0  0  0
   20.2493   19.0093   21.3568 H   0  0  0  0  0  0  0  0  0  0  0  0
   21.9713   18.8972   21.0394 H   0  0  0  0  0  0  0  0  0  0  0  0
   21.4484   18.3952   23.0807 C   0  0  0  0  0  0  0  0  0  0  0  0
   22.1352   18.9171   23.7612 H   0  0  0  0  0  0  0  0  0  0  0  0
   21.9579   17.4609   22.8071 H   0  0  0  0  0  0  0  0  0  0  0  0
   20.1448   18.0133   23.8285 C   0  0  0  0  0  0  0  0  0  0  0  0
   19.5199   17.3997   23.1661 H   0  0  0  0  0  0  0  0  0  0  0  0
   20.4213   17.3702   24.6735 H   0  0  0  0  0  0  0  0  0  0  0  0
   19.3289   19.2292   24.3428 C   0  0  0  0  0  0  0  0  0  0  0  0
   18.9804   19.8184   23.4859 H   0  0  0  0  0  0  0  0  0  0  0  0
   19.9844   19.8891   24.9262 H   0  0  0  0  0  0  0  0  0  0  0  0
   18.0927   18.8688   25.2004 C   0  0  2  0  0  0  0  0  0  0  0  0
   17.5732   19.8045   25.4291 H   0  0  0  0  0  0  0  0  0  0  0  0
   18.4833   18.2183   26.5392 C   0  0  0  0  0  0  0  0  0  0  0  0
   17.6015   18.1074   27.1821 H   0  0  0  0  0  0  0  0  0  0  0  0
   18.9194   17.2227   26.3967 H   0  0  0  0  0  0  0  0  0  0  0  0
   19.2105   18.8390   27.0771 H   0  0  0  0  0  0  0  0  0  0  0  0
   17.1051   18.0151   24.4539 N   0  3  0  0  0  0  0  0  0  0  0  0
   17.5102   17.1082   24.2091 H   0  0  0  0  0  0  0  0  0  0  0  0
   16.8032   18.4636   23.5842 H   0  0  0  0  0  0  0  0  0  0  0  0
   16.2666   17.8365   25.0139 H   0  0  0  0  0  0  0  0  0  0  0  0
  1  2  1  0  0  0  0
  1  3  1  0  0  0  0
  1  4  1  0  0  0  0
  1  5  1  0  0  0  0
  5  6  1  0  0  0  0
  5  7  1  0  0  0  0
  5  8  1  0  0  0  0
  8  9  1  0  0  0  0
  8 10  1  0  0  0  0
  8 11  1  0  0  0  0
 11 12  1  0  0  0  0
 11 13  1  0  0  0  0
 11 14  1  0  0  0  0
 14 15  1  0  0  0  0
 14 16  1  0  0  0  0
 14 17  1  0  0  0  0
 17 18  1  0  0  0  0
 17 19  1  0  0  0  0
 17 20  1  0  0  0  0
 20 21  1  0  0  0  0
 20 22  1  0  0  0  0
 22 23  1  0  0  0  0
 22 24  1  0  0  0  0
 22 25  1  0  0  0  0
 20 26  1  0  0  0  0
 26 27  1  0  0  0  0
 26 28  1  0  0  0  0
 26 29  1  0  0  0  0
M  END
> <VConfSearch Rank>
877

> <Conf_Id>
71

> <Delta U+W>
3.542

> <U+W>
-24.284

> <U>
28.217

> <W>
-52.501

> <W(PB)>
-54.947

> <W(SA)>
2.446

> <Valence>
6.821

> <Coulomb>
20.147

> <VdW>
1.249

> <VdW6>
-10.237

> <VdW12>
11.486

> <Bond>
0.317

> <Angle>
1.990

> <Pdih>
4.515

> <Idih>
0.000

> <Tether>
0.000

$$$$
VeraChem MOL file


 29 28  0  0  0  0  0  0  0  0999 V2000     
   18.7205   15.3531   23.8999 C   0  0  0  0  0  0  0  0  0  0  0  0
   19.4475   15.3975   24.7213 H   0  0  0  0  0  0  0  0  0  0  0  0
   17.7564   15.0294   24.3135 H   0  0  0  0  0  0  0  0  0  0  0  0
   19.0582   14.5853   23.1919 H   0  0  0  0  0  0  0  0  0  0  0  0
   18.5921   16.7220   23.1991 C   0  0  0  0  0  0  0  0  0  0  0  0
   17.8846   16.6353   22.3626 H   0  0  0  0  0  0  0  0  0  0  0  0
   19.5602   16.9930   22.7611 H   0  0  0  0  0  0  0  0  0  0  0  0
   18.1060   17.8192   24.1765 C   0  0  0  0  0  0  0  0  0  0  0  0
   17.1222   17.5192   24.5632 H   0  0  0  0  0  0  0  0  0  0  0  0
   18.7698   17.8762   25.0501 H   0  0  0  0  0  0  0  0  0  0  0  0
   17.9684   19.2170   23.5184 C   0  0  0  0  0  0  0  0  0  0  0  0
   17.0952   19.7172   23.9596 H   0  0  0  0  0  0  0  0  0  0  0  0
   17.7405   19.1147   22.4485 H   0  0  0  0  0  0  0  0  0  0  0  0
   19.1899   20.1510   23.7177 C   0  0  0  0  0  0  0  0  0  0  0  0
   18.9422   21.1285   23.2841 H   0  0  0  0  0  0  0  0  0  0  0  0
   19.3363   20.3197   24.7929 H   0  0  0  0  0  0  0  0  0  0  0  0
   20.5039   19.6209   23.0850 C   0  0  0  0  0  0  0  0  0  0  0  0
   20.3124   19.3246   22.0455 H   0  0  0  0  0  0  0  0  0  0  0  0
   20.8211   18.7130   23.6128 H   0  0  0  0  0  0  0  0  0  0  0  0
   21.6825   20.6227   23.1006 C   0  0  2  0  0  0  0  0  0  0  0  0
   22.5368   20.1270   22.6292 H   0  0  0  0  0  0  0  0  0  0  0  0
   22.0970   21.0043   24.5323 C   0  0  0  0  0  0  0  0  0  0  0  0
   22.2984   20.1078   25.1318 H   0  0  0  0  0  0  0  0  0  0  0  0
   23.0127   21.6081   24.5186 H   0  0  0  0  0  0  0  0  0  0  0  0
   21.3182   21.5880   25.0374 H   0  0  0  0  0  0  0  0  0  0  0  0
   21.4061   21.8489   22.2747 N   0  3  0  0  0  0  0  0  0  0  0  0
   21.1711   21.6053   21.3082 H   0  0  0  0  0  0  0  0  0  0  0  0
   22.2192   22.4707   22.2448 H   0  0  0  0  0  0  0  0  0  0  0  0
   20.6234   22.3853   22.6567 H   0  0  0  0  0  0  0  0  0  0  0  0
  1  2  1  0  0  0  0
  1  3  1  0  0  0  0
  1  4  1  0  0  0  0
  1  5  1  0  0  0  0
  5  6  1  0  0  0  0
  5  7  1  0  0  0  0
  5  8  1  0  0  0  0
  8  9  1  0  0  0  0
  8 10  1  0  0  0  0
  8 11  1  0  0  0  0
 11 12  1  0  0  0  0
 11 13  1  0  0  0  0
 11 14  1  0  0  0  0
 14 15  1  0  0  0  0
 14 16  1  0  0  0  0
 14 17  1  0  0  0  0
 17 18  1  0  0  0  0
 17 19  1  0  0  0  0
 17 20  1  0  0  0  0
 20 21  1  0  0  0  0
 20 22  1  0  0  0  0
 22 23  1  0  0  0  0
 22 24  1  0  0  0  0
 22 25  1  0  0  0  0
 20 26  1  0  0  0  0
 26 27  1  0  0  0  0
 26 28  1  0  0  0  0
 26 29  1  0  0  0  0
M  END
> <VConfSearch Rank>
878

> <Conf_Id>
163

> <Delta U+W>
3.309

> <U+W>
-24.517

> <U>
27.916

> <W>
-52.433

> <W(PB)>
-54.866

> <W(SA)>
2.433

> <Valence>
6.693

> <Coulomb>
20.015

> <VdW>
1.208

> <VdW6>
-10.294

> <VdW12>
11.503

> <Bond>
0.312

> <Angle>
1.939

> <Pdih>
4.441

> <Idih>
0.000

> <Tether>
0.000

$$$$
VeraChem MOL file


 29 28  0  0  0  0  0  0  0  0999 V2000     
   19.1154   15.3383   22.6227 C   0  0  0  0  0  0  0  0  0  0  0  0
   19.5871   15.2170   21.6389 H   0  0  0  0  0  0  0  0  0  0  0  0
   19.8924   15.2442   23.3912 H   0  0  0  0  0  0  0  0  0  0  0  0
   18.4121   14.5072   22.7623 H   0  0  0  0  0  0  0  0  0  0  0  0
   18.3775   16.6928   22.7220 C   0  0  0  0  0  0  0  0  0  0  0  0
   17.9446   16.8058   23.7257 H   0  0  0  0  0  0  0  0  0  0  0  0
   17.5308   16.6848   22.0214 H   0  0  0  0  0  0  0  0  0  0  0  0
   19.2758   17.9111   22.3986 C   0  0  0  0  0  0  0  0  0  0  0  0
   19.7029   17.7956   21.3930 H   0  0  0  0  0  0  0  0  0  0  0  0
   18.6365   18.8025   22.3640 H   0  0  0  0  0  0  0  0  0  0  0  0
   20.4133   18.1288   23.4283 C   0  0  0  0  0  0  0  0  0  0  0  0
   21.0505   17.2358   23.4619 H   0  0  0  0  0  0  0  0  0  0  0  0
   19.9858   18.2340   24.4341 H   0  0  0  0  0  0  0  0  0  0  0  0
   21.3183   19.3457   23.1031 C   0  0  0  0  0  0  0  0  0  0  0  0
   22.1275   19.3929   23.8441 H   0  0  0  0  0  0  0  0  0  0  0  0
   21.8126   19.1750   22.1368 H   0  0  0  0  0  0  0  0  0  0  0  0
   20.5876   20.7143   23.0541 C   0  0  0  0  0  0  0  0  0  0  0  0
   19.9188   20.7355   22.1843 H   0  0  0  0  0  0  0  0  0  0  0  0
   21.3276   21.5069   22.8811 H   0  0  0  0  0  0  0  0  0  0  0  0
   19.7761   21.0425   24.3267 C   0  0  2  0  0  0  0  0  0  0  0  0
   19.0425   20.2457   24.4818 H   0  0  0  0  0  0  0  0  0  0  0  0
   19.0162   22.3666   24.1513 C   0  0  0  0  0  0  0  0  0  0  0  0
   18.4086   22.5858   25.0379 H   0  0  0  0  0  0  0  0  0  0  0  0
   19.7080   23.2038   23.9952 H   0  0  0  0  0  0  0  0  0  0  0  0
   18.3402   22.3164   23.2886 H   0  0  0  0  0  0  0  0  0  0  0  0
   20.6384   21.0846   25.5582 N   0  3  0  0  0  0  0  0  0  0  0  0
   21.1257   20.1956   25.6999 H   0  0  0  0  0  0  0  0  0  0  0  0
   20.0835   21.2703   26.3986 H   0  0  0  0  0  0  0  0  0  0  0  0
   21.3485   21.8184   25.4904 H   0  0  0  0  0  0  0  0  0  0  0  0
  1  2  1  0  0  0  0
  1  3  1  0  0  0  0
  1  4  1  0  0  0  0
  1  5  1  0  0  0  0
  5  6  1  0  0  0  0
  5  7  1  0  0  0  0
  5  8  1  0  0  0  0
  8  9  1  0  0  0  0
  8 10  1  0  0  0  0
  8 11  1  0  0  0  0
 11 12  1  0  0  0  0
 11 13  1  0  0  0  0
 11 14  1  0  0  0  0
 14 15  1  0  0  0  0
 14 16  1  0  0  0  0
 14 17  1  0  0  0  0
 17 18  1  0  0  0  0
 17 19  1  0  0  0  0
 17 20  1  0  0  0  0
 20 21  1  0  0  0  0
 20 22  1  0  0  0  0
 22 23  1  0  0  0  0
 22 24  1  0  0  0  0
 22 25  1  0  0  0  0
 20 26  1  0  0  0  0
 26 27  1  0  0  0  0
 26 28  1  0  0  0  0
 26 29  1  0  0  0  0
M  END
> <VConfSearch Rank>
879

> <Conf_Id>
173

> <Delta U+W>
1.363

> <U+W>
-26.462

> <U>
25.816

> <W>
-52.279

> <W(PB)>
-54.727

> <W(SA)>
2.449

> <Valence>
4.504

> <Coulomb>
20.342

> <VdW>
0.971

> <VdW6>
-10.532

> <VdW12>
11.503

> <Bond>
0.307

> <Angle>
1.715

> <Pdih>
2.481

> <Idih>
0.000

> <Tether>
0.000

$$$$
VeraChem MOL file


 29 28  0  0  0  0  0  0  0  0999 V2000     
   21.1713   16.0121   25.4775 C   0  0  0  0  0  0  0  0  0  0  0  0
   20.6237   15.2168   24.9552 H   0  0  0  0  0  0  0  0  0  0  0  0
   22.2309   15.7278   25.5185 H   0  0  0  0  0  0  0  0  0  0  0  0
   20.7954   16.0597   26.5078 H   0  0  0  0  0  0  0  0  0  0  0  0
   20.9877   17.3699   24.7673 C   0  0  0  0  0  0  0  0  0  0  0  0
   21.5239   18.1491   25.3266 H   0  0  0  0  0  0  0  0  0  0  0  0
   19.9222   17.6346   24.7809 H   0  0  0  0  0  0  0  0  0  0  0  0
   21.5005   17.3248   23.3098 C   0  0  0  0  0  0  0  0  0  0  0  0
   22.5309   16.9434   23.3058 H   0  0  0  0  0  0  0  0  0  0  0  0
   20.9050   16.6010   22.7366 H   0  0  0  0  0  0  0  0  0  0  0  0
   21.4860   18.6940   22.5821 C   0  0  0  0  0  0  0  0  0  0  0  0
   21.9064   18.5389   21.5788 H   0  0  0  0  0  0  0  0  0  0  0  0
   22.1682   19.3949   23.0827 H   0  0  0  0  0  0  0  0  0  0  0  0
   20.0795   19.3285   22.4245 C   0  0  0  0  0  0  0  0  0  0  0  0
   20.0375   19.8279   21.4475 H   0  0  0  0  0  0  0  0  0  0  0  0
   19.3211   18.5357   22.3946 H   0  0  0  0  0  0  0  0  0  0  0  0
   19.7541   20.3728   23.5283 C   0  0  0  0  0  0  0  0  0  0  0  0
   20.5030   21.1747   23.4906 H   0  0  0  0  0  0  0  0  0  0  0  0
   19.8551   19.9210   24.5214 H   0  0  0  0  0  0  0  0  0  0  0  0
   18.3505   21.0141   23.4229 C   0  0  2  0  0  0  0  0  0  0  0  0
   18.2775   21.7675   24.2133 H   0  0  0  0  0  0  0  0  0  0  0  0
   17.2282   19.9875   23.6561 C   0  0  0  0  0  0  0  0  0  0  0  0
   17.3812   19.4500   24.6001 H   0  0  0  0  0  0  0  0  0  0  0  0
   16.2552   20.4905   23.7142 H   0  0  0  0  0  0  0  0  0  0  0  0
   17.1758   19.2510   22.8457 H   0  0  0  0  0  0  0  0  0  0  0  0
   18.1486   21.7493   22.1266 N   0  3  0  0  0  0  0  0  0  0  0  0
   18.8666   22.4657   21.9857 H   0  0  0  0  0  0  0  0  0  0  0  0
   17.2386   22.2181   22.1002 H   0  0  0  0  0  0  0  0  0  0  0  0
   18.1886   21.1108   21.3283 H   0  0  0  0  0  0  0  0  0  0  0  0
  1  2  1  0  0  0  0
  1  3  1  0  0  0  0
  1  4  1  0  0  0  0
  1  5  1  0  0  0  0
  5  6  1  0  0  0  0
  5  7  1  0  0  0  0
  5  8  1  0  0  0  0
  8  9  1  0  0  0  0
  8 10  1  0  0  0  0
  8 11  1  0  0  0  0
 11 12  1  0  0  0  0
 11 13  1  0  0  0  0
 11 14  1  0  0  0  0
 14 15  1  0  0  0  0
 14 16  1  0  0  0  0
 14 17  1  0  0  0  0
 17 18  1  0  0  0  0
 17 19  1  0  0  0  0
 17 20  1  0  0  0  0
 20 21  1  0  0  0  0
 20 22  1  0  0  0  0
 22 23  1  0  0  0  0
 22 24  1  0  0  0  0
 22 25  1  0  0  0  0
 20 26  1  0  0  0  0
 26 27  1  0  0  0  0
 26 28  1  0  0  0  0
 26 29  1  0  0  0  0
M  END
> <VConfSearch Rank>
880

> <Conf_Id>
117

> <Delta U+W>
3.377

> <U+W>
-24.449

> <U>
27.947

> <W>
-52.396

> <W(PB)>
-54.842

> <W(SA)>
2.447

> <Valence>
6.731

> <Coulomb>
20.067

> <VdW>
1.149

> <VdW6>
-10.427

> <VdW12>
11.575

> <Bond>
0.324

> <Angle>
1.943

> <Pdih>
4.465

> <Idih>
0.000

> <Tether>
0.000

$$$$
VeraChem MOL file


 29 28  0  0  0  0  0  0  0  0999 V2000     
   18.6103   15.0294   25.7927 C   0  0  0  0  0  0  0  0  0  0  0  0
   18.3865   15.5481   26.7341 H   0  0  0  0  0  0  0  0  0  0  0  0
   17.6667   14.8794   25.2521 H   0  0  0  0  0  0  0  0  0  0  0  0
   19.0173   14.0406   26.0412 H   0  0  0  0  0  0  0  0  0  0  0  0
   19.6152   15.8341   24.9415 C   0  0  0  0  0  0  0  0  0  0  0  0
   19.8452   15.2751   24.0236 H   0  0  0  0  0  0  0  0  0  0  0  0
   20.5595   15.9387   25.4941 H   0  0  0  0  0  0  0  0  0  0  0  0
   19.0664   17.2314   24.5776 C   0  0  0  0  0  0  0  0  0  0  0  0
   18.1216   17.1218   24.0275 H   0  0  0  0  0  0  0  0  0  0  0  0
   18.8359   17.7852   25.4982 H   0  0  0  0  0  0  0  0  0  0  0  0
   20.0700   18.0401   23.7251 C   0  0  0  0  0  0  0  0  0  0  0  0
   20.3006   17.4844   22.8056 H   0  0  0  0  0  0  0  0  0  0  0  0
   21.0145   18.1495   24.2760 H   0  0  0  0  0  0  0  0  0  0  0  0
   19.5203   19.4377   23.3607 C   0  0  0  0  0  0  0  0  0  0  0  0
   18.5776   19.3273   22.8067 H   0  0  0  0  0  0  0  0  0  0  0  0
   19.2863   19.9840   24.2841 H   0  0  0  0  0  0  0  0  0  0  0  0
   20.5280   20.2461   22.5078 C   0  0  0  0  0  0  0  0  0  0  0  0
   20.7901   19.6593   21.6173 H   0  0  0  0  0  0  0  0  0  0  0  0
   21.4587   20.3925   23.0720 H   0  0  0  0  0  0  0  0  0  0  0  0
   19.9736   21.6145   22.0563 C   0  0  2  0  0  0  0  0  0  0  0  0
   19.0358   21.4442   21.5184 H   0  0  0  0  0  0  0  0  0  0  0  0
   20.9608   22.3018   21.0995 C   0  0  0  0  0  0  0  0  0  0  0  0
   20.5568   23.2584   20.7460 H   0  0  0  0  0  0  0  0  0  0  0  0
   21.9210   22.4975   21.5931 H   0  0  0  0  0  0  0  0  0  0  0  0
   21.1507   21.6752   20.2191 H   0  0  0  0  0  0  0  0  0  0  0  0
   19.6500   22.5159   23.2163 N   0  3  0  0  0  0  0  0  0  0  0  0
   18.9592   22.0893   23.8397 H   0  0  0  0  0  0  0  0  0  0  0  0
   19.2655   23.4104   22.8991 H   0  0  0  0  0  0  0  0  0  0  0  0
   20.4839   22.7206   23.7734 H   0  0  0  0  0  0  0  0  0  0  0  0
  1  2  1  0  0  0  0
  1  3  1  0  0  0  0
  1  4  1  0  0  0  0
  1  5  1  0  0  0  0
  5  6  1  0  0  0  0
  5  7  1  0  0  0  0
  5  8  1  0  0  0  0
  8  9  1  0  0  0  0
  8 10  1  0  0  0  0
  8 11  1  0  0  0  0
 11 12  1  0  0  0  0
 11 13  1  0  0  0  0
 11 14  1  0  0  0  0
 14 15  1  0  0  0  0
 14 16  1  0  0  0  0
 14 17  1  0  0  0  0
 17 18  1  0  0  0  0
 17 19  1  0  0  0  0
 17 20  1  0  0  0  0
 20 21  1  0  0  0  0
 20 22  1  0  0  0  0
 22 23  1  0  0  0  0
 22 24  1  0  0  0  0
 22 25  1  0  0  0  0
 20 26  1  0  0  0  0
 26 27  1  0  0  0  0
 26 28  1  0  0  0  0
 26 29  1  0  0  0  0
M  END
> <VConfSearch Rank>
881

> <Conf_Id>
164

> <Delta U+W>
0.000

> <U+W>
-27.826

> <U>
23.963

> <W>
-51.789

> <W(PB)>
-54.342

> <W(SA)>
2.554

> <Valence>
3.166

> <Coulomb>
19.734

> <VdW>
1.062

> <VdW6>
-7.938

> <VdW12>
9.001

> <Bond>
0.188

> <Angle>
0.880

> <Pdih>
2.098

> <Idih>
0.000

> <Tether>
0.000

$$$$
VeraChem MOL file


 29 28  0  0  0  0  0  0  0  0999 V2000     
   15.5108   19.4681   21.3179 C   0  0  0  0  0  0  0  0  0  0  0  0
   15.6399   18.5680   20.7028 H   0  0  0  0  0  0  0  0  0  0  0  0
   14.9576   19.1870   22.2236 H   0  0  0  0  0  0  0  0  0  0  0  0
   14.8929   20.1773   20.7520 H   0  0  0  0  0  0  0  0  0  0  0  0
   16.8745   20.0969   21.6738 C   0  0  0  0  0  0  0  0  0  0  0  0
   16.7121   21.0124   22.2597 H   0  0  0  0  0  0  0  0  0  0  0  0
   17.3891   20.3982   20.7506 H   0  0  0  0  0  0  0  0  0  0  0  0
   17.7646   19.1184   22.4714 C   0  0  0  0  0  0  0  0  0  0  0  0
   17.2451   18.8182   23.3919 H   0  0  0  0  0  0  0  0  0  0  0  0
   17.9224   18.2040   21.8828 H   0  0  0  0  0  0  0  0  0  0  0  0
   19.1312   19.7445   22.8298 C   0  0  0  0  0  0  0  0  0  0  0  0
   18.9727   20.6586   23.4186 H   0  0  0  0  0  0  0  0  0  0  0  0
   19.6489   20.0454   21.9084 H   0  0  0  0  0  0  0  0  0  0  0  0
   20.0217   18.7649   23.6273 C   0  0  0  0  0  0  0  0  0  0  0  0
   19.4920   18.4643   24.5408 H   0  0  0  0  0  0  0  0  0  0  0  0
   20.1842   17.8530   23.0362 H   0  0  0  0  0  0  0  0  0  0  0  0
   21.3885   19.3965   23.9891 C   0  0  0  0  0  0  0  0  0  0  0  0
   21.2331   20.2711   24.6347 H   0  0  0  0  0  0  0  0  0  0  0  0
   21.8560   19.7687   23.0680 H   0  0  0  0  0  0  0  0  0  0  0  0
   22.3676   18.4140   24.6713 C   0  0  2  0  0  0  0  0  0  0  0  0
   22.4734   17.5338   24.0297 H   0  0  0  0  0  0  0  0  0  0  0  0
   21.8620   17.9540   26.0505 C   0  0  0  0  0  0  0  0  0  0  0  0
   21.6792   18.8100   26.7119 H   0  0  0  0  0  0  0  0  0  0  0  0
   20.9314   17.3814   25.9636 H   0  0  0  0  0  0  0  0  0  0  0  0
   22.5994   17.3018   26.5343 H   0  0  0  0  0  0  0  0  0  0  0  0
   23.7399   19.0155   24.7953 N   0  3  0  0  0  0  0  0  0  0  0  0
   24.4021   18.3539   25.2108 H   0  0  0  0  0  0  0  0  0  0  0  0
   23.7302   19.8504   25.3874 H   0  0  0  0  0  0  0  0  0  0  0  0
   24.1155   19.2896   23.8828 H   0  0  0  0  0  0  0  0  0  0  0  0
  1  2  1  0  0  0  0
  1  3  1  0  0  0  0
  1  4  1  0  0  0  0
  1  5  1  0  0  0  0
  5  6  1  0  0  0  0
  5  7  1  0  0  0  0
  5  8  1  0  0  0  0
  8  9  1  0  0  0  0
  8 10  1  0  0  0  0
  8 11  1  0  0  0  0
 11 12  1  0  0  0  0
 11 13  1  0  0  0  0
 11 14  1  0  0  0  0
 14 15  1  0  0  0  0
 14 16  1  0  0  0  0
 14 17  1  0  0  0  0
 17 18  1  0  0  0  0
 17 19  1  0  0  0  0
 17 20  1  0  0  0  0
 20 21  1  0  0  0  0
 20 22  1  0  0  0  0
 22 23  1  0  0  0  0
 22 24  1  0  0  0  0
 22 25  1  0  0  0  0
 20 26  1  0  0  0  0
 26 27  1  0  0  0  0
 26 28  1  0  0  0  0
 26 29  1  0  0  0  0
M  END
> <VConfSearch Rank>
882

> <Conf_Id>
58

> <Delta U+W>
0.412

> <U+W>
-27.414

> <U>
24.279

> <W>
-51.694

> <W(PB)>
-54.271

> <W(SA)>
2.577

> <Valence>
3.709

> <Coulomb>
19.380

> <VdW>
1.191

> <VdW6>
-8.093

> <VdW12>
9.284

> <Bond>
0.200

> <Angle>
1.161

> <Pdih>
2.348

> <Idih>
0.000

> <Tether>
0.000

$$$$
VeraChem MOL file


 29 28  0  0  0  0  0  0  0  0999 V2000     
   23.6053   17.6593   25.7071 C   0  0  0  0  0  0  0  0  0  0  0  0
   23.6222   18.5388   26.3641 H   0  0  0  0  0  0  0  0  0  0  0  0
   23.0653   16.8559   26.2250 H   0  0  0  0  0  0  0  0  0  0  0  0
   24.6416   17.3286   25.5599 H   0  0  0  0  0  0  0  0  0  0  0  0
   22.9416   17.9908   24.3538 C   0  0  0  0  0  0  0  0  0  0  0  0
   22.9698   17.1029   23.7067 H   0  0  0  0  0  0  0  0  0  0  0  0
   23.5224   18.7728   23.8448 H   0  0  0  0  0  0  0  0  0  0  0  0
   21.4807   18.4594   24.5328 C   0  0  0  0  0  0  0  0  0  0  0  0
   20.9048   17.6755   25.0438 H   0  0  0  0  0  0  0  0  0  0  0  0
   21.4574   19.3455   25.1822 H   0  0  0  0  0  0  0  0  0  0  0  0
   20.8129   18.7925   23.1796 C   0  0  0  0  0  0  0  0  0  0  0  0
   20.8374   17.9059   22.5309 H   0  0  0  0  0  0  0  0  0  0  0  0
   21.3899   19.5762   22.6693 H   0  0  0  0  0  0  0  0  0  0  0  0
   19.3513   19.2615   23.3590 C   0  0  0  0  0  0  0  0  0  0  0  0
   18.7810   18.4750   23.8705 H   0  0  0  0  0  0  0  0  0  0  0  0
   19.3370   20.1440   24.0120 H   0  0  0  0  0  0  0  0  0  0  0  0
   18.6879   19.5975   21.9980 C   0  0  0  0  0  0  0  0  0  0  0  0
   18.7541   18.7219   21.3388 H   0  0  0  0  0  0  0  0  0  0  0  0
   19.2600   20.3927   21.5019 H   0  0  0  0  0  0  0  0  0  0  0  0
   17.2058   20.0321   22.0850 C   0  0  2  0  0  0  0  0  0  0  0  0
   16.8577   20.2068   21.0622 H   0  0  0  0  0  0  0  0  0  0  0  0
   17.0329   21.3465   22.8659 C   0  0  0  0  0  0  0  0  0  0  0  0
   15.9972   21.7008   22.7953 H   0  0  0  0  0  0  0  0  0  0  0  0
   17.2719   21.2216   23.9287 H   0  0  0  0  0  0  0  0  0  0  0  0
   17.6813   22.1312   22.4570 H   0  0  0  0  0  0  0  0  0  0  0  0
   16.3230   18.9519   22.6467 N   0  3  0  0  0  0  0  0  0  0  0  0
   16.3986   18.0860   22.1053 H   0  0  0  0  0  0  0  0  0  0  0  0
   15.3382   19.2324   22.6398 H   0  0  0  0  0  0  0  0  0  0  0  0
   16.5735   18.7338   23.6143 H   0  0  0  0  0  0  0  0  0  0  0  0
  1  2  1  0  0  0  0
  1  3  1  0  0  0  0
  1  4  1  0  0  0  0
  1  5  1  0  0  0  0
  5  6  1  0  0  0  0
  5  7  1  0  0  0  0
  5  8  1  0  0  0  0
  8  9  1  0  0  0  0
  8 10  1  0  0  0  0
  8 11  1  0  0  0  0
 11 12  1  0  0  0  0
 11 13  1  0  0  0  0
 11 14  1  0  0  0  0
 14 15  1  0  0  0  0
 14 16  1  0  0  0  0
 14 17  1  0  0  0  0
 17 18  1  0  0  0  0
 17 19  1  0  0  0  0
 17 20  1  0  0  0  0
 20 21  1  0  0  0  0
 20 22  1  0  0  0  0
 22 23  1  0  0  0  0
 22 24  1  0  0  0  0
 22 25  1  0  0  0  0
 20 26  1  0  0  0  0
 26 27  1  0  0  0  0
 26 28  1  0  0  0  0
 26 29  1  0  0  0  0
M  END
> <VConfSearch Rank>
883

> <Conf_Id>
137

> <Delta U+W>
0.280

> <U+W>
-27.546

> <U>
24.513

> <W>
-52.059

> <W(PB)>
-54.556

> <W(SA)>
2.497

> <Valence>
3.677

> <Coulomb>
19.662

> <VdW>
1.174

> <VdW6>
-8.569

> <VdW12>
9.743

> <Bond>
0.224

> <Angle>
1.211

> <Pdih>
2.243

> <Idih>
0.000

> <Tether>
0.000

$$$$
VeraChem MOL file


 29 28  0  0  0  0  0  0  0  0999 V2000     
   20.9434   15.8739   26.3156 C   0  0  0  0  0  0  0  0  0  0  0  0
   19.9486   16.0729   26.7353 H   0  0  0  0  0  0  0  0  0  0  0  0
   20.8447   15.0809   25.5629 H   0  0  0  0  0  0  0  0  0  0  0  0
   21.5804   15.4934   27.1246 H   0  0  0  0  0  0  0  0  0  0  0  0
   21.5510   17.1515   25.6988 C   0  0  0  0  0  0  0  0  0  0  0  0
   22.5583   16.9291   25.3195 H   0  0  0  0  0  0  0  0  0  0  0  0
   21.6680   17.9143   26.4813 H   0  0  0  0  0  0  0  0  0  0  0  0
   20.6735   17.7080   24.5558 C   0  0  0  0  0  0  0  0  0  0  0  0
   20.5617   16.9429   23.7752 H   0  0  0  0  0  0  0  0  0  0  0  0
   19.6690   17.9155   24.9465 H   0  0  0  0  0  0  0  0  0  0  0  0
   21.2804   18.9918   23.9398 C   0  0  0  0  0  0  0  0  0  0  0  0
   22.3151   18.7839   23.6340 H   0  0  0  0  0  0  0  0  0  0  0  0
   21.3377   19.7793   24.7039 H   0  0  0  0  0  0  0  0  0  0  0  0
   20.5048   19.5193   22.7073 C   0  0  0  0  0  0  0  0  0  0  0  0
   21.0950   20.3303   22.2620 H   0  0  0  0  0  0  0  0  0  0  0  0
   20.4412   18.7287   21.9469 H   0  0  0  0  0  0  0  0  0  0  0  0
   19.0821   20.0368   23.0450 C   0  0  0  0  0  0  0  0  0  0  0  0
   19.1464   20.8342   23.7971 H   0  0  0  0  0  0  0  0  0  0  0  0
   18.5048   19.2237   23.5010 H   0  0  0  0  0  0  0  0  0  0  0  0
   18.2964   20.5455   21.8143 C   0  0  2  0  0  0  0  0  0  0  0  0
   18.2984   19.7568   21.0557 H   0  0  0  0  0  0  0  0  0  0  0  0
   18.9239   21.8118   21.2040 C   0  0  0  0  0  0  0  0  0  0  0  0
   19.0067   22.6125   21.9494 H   0  0  0  0  0  0  0  0  0  0  0  0
   19.9237   21.6098   20.8033 H   0  0  0  0  0  0  0  0  0  0  0  0
   18.3121   22.1834   20.3728 H   0  0  0  0  0  0  0  0  0  0  0  0
   16.8548   20.7976   22.1592 N   0  3  0  0  0  0  0  0  0  0  0  0
   16.4017   19.9555   22.5258 H   0  0  0  0  0  0  0  0  0  0  0  0
   16.3210   21.0975   21.3383 H   0  0  0  0  0  0  0  0  0  0  0  0
   16.7625   21.5304   22.8679 H   0  0  0  0  0  0  0  0  0  0  0  0
  1  2  1  0  0  0  0
  1  3  1  0  0  0  0
  1  4  1  0  0  0  0
  1  5  1  0  0  0  0
  5  6  1  0  0  0  0
  5  7  1  0  0  0  0
  5  8  1  0  0  0  0
  8  9  1  0  0  0  0
  8 10  1  0  0  0  0
  8 11  1  0  0  0  0
 11 12  1  0  0  0  0
 11 13  1  0  0  0  0
 11 14  1  0  0  0  0
 14 15  1  0  0  0  0
 14 16  1  0  0  0  0
 14 17  1  0  0  0  0
 17 18  1  0  0  0  0
 17 19  1  0  0  0  0
 17 20  1  0  0  0  0
 20 21  1  0  0  0  0
 20 22  1  0  0  0  0
 22 23  1  0  0  0  0
 22 24  1  0  0  0  0
 22 25  1  0  0  0  0
 20 26  1  0  0  0  0
 26 27  1  0  0  0  0
 26 28  1  0  0  0  0
 26 29  1  0  0  0  0
M  END
> <VConfSearch Rank>
884

> <Conf_Id>
40

> <Delta U+W>
1.128

> <U+W>
-26.698

> <U>
25.442

> <W>
-52.140

> <W(PB)>
-54.658

> <W(SA)>
2.519

> <Valence>
4.343

> <Coulomb>
19.740

> <VdW>
1.360

> <VdW6>
-8.739

> <VdW12>
10.099

> <Bond>
0.251

> <Angle>
1.483

> <Pdih>
2.608

> <Idih>
0.000

> <Tether>
0.000

$$$$
VeraChem MOL file


 29 28  0  0  0  0  0  0  0  0999 V2000     
   23.7070   17.3107   24.0395 C   0  0  0  0  0  0  0  0  0  0  0  0
   23.9573   18.3775   23.9902 H   0  0  0  0  0  0  0  0  0  0  0  0
   23.5192   17.0488   25.0889 H   0  0  0  0  0  0  0  0  0  0  0  0
   24.5899   16.7499   23.7067 H   0  0  0  0  0  0  0  0  0  0  0  0
   22.4861   16.9706   23.1548 C   0  0  0  0  0  0  0  0  0  0  0  0
   22.3578   15.8793   23.1365 H   0  0  0  0  0  0  0  0  0  0  0  0
   22.6845   17.2740   22.1173 H   0  0  0  0  0  0  0  0  0  0  0  0
   21.1674   17.6156   23.6461 C   0  0  0  0  0  0  0  0  0  0  0  0
   20.3469   17.2064   23.0434 H   0  0  0  0  0  0  0  0  0  0  0  0
   20.9740   17.3091   24.6832 H   0  0  0  0  0  0  0  0  0  0  0  0
   21.1638   19.1626   23.5478 C   0  0  0  0  0  0  0  0  0  0  0  0
   21.3516   19.4695   22.5098 H   0  0  0  0  0  0  0  0  0  0  0  0
   21.9926   19.5661   24.1436 H   0  0  0  0  0  0  0  0  0  0  0  0
   19.8531   19.8149   24.0534 C   0  0  0  0  0  0  0  0  0  0  0  0
   19.6560   19.4917   25.0850 H   0  0  0  0  0  0  0  0  0  0  0  0
   20.0106   20.9006   24.0947 H   0  0  0  0  0  0  0  0  0  0  0  0
   18.6213   19.5060   23.1634 C   0  0  0  0  0  0  0  0  0  0  0  0
   18.4477   18.4232   23.1453 H   0  0  0  0  0  0  0  0  0  0  0  0
   18.8252   19.8097   22.1281 H   0  0  0  0  0  0  0  0  0  0  0  0
   17.3317   20.1947   23.6612 C   0  0  2  0  0  0  0  0  0  0  0  0
   17.1699   19.9068   24.7045 H   0  0  0  0  0  0  0  0  0  0  0  0
   16.1225   19.7236   22.8375 C   0  0  0  0  0  0  0  0  0  0  0  0
   15.1976   20.1823   23.2083 H   0  0  0  0  0  0  0  0  0  0  0  0
   16.2355   19.9892   21.7789 H   0  0  0  0  0  0  0  0  0  0  0  0
   16.0041   18.6349   22.9059 H   0  0  0  0  0  0  0  0  0  0  0  0
   17.4314   21.6955   23.6359 N   0  3  0  0  0  0  0  0  0  0  0  0
   17.5880   22.0429   22.6859 H   0  0  0  0  0  0  0  0  0  0  0  0
   18.2045   22.0290   24.2179 H   0  0  0  0  0  0  0  0  0  0  0  0
   16.5741   22.1332   23.9853 H   0  0  0  0  0  0  0  0  0  0  0  0
  1  2  1  0  0  0  0
  1  3  1  0  0  0  0
  1  4  1  0  0  0  0
  1  5  1  0  0  0  0
  5  6  1  0  0  0  0
  5  7  1  0  0  0  0
  5  8  1  0  0  0  0
  8  9  1  0  0  0  0
  8 10  1  0  0  0  0
  8 11  1  0  0  0  0
 11 12  1  0  0  0  0
 11 13  1  0  0  0  0
 11 14  1  0  0  0  0
 14 15  1  0  0  0  0
 14 16  1  0  0  0  0
 14 17  1  0  0  0  0
 17 18  1  0  0  0  0
 17 19  1  0  0  0  0
 17 20  1  0  0  0  0
 20 21  1  0  0  0  0
 20 22  1  0  0  0  0
 22 23  1  0  0  0  0
 22 24  1  0  0  0  0
 22 25  1  0  0  0  0
 20 26  1  0  0  0  0
 26 27  1  0  0  0  0
 26 28  1  0  0  0  0
 26 29  1  0  0  0  0
M  END
> <VConfSearch Rank>
885

> <Conf_Id>
134

> <Delta U+W>
1.228

> <U+W>
-26.598

> <U>
25.451

> <W>
-52.048

> <W(PB)>
-54.539

> <W(SA)>
2.490

> <Valence>
4.319

> <Coulomb>
19.732

> <VdW>
1.400

> <VdW6>
-9.173

> <VdW12>
10.573

> <Bond>
0.281

> <Angle>
1.459

> <Pdih>
2.580

> <Idih>
0.000

> <Tether>
0.000

$$$$
VeraChem MOL file


 29 28  0  0  0  0  0  0  0  0999 V2000     
   18.6913   18.6634   19.3518 C   0  0  0  0  0  0  0  0  0  0  0  0
   19.5530   17.9851   19.3754 H   0  0  0  0  0  0  0  0  0  0  0  0
   17.7946   18.0912   19.6231 H   0  0  0  0  0  0  0  0  0  0  0  0
   18.5702   19.0055   18.3158 H   0  0  0  0  0  0  0  0  0  0  0  0
   18.8892   19.8687   20.2989 C   0  0  0  0  0  0  0  0  0  0  0  0
   18.0645   20.5781   20.1431 H   0  0  0  0  0  0  0  0  0  0  0  0
   19.8102   20.4042   20.0293 H   0  0  0  0  0  0  0  0  0  0  0  0
   18.9296   19.4779   21.7961 C   0  0  0  0  0  0  0  0  0  0  0  0
   18.9347   20.4026   22.3873 H   0  0  0  0  0  0  0  0  0  0  0  0
   18.0062   18.9450   22.0610 H   0  0  0  0  0  0  0  0  0  0  0  0
   20.1596   18.6143   22.1751 C   0  0  0  0  0  0  0  0  0  0  0  0
   21.0829   19.1481   21.9115 H   0  0  0  0  0  0  0  0  0  0  0  0
   20.1556   17.6919   21.5803 H   0  0  0  0  0  0  0  0  0  0  0  0
   20.1975   18.2178   23.6716 C   0  0  0  0  0  0  0  0  0  0  0  0
   19.2781   17.6717   23.9208 H   0  0  0  0  0  0  0  0  0  0  0  0
   21.0280   17.5145   23.8237 H   0  0  0  0  0  0  0  0  0  0  0  0
   20.3797   19.4252   24.6273 C   0  0  0  0  0  0  0  0  0  0  0  0
   19.4907   20.0676   24.5983 H   0  0  0  0  0  0  0  0  0  0  0  0
   21.2191   20.0341   24.2666 H   0  0  0  0  0  0  0  0  0  0  0  0
   20.6641   19.0170   26.0906 C   0  0  2  0  0  0  0  0  0  0  0  0
   21.5315   18.3498   26.0984 H   0  0  0  0  0  0  0  0  0  0  0  0
   19.4740   18.2763   26.7263 C   0  0  0  0  0  0  0  0  0  0  0  0
   18.5620   18.8850   26.6889 H   0  0  0  0  0  0  0  0  0  0  0  0
   19.2755   17.3276   26.2142 H   0  0  0  0  0  0  0  0  0  0  0  0
   19.6826   18.0402   27.7771 H   0  0  0  0  0  0  0  0  0  0  0  0
   21.0397   20.2106   26.9239 N   0  3  0  0  0  0  0  0  0  0  0  0
   21.8576   20.6946   26.5423 H   0  0  0  0  0  0  0  0  0  0  0  0
   21.2675   19.9391   27.8847 H   0  0  0  0  0  0  0  0  0  0  0  0
   20.2749   20.8893   26.9715 H   0  0  0  0  0  0  0  0  0  0  0  0
  1  2  1  0  0  0  0
  1  3  1  0  0  0  0
  1  4  1  0  0  0  0
  1  5  1  0  0  0  0
  5  6  1  0  0  0  0
  5  7  1  0  0  0  0
  5  8  1  0  0  0  0
  8  9  1  0  0  0  0
  8 10  1  0  0  0  0
  8 11  1  0  0  0  0
 11 12  1  0  0  0  0
 11 13  1  0  0  0  0
 11 14  1  0  0  0  0
 14 15  1  0  0  0  0
 14 16  1  0  0  0  0
 14 17  1  0  0  0  0
 17 18  1  0  0  0  0
 17 19  1  0  0  0  0
 17 20  1  0  0  0  0
 20 21  1  0  0  0  0
 20 22  1  0  0  0  0
 22 23  1  0  0  0  0
 22 24  1  0  0  0  0
 22 25  1  0  0  0  0
 20 26  1  0  0  0  0
 26 27  1  0  0  0  0
 26 28  1  0  0  0  0
 26 29  1  0  0  0  0
M  END
> <VConfSearch Rank>
886

> <Conf_Id>
73

> <Delta U+W>
1.580

> <U+W>
-26.246

> <U>
25.821

> <W>
-52.067

> <W(PB)>
-54.581

> <W(SA)>
2.514

> <Valence>
4.779

> <Coulomb>
19.614

> <VdW>
1.428

> <VdW6>
-9.390

> <VdW12>
10.818

> <Bond>
0.283

> <Angle>
1.640

> <Pdih>
2.856

> <Idih>
0.000

> <Tether>
0.000

$$$$
VeraChem MOL file


 29 28  0  0  0  0  0  0  0  0999 V2000     
   19.9425   23.2520   25.1011 C   0  0  0  0  0  0  0  0  0  0  0  0
   19.9874   23.4993   24.0324 H   0  0  0  0  0  0  0  0  0  0  0  0
   19.4562   24.0881   25.6203 H   0  0  0  0  0  0  0  0  0  0  0  0
   20.9708   23.1737   25.4776 H   0  0  0  0  0  0  0  0  0  0  0  0
   19.1650   21.9394   25.3347 C   0  0  0  0  0  0  0  0  0  0  0  0
   18.1321   22.0590   24.9785 H   0  0  0  0  0  0  0  0  0  0  0  0
   19.1071   21.7376   26.4135 H   0  0  0  0  0  0  0  0  0  0  0  0
   19.8295   20.7452   24.6148 C   0  0  0  0  0  0  0  0  0  0  0  0
   19.8897   20.9648   23.5410 H   0  0  0  0  0  0  0  0  0  0  0  0
   20.8605   20.6282   24.9761 H   0  0  0  0  0  0  0  0  0  0  0  0
   19.0475   19.4294   24.8447 C   0  0  0  0  0  0  0  0  0  0  0  0
   18.0340   19.5230   24.4309 H   0  0  0  0  0  0  0  0  0  0  0  0
   18.9255   19.2722   25.9253 H   0  0  0  0  0  0  0  0  0  0  0  0
   19.7399   18.1808   24.2449 C   0  0  0  0  0  0  0  0  0  0  0  0
   20.7523   18.0865   24.6616 H   0  0  0  0  0  0  0  0  0  0  0  0
   19.1851   17.2936   24.5771 H   0  0  0  0  0  0  0  0  0  0  0  0
   19.8119   18.1968   22.6961 C   0  0  0  0  0  0  0  0  0  0  0  0
   20.3889   19.0704   22.3686 H   0  0  0  0  0  0  0  0  0  0  0  0
   18.8029   18.3109   22.2781 H   0  0  0  0  0  0  0  0  0  0  0  0
   20.4752   16.9307   22.1114 C   0  0  2  0  0  0  0  0  0  0  0  0
   21.4629   16.8183   22.5693 H   0  0  0  0  0  0  0  0  0  0  0  0
   20.6614   17.0779   20.5928 C   0  0  0  0  0  0  0  0  0  0  0  0
   21.2787   17.9542   20.3585 H   0  0  0  0  0  0  0  0  0  0  0  0
   21.1639   16.1964   20.1759 H   0  0  0  0  0  0  0  0  0  0  0  0
   19.6962   17.1939   20.0839 H   0  0  0  0  0  0  0  0  0  0  0  0
   19.7057   15.6772   22.4269 N   0  3  0  0  0  0  0  0  0  0  0  0
   20.1699   14.8476   22.0463 H   0  0  0  0  0  0  0  0  0  0  0  0
   18.7622   15.7093   22.0315 H   0  0  0  0  0  0  0  0  0  0  0  0
   19.6127   15.5395   23.4369 H   0  0  0  0  0  0  0  0  0  0  0  0
  1  2  1  0  0  0  0
  1  3  1  0  0  0  0
  1  4  1  0  0  0  0
  1  5  1  0  0  0  0
  5  6  1  0  0  0  0
  5  7  1  0  0  0  0
  5  8  1  0  0  0  0
  8  9  1  0  0  0  0
  8 10  1  0  0  0  0
  8 11  1  0  0  0  0
 11 12  1  0  0  0  0
 11 13  1  0  0  0  0
 11 14  1  0  0  0  0
 14 15  1  0  0  0  0
 14 16  1  0  0  0  0
 14 17  1  0  0  0  0
 17 18  1  0  0  0  0
 17 19  1  0  0  0  0
 17 20  1  0  0  0  0
 20 21  1  0  0  0  0
 20 22  1  0  0  0  0
 22 23  1  0  0  0  0
 22 24  1  0  0  0  0
 22 25  1  0  0  0  0
 20 26  1  0  0  0  0
 26 27  1  0  0  0  0
 26 28  1  0  0  0  0
 26 29  1  0  0  0  0
M  END
> <VConfSearch Rank>
887

> <Conf_Id>
111

> <Delta U+W>
0.580

> <U+W>
-27.246

> <U>
24.710

> <W>
-51.957

> <W(PB)>
-54.511

> <W(SA)>
2.555

> <Valence>
3.735

> <Coulomb>
19.760

> <VdW>
1.216

> <VdW6>
-8.624

> <VdW12>
9.840

> <Bond>
0.236

> <Angle>
1.168

> <Pdih>
2.330

> <Idih>
0.000

> <Tether>
0.000

$$$$
VeraChem MOL file


 29 28  0  0  0  0  0  0  0  0999 V2000     
   16.3761   21.7003   24.6040 C   0  0  0  0  0  0  0  0  0  0  0  0
   16.7058   22.4887   23.9148 H   0  0  0  0  0  0  0  0  0  0  0  0
   15.8159   20.9533   24.0264 H   0  0  0  0  0  0  0  0  0  0  0  0
   15.6864   22.1526   25.3284 H   0  0  0  0  0  0  0  0  0  0  0  0
   17.5786   21.0559   25.3254 C   0  0  0  0  0  0  0  0  0  0  0  0
   17.2159   20.2953   26.0311 H   0  0  0  0  0  0  0  0  0  0  0  0
   18.0977   21.8196   25.9214 H   0  0  0  0  0  0  0  0  0  0  0  0
   18.5662   20.4119   24.3275 C   0  0  0  0  0  0  0  0  0  0  0  0
   18.0337   19.6581   23.7330 H   0  0  0  0  0  0  0  0  0  0  0  0
   18.9275   21.1761   23.6256 H   0  0  0  0  0  0  0  0  0  0  0  0
   19.7705   19.7619   25.0501 C   0  0  0  0  0  0  0  0  0  0  0  0
   19.4162   18.9615   25.7143 H   0  0  0  0  0  0  0  0  0  0  0  0
   20.2468   20.5112   25.6973 H   0  0  0  0  0  0  0  0  0  0  0  0
   20.8400   19.1985   24.0825 C   0  0  0  0  0  0  0  0  0  0  0  0
   21.2103   20.0123   23.4451 H   0  0  0  0  0  0  0  0  0  0  0  0
   21.6982   18.8520   24.6750 H   0  0  0  0  0  0  0  0  0  0  0  0
   20.3236   18.0264   23.2087 C   0  0  0  0  0  0  0  0  0  0  0  0
   19.5584   18.3862   22.5092 H   0  0  0  0  0  0  0  0  0  0  0  0
   19.8322   17.2930   23.8614 H   0  0  0  0  0  0  0  0  0  0  0  0
   21.4394   17.3075   22.4169 C   0  0  2  0  0  0  0  0  0  0  0  0
   22.2102   16.9867   23.1245 H   0  0  0  0  0  0  0  0  0  0  0  0
   22.0917   18.2285   21.3703 C   0  0  0  0  0  0  0  0  0  0  0  0
   21.3455   18.6247   20.6704 H   0  0  0  0  0  0  0  0  0  0  0  0
   22.6004   19.0749   21.8461 H   0  0  0  0  0  0  0  0  0  0  0  0
   22.8453   17.6815   20.7905 H   0  0  0  0  0  0  0  0  0  0  0  0
   20.9205   16.0586   21.7601 N   0  3  0  0  0  0  0  0  0  0  0  0
   20.5201   15.4109   22.4450 H   0  0  0  0  0  0  0  0  0  0  0  0
   21.6658   15.5582   21.2673 H   0  0  0  0  0  0  0  0  0  0  0  0
   20.1908   16.2719   21.0748 H   0  0  0  0  0  0  0  0  0  0  0  0
  1  2  1  0  0  0  0
  1  3  1  0  0  0  0
  1  4  1  0  0  0  0
  1  5  1  0  0  0  0
  5  6  1  0  0  0  0
  5  7  1  0  0  0  0
  5  8  1  0  0  0  0
  8  9  1  0  0  0  0
  8 10  1  0  0  0  0
  8 11  1  0  0  0  0
 11 12  1  0  0  0  0
 11 13  1  0  0  0  0
 11 14  1  0  0  0  0
 14 15  1  0  0  0  0
 14 16  1  0  0  0  0
 14 17  1  0  0  0  0
 17 18  1  0  0  0  0
 17 19  1  0  0  0  0
 17 20  1  0  0  0  0
 20 21  1  0  0  0  0
 20 22  1  0  0  0  0
 22 23  1  0  0  0  0
 22 24  1  0  0  0  0
 22 25  1  0  0  0  0
 20 26  1  0  0  0  0
 26 27  1  0  0  0  0
 26 28  1  0  0  0  0
 26 29  1  0  0  0  0
M  END
> <VConfSearch Rank>
888

> <Conf_Id>
39

> <Delta U+W>
0.965

> <U+W>
-26.861

> <U>
25.129

> <W>
-51.990

> <W(PB)>
-54.526

> <W(SA)>
2.536

> <Valence>
4.206

> <Coulomb>
19.678

> <VdW>
1.245

> <VdW6>
-8.834

> <VdW12>
10.079

> <Bond>
0.240

> <Angle>
1.353

> <Pdih>
2.613

> <Idih>
0.000

> <Tether>
0.000

$$$$
VeraChem MOL file


 29 28  0  0  0  0  0  0  0  0999 V2000     
   21.2142   16.5560   20.4199 C   0  0  0  0  0  0  0  0  0  0  0  0
   22.2326   16.6343   20.8222 H   0  0  0  0  0  0  0  0  0  0  0  0
   20.6473   15.8601   21.0504 H   0  0  0  0  0  0  0  0  0  0  0  0
   21.2823   16.1117   19.4184 H   0  0  0  0  0  0  0  0  0  0  0  0
   20.5359   17.9431   20.3504 C   0  0  0  0  0  0  0  0  0  0  0  0
   19.5075   17.8343   19.9786 H   0  0  0  0  0  0  0  0  0  0  0  0
   21.0667   18.5579   19.6101 H   0  0  0  0  0  0  0  0  0  0  0  0
   20.5270   18.6954   21.7032 C   0  0  0  0  0  0  0  0  0  0  0  0
   21.5571   18.8022   22.0699 H   0  0  0  0  0  0  0  0  0  0  0  0
   20.1550   19.7118   21.5222 H   0  0  0  0  0  0  0  0  0  0  0  0
   19.6547   18.0086   22.7848 C   0  0  0  0  0  0  0  0  0  0  0  0
   20.0239   16.9896   22.9578 H   0  0  0  0  0  0  0  0  0  0  0  0
   18.6235   17.9059   22.4199 H   0  0  0  0  0  0  0  0  0  0  0  0
   19.6533   18.7523   24.1433 C   0  0  0  0  0  0  0  0  0  0  0  0
   19.1294   18.1232   24.8747 H   0  0  0  0  0  0  0  0  0  0  0  0
   20.6872   18.8479   24.5006 H   0  0  0  0  0  0  0  0  0  0  0  0
   18.9762   20.1490   24.0831 C   0  0  0  0  0  0  0  0  0  0  0  0
   17.9865   20.0514   23.6181 H   0  0  0  0  0  0  0  0  0  0  0  0
   19.5550   20.8134   23.4298 H   0  0  0  0  0  0  0  0  0  0  0  0
   18.8069   20.8472   25.4531 C   0  0  2  0  0  0  0  0  0  0  0  0
   18.3150   21.8076   25.2699 H   0  0  0  0  0  0  0  0  0  0  0  0
   20.1606   21.1377   26.1242 C   0  0  0  0  0  0  0  0  0  0  0  0
   20.6717   20.2144   26.4218 H   0  0  0  0  0  0  0  0  0  0  0  0
   20.8205   21.6932   25.4462 H   0  0  0  0  0  0  0  0  0  0  0  0
   20.0193   21.7478   27.0247 H   0  0  0  0  0  0  0  0  0  0  0  0
   17.8991   20.0853   26.3789 N   0  3  0  0  0  0  0  0  0  0  0  0
   16.9804   19.9250   25.9558 H   0  0  0  0  0  0  0  0  0  0  0  0
   17.7481   20.5924   27.2557 H   0  0  0  0  0  0  0  0  0  0  0  0
   18.2930   19.1717   26.6166 H   0  0  0  0  0  0  0  0  0  0  0  0
  1  2  1  0  0  0  0
  1  3  1  0  0  0  0
  1  4  1  0  0  0  0
  1  5  1  0  0  0  0
  5  6  1  0  0  0  0
  5  7  1  0  0  0  0
  5  8  1  0  0  0  0
  8  9  1  0  0  0  0
  8 10  1  0  0  0  0
  8 11  1  0  0  0  0
 11 12  1  0  0  0  0
 11 13  1  0  0  0  0
 11 14  1  0  0  0  0
 14 15  1  0  0  0  0
 14 16  1  0  0  0  0
 14 17  1  0  0  0  0
 17 18  1  0  0  0  0
 17 19  1  0  0  0  0
 17 20  1  0  0  0  0
 20 21  1  0  0  0  0
 20 22  1  0  0  0  0
 22 23  1  0  0  0  0
 22 24  1  0  0  0  0
 22 25  1  0  0  0  0
 20 26  1  0  0  0  0
 26 27  1  0  0  0  0
 26 28  1  0  0  0  0
 26 29  1  0  0  0  0
M  END
> <VConfSearch Rank>
889

> <Conf_Id>
155

> <Delta U+W>
1.624

> <U+W>
-26.202

> <U>
25.894

> <W>
-52.096

> <W(PB)>
-54.602

> <W(SA)>
2.506

> <Valence>
4.779

> <Coulomb>
19.659

> <VdW>
1.456

> <VdW6>
-9.843

> <VdW12>
11.299

> <Bond>
0.315

> <Angle>
1.725

> <Pdih>
2.740

> <Idih>
0.000

> <Tether>
0.000

$$$$
VeraChem MOL file


 29 28  0  0  0  0  0  0  0  0999 V2000     
   16.3849   17.5101   25.2078 C   0  0  0  0  0  0  0  0  0  0  0  0
   17.0712   16.6580   25.1277 H   0  0  0  0  0  0  0  0  0  0  0  0
   16.7341   18.1581   26.0221 H   0  0  0  0  0  0  0  0  0  0  0  0
   15.4003   17.1158   25.4909 H   0  0  0  0  0  0  0  0  0  0  0  0
   16.2928   18.2908   23.8772 C   0  0  0  0  0  0  0  0  0  0  0  0
   15.5119   19.0585   23.9696 H   0  0  0  0  0  0  0  0  0  0  0  0
   15.9663   17.6152   23.0743 H   0  0  0  0  0  0  0  0  0  0  0  0
   17.6205   18.9775   23.4765 C   0  0  0  0  0  0  0  0  0  0  0  0
   17.4415   19.5875   22.5804 H   0  0  0  0  0  0  0  0  0  0  0  0
   17.9173   19.6725   24.2726 H   0  0  0  0  0  0  0  0  0  0  0  0
   18.7660   17.9745   23.1873 C   0  0  0  0  0  0  0  0  0  0  0  0
   18.4004   17.2085   22.4896 H   0  0  0  0  0  0  0  0  0  0  0  0
   19.0459   17.4461   24.1082 H   0  0  0  0  0  0  0  0  0  0  0  0
   20.0269   18.6324   22.5742 C   0  0  0  0  0  0  0  0  0  0  0  0
   20.7158   17.8297   22.2821 H   0  0  0  0  0  0  0  0  0  0  0  0
   19.7544   19.1589   21.6492 H   0  0  0  0  0  0  0  0  0  0  0  0
   20.7459   19.6096   23.5405 C   0  0  0  0  0  0  0  0  0  0  0  0
   21.0288   19.0806   24.4601 H   0  0  0  0  0  0  0  0  0  0  0  0
   20.0443   20.3984   23.8378 H   0  0  0  0  0  0  0  0  0  0  0  0
   21.9923   20.2879   22.9265 C   0  0  2  0  0  0  0  0  0  0  0  0
   21.6983   20.7560   21.9821 H   0  0  0  0  0  0  0  0  0  0  0  0
   23.1228   19.2825   22.6421 C   0  0  0  0  0  0  0  0  0  0  0  0
   23.4062   18.7365   23.5505 H   0  0  0  0  0  0  0  0  0  0  0  0
   22.8271   18.5527   21.8799 H   0  0  0  0  0  0  0  0  0  0  0  0
   24.0136   19.8000   22.2651 H   0  0  0  0  0  0  0  0  0  0  0  0
   22.4955   21.3958   23.8097 N   0  3  0  0  0  0  0  0  0  0  0  0
   21.7734   22.1025   23.9770 H   0  0  0  0  0  0  0  0  0  0  0  0
   23.2976   21.8739   23.3892 H   0  0  0  0  0  0  0  0  0  0  0  0
   22.7956   21.0402   24.7214 H   0  0  0  0  0  0  0  0  0  0  0  0
  1  2  1  0  0  0  0
  1  3  1  0  0  0  0
  1  4  1  0  0  0  0
  1  5  1  0  0  0  0
  5  6  1  0  0  0  0
  5  7  1  0  0  0  0
  5  8  1  0  0  0  0
  8  9  1  0  0  0  0
  8 10  1  0  0  0  0
  8 11  1  0  0  0  0
 11 12  1  0  0  0  0
 11 13  1  0  0  0  0
 11 14  1  0  0  0  0
 14 15  1  0  0  0  0
 14 16  1  0  0  0  0
 14 17  1  0  0  0  0
 17 18  1  0  0  0  0
 17 19  1  0  0  0  0
 17 20  1  0  0  0  0
 20 21  1  0  0  0  0
 20 22  1  0  0  0  0
 22 23  1  0  0  0  0
 22 24  1  0  0  0  0
 22 25  1  0  0  0  0
 20 26  1  0  0  0  0
 26 27  1  0  0  0  0
 26 28  1  0  0  0  0
 26 29  1  0  0  0  0
M  END
> <VConfSearch Rank>
890

> <Conf_Id>
135

> <Delta U+W>
1.581

> <U+W>
-26.245

> <U>
25.974

> <W>
-52.219

> <W(PB)>
-54.709

> <W(SA)>
2.490

> <Valence>
4.811

> <Coulomb>
19.700

> <VdW>
1.463

> <VdW6>
-9.391

> <VdW12>
10.854

> <Bond>
0.285

> <Angle>
1.671

> <Pdih>
2.855

> <Idih>
0.000

> <Tether>
0.000

$$$$
VeraChem MOL file


 29 28  0  0  0  0  0  0  0  0999 V2000     
   17.6766   17.6375   26.6933 C   0  0  0  0  0  0  0  0  0  0  0  0
   17.5942   16.8078   25.9793 H   0  0  0  0  0  0  0  0  0  0  0  0
   18.6984   17.6480   27.0923 H   0  0  0  0  0  0  0  0  0  0  0  0
   16.9974   17.4293   27.5301 H   0  0  0  0  0  0  0  0  0  0  0  0
   17.3150   18.9833   26.0251 C   0  0  0  0  0  0  0  0  0  0  0  0
   17.4305   19.7995   26.7519 H   0  0  0  0  0  0  0  0  0  0  0  0
   16.2518   18.9671   25.7473 H   0  0  0  0  0  0  0  0  0  0  0  0
   18.1547   19.2852   24.7607 C   0  0  0  0  0  0  0  0  0  0  0  0
   18.0077   18.4778   24.0313 H   0  0  0  0  0  0  0  0  0  0  0  0
   17.7667   20.2010   24.2941 H   0  0  0  0  0  0  0  0  0  0  0  0
   19.6648   19.4675   25.0563 C   0  0  0  0  0  0  0  0  0  0  0  0
   20.0955   18.5225   25.4129 H   0  0  0  0  0  0  0  0  0  0  0  0
   19.7854   20.1913   25.8739 H   0  0  0  0  0  0  0  0  0  0  0  0
   20.4735   19.9665   23.8339 C   0  0  0  0  0  0  0  0  0  0  0  0
   20.0662   20.9315   23.5047 H   0  0  0  0  0  0  0  0  0  0  0  0
   21.5073   20.1576   24.1535 H   0  0  0  0  0  0  0  0  0  0  0  0
   20.4867   18.9602   22.6544 C   0  0  0  0  0  0  0  0  0  0  0  0
   19.4780   18.8593   22.2339 H   0  0  0  0  0  0  0  0  0  0  0  0
   20.7654   17.9712   23.0413 H   0  0  0  0  0  0  0  0  0  0  0  0
   21.4732   19.3414   21.5274 C   0  0  2  0  0  0  0  0  0  0  0  0
   22.4655   19.4728   21.9698 H   0  0  0  0  0  0  0  0  0  0  0  0
   21.0739   20.6529   20.8278 C   0  0  0  0  0  0  0  0  0  0  0  0
   20.0582   20.5905   20.4177 H   0  0  0  0  0  0  0  0  0  0  0  0
   21.1137   21.5019   21.5200 H   0  0  0  0  0  0  0  0  0  0  0  0
   21.7611   20.8751   20.0022 H   0  0  0  0  0  0  0  0  0  0  0  0
   21.6014   18.2324   20.5204 N   0  3  0  0  0  0  0  0  0  0  0  0
   22.2840   18.4649   19.7932 H   0  0  0  0  0  0  0  0  0  0  0  0
   20.7097   18.0458   20.0538 H   0  0  0  0  0  0  0  0  0  0  0  0
   21.9086   17.3591   20.9583 H   0  0  0  0  0  0  0  0  0  0  0  0
  1  2  1  0  0  0  0
  1  3  1  0  0  0  0
  1  4  1  0  0  0  0
  1  5  1  0  0  0  0
  5  6  1  0  0  0  0
  5  7  1  0  0  0  0
  5  8  1  0  0  0  0
  8  9  1  0  0  0  0
  8 10  1  0  0  0  0
  8 11  1  0  0  0  0
 11 12  1  0  0  0  0
 11 13  1  0  0  0  0
 11 14  1  0  0  0  0
 14 15  1  0  0  0  0
 14 16  1  0  0  0  0
 14 17  1  0  0  0  0
 17 18  1  0  0  0  0
 17 19  1  0  0  0  0
 17 20  1  0  0  0  0
 20 21  1  0  0  0  0
 20 22  1  0  0  0  0
 22 23  1  0  0  0  0
 22 24  1  0  0  0  0
 22 25  1  0  0  0  0
 20 26  1  0  0  0  0
 26 27  1  0  0  0  0
 26 28  1  0  0  0  0
 26 29  1  0  0  0  0
M  END
> <VConfSearch Rank>
891

> <Conf_Id>
130

> <Delta U+W>
1.359

> <U+W>
-26.467

> <U>
25.687

> <W>
-52.154

> <W(PB)>
-54.643

> <W(SA)>
2.489

> <Valence>
4.682

> <Coulomb>
19.653

> <VdW>
1.352

> <VdW6>
-9.477

> <VdW12>
10.829

> <Bond>
0.274

> <Angle>
1.550

> <Pdih>
2.858

> <Idih>
0.000

> <Tether>
0.000

$$$$
VeraChem MOL file


 29 28  0  0  0  0  0  0  0  0999 V2000     
   21.4935   16.9582   26.5511 C   0  0  0  0  0  0  0  0  0  0  0  0
   22.1434   16.1105   26.8039 H   0  0  0  0  0  0  0  0  0  0  0  0
   21.5015   17.6527   27.4012 H   0  0  0  0  0  0  0  0  0  0  0  0
   20.4747   16.5686   26.4341 H   0  0  0  0  0  0  0  0  0  0  0  0
   21.9879   17.6525   25.2618 C   0  0  0  0  0  0  0  0  0  0  0  0
   21.9388   16.9475   24.4202 H   0  0  0  0  0  0  0  0  0  0  0  0
   23.0489   17.9111   25.3845 H   0  0  0  0  0  0  0  0  0  0  0  0
   21.2012   18.9391   24.9131 C   0  0  0  0  0  0  0  0  0  0  0  0
   21.2692   19.6470   25.7505 H   0  0  0  0  0  0  0  0  0  0  0  0
   21.6974   19.4227   24.0623 H   0  0  0  0  0  0  0  0  0  0  0  0
   19.7117   18.6766   24.5728 C   0  0  0  0  0  0  0  0  0  0  0  0
   19.2119   18.2557   25.4549 H   0  0  0  0  0  0  0  0  0  0  0  0
   19.6415   17.9151   23.7867 H   0  0  0  0  0  0  0  0  0  0  0  0
   18.9471   19.9600   24.1561 C   0  0  0  0  0  0  0  0  0  0  0  0
   17.8650   19.7795   24.2176 H   0  0  0  0  0  0  0  0  0  0  0  0
   19.1550   20.7427   24.8988 H   0  0  0  0  0  0  0  0  0  0  0  0
   19.3006   20.4983   22.7419 C   0  0  0  0  0  0  0  0  0  0  0  0
   20.3214   20.2161   22.4580 H   0  0  0  0  0  0  0  0  0  0  0  0
   19.2972   21.5952   22.7919 H   0  0  0  0  0  0  0  0  0  0  0  0
   18.3122   20.0797   21.6272 C   0  0  2  0  0  0  0  0  0  0  0  0
   17.3103   20.4094   21.9185 H   0  0  0  0  0  0  0  0  0  0  0  0
   18.2728   18.5577   21.4090 C   0  0  0  0  0  0  0  0  0  0  0  0
   17.8706   18.0444   22.2899 H   0  0  0  0  0  0  0  0  0  0  0  0
   17.6220   18.3047   20.5630 H   0  0  0  0  0  0  0  0  0  0  0  0
   19.2737   18.1600   21.2001 H   0  0  0  0  0  0  0  0  0  0  0  0
   18.6279   20.7811   20.3353 N   0  3  0  0  0  0  0  0  0  0  0  0
   18.6132   21.7992   20.4455 H   0  0  0  0  0  0  0  0  0  0  0  0
   17.9495   20.5440   19.6058 H   0  0  0  0  0  0  0  0  0  0  0  0
   19.5547   20.5224   19.9863 H   0  0  0  0  0  0  0  0  0  0  0  0
  1  2  1  0  0  0  0
  1  3  1  0  0  0  0
  1  4  1  0  0  0  0
  1  5  1  0  0  0  0
  5  6  1  0  0  0  0
  5  7  1  0  0  0  0
  5  8  1  0  0  0  0
  8  9  1  0  0  0  0
  8 10  1  0  0  0  0
  8 11  1  0  0  0  0
 11 12  1  0  0  0  0
 11 13  1  0  0  0  0
 11 14  1  0  0  0  0
 14 15  1  0  0  0  0
 14 16  1  0  0  0  0
 14 17  1  0  0  0  0
 17 18  1  0  0  0  0
 17 19  1  0  0  0  0
 17 20  1  0  0  0  0
 20 21  1  0  0  0  0
 20 22  1  0  0  0  0
 22 23  1  0  0  0  0
 22 24  1  0  0  0  0
 22 25  1  0  0  0  0
 20 26  1  0  0  0  0
 26 27  1  0  0  0  0
 26 28  1  0  0  0  0
 26 29  1  0  0  0  0
M  END
> <VConfSearch Rank>
892

> <Conf_Id>
157

> <Delta U+W>
4.354

> <U+W>
-23.472

> <U>
28.780

> <W>
-52.252

> <W(PB)>
-54.715

> <W(SA)>
2.462

> <Valence>
7.566

> <Coulomb>
19.822

> <VdW>
1.392

> <VdW6>
-10.248

> <VdW12>
11.641

> <Bond>
0.340

> <Angle>
2.096

> <Pdih>
5.129

> <Idih>
0.000

> <Tether>
0.000

$$$$
VeraChem MOL file


 29 28  0  0  0  0  0  0  0  0999 V2000     
   20.8498   15.6381   24.0613 C   0  0  0  0  0  0  0  0  0  0  0  0
   21.5214   15.0119   24.6627 H   0  0  0  0  0  0  0  0  0  0  0  0
   20.2494   16.2401   24.7522 H   0  0  0  0  0  0  0  0  0  0  0  0
   20.1695   14.9697   23.5177 H   0  0  0  0  0  0  0  0  0  0  0  0
   21.6621   16.5147   23.0798 C   0  0  0  0  0  0  0  0  0  0  0  0
   22.2490   15.8457   22.4349 H   0  0  0  0  0  0  0  0  0  0  0  0
   22.3940   17.1245   23.6276 H   0  0  0  0  0  0  0  0  0  0  0  0
   20.7748   17.4143   22.1814 C   0  0  0  0  0  0  0  0  0  0  0  0
   21.2397   17.4682   21.1873 H   0  0  0  0  0  0  0  0  0  0  0  0
   19.7943   16.9444   22.0235 H   0  0  0  0  0  0  0  0  0  0  0  0
   20.5934   18.8678   22.6898 C   0  0  0  0  0  0  0  0  0  0  0  0
   20.0144   19.4159   21.9354 H   0  0  0  0  0  0  0  0  0  0  0  0
   21.5741   19.3607   22.7400 H   0  0  0  0  0  0  0  0  0  0  0  0
   19.8927   18.9781   24.0664 C   0  0  0  0  0  0  0  0  0  0  0  0
   18.9496   18.4160   24.0522 H   0  0  0  0  0  0  0  0  0  0  0  0
   20.5237   18.5049   24.8295 H   0  0  0  0  0  0  0  0  0  0  0  0
   19.6345   20.4419   24.5076 C   0  0  0  0  0  0  0  0  0  0  0  0
   20.5988   20.9601   24.5939 H   0  0  0  0  0  0  0  0  0  0  0  0
   19.1978   20.4381   25.5151 H   0  0  0  0  0  0  0  0  0  0  0  0
   18.7153   21.2434   23.5584 C   0  0  2  0  0  0  0  0  0  0  0  0
   19.1772   21.2664   22.5672 H   0  0  0  0  0  0  0  0  0  0  0  0
   18.5708   22.6918   24.0514 C   0  0  0  0  0  0  0  0  0  0  0  0
   18.1040   22.7291   25.0436 H   0  0  0  0  0  0  0  0  0  0  0  0
   19.5509   23.1807   24.1162 H   0  0  0  0  0  0  0  0  0  0  0  0
   17.9519   23.2772   23.3602 H   0  0  0  0  0  0  0  0  0  0  0  0
   17.3647   20.6032   23.3918 N   0  3  0  0  0  0  0  0  0  0  0  0
   17.4489   19.6505   23.0268 H   0  0  0  0  0  0  0  0  0  0  0  0
   16.7769   21.1320   22.7410 H   0  0  0  0  0  0  0  0  0  0  0  0
   16.8652   20.5499   24.2834 H   0  0  0  0  0  0  0  0  0  0  0  0
  1  2  1  0  0  0  0
  1  3  1  0  0  0  0
  1  4  1  0  0  0  0
  1  5  1  0  0  0  0
  5  6  1  0  0  0  0
  5  7  1  0  0  0  0
  5  8  1  0  0  0  0
  8  9  1  0  0  0  0
  8 10  1  0  0  0  0
  8 11  1  0  0  0  0
 11 12  1  0  0  0  0
 11 13  1  0  0  0  0
 11 14  1  0  0  0  0
 14 15  1  0  0  0  0
 14 16  1  0  0  0  0
 14 17  1  0  0  0  0
 17 18  1  0  0  0  0
 17 19  1  0  0  0  0
 17 20  1  0  0  0  0
 20 21  1  0  0  0  0
 20 22  1  0  0  0  0
 22 23  1  0  0  0  0
 22 24  1  0  0  0  0
 22 25  1  0  0  0  0
 20 26  1  0  0  0  0
 26 27  1  0  0  0  0
 26 28  1  0  0  0  0
 26 29  1  0  0  0  0
M  END
> <VConfSearch Rank>
893

> <Conf_Id>
158

> <Delta U+W>
3.648

> <U+W>
-24.178

> <U>
28.057

> <W>
-52.235

> <W(PB)>
-54.696

> <W(SA)>
2.460

> <Valence>
6.543

> <Coulomb>
20.387

> <VdW>
1.127

> <VdW6>
-10.342

> <VdW12>
11.469

> <Bond>
0.308

> <Angle>
1.938

> <Pdih>
4.297

> <Idih>
0.000

> <Tether>
0.000

$$$$
VeraChem MOL file


 29 28  0  0  0  0  0  0  0  0999 V2000     
   20.5808   16.8786   26.4366 C   0  0  0  0  0  0  0  0  0  0  0  0
   19.6697   16.3067   26.2177 H   0  0  0  0  0  0  0  0  0  0  0  0
   21.2087   16.8836   25.5372 H   0  0  0  0  0  0  0  0  0  0  0  0
   21.1324   16.3439   27.2206 H   0  0  0  0  0  0  0  0  0  0  0  0
   20.2387   18.3131   26.8990 C   0  0  0  0  0  0  0  0  0  0  0  0
   21.1661   18.8742   27.0803 H   0  0  0  0  0  0  0  0  0  0  0  0
   19.7184   18.2586   27.8655 H   0  0  0  0  0  0  0  0  0  0  0  0
   19.3462   19.0859   25.8982 C   0  0  0  0  0  0  0  0  0  0  0  0
   18.4130   18.5296   25.7344 H   0  0  0  0  0  0  0  0  0  0  0  0
   19.0594   20.0436   26.3540 H   0  0  0  0  0  0  0  0  0  0  0  0
   20.0361   19.3588   24.5403 C   0  0  0  0  0  0  0  0  0  0  0  0
   20.2781   18.4085   24.0521 H   0  0  0  0  0  0  0  0  0  0  0  0
   20.9905   19.8745   24.7140 H   0  0  0  0  0  0  0  0  0  0  0  0
   19.1483   20.2230   23.6114 C   0  0  0  0  0  0  0  0  0  0  0  0
   18.1593   19.7610   23.4858 H   0  0  0  0  0  0  0  0  0  0  0  0
   18.9710   21.1871   24.1079 H   0  0  0  0  0  0  0  0  0  0  0  0
   19.7893   20.4947   22.2246 C   0  0  0  0  0  0  0  0  0  0  0  0
   20.8845   20.4660   22.2986 H   0  0  0  0  0  0  0  0  0  0  0  0
   19.5365   21.5233   21.9349 H   0  0  0  0  0  0  0  0  0  0  0  0
   19.3053   19.5600   21.0898 C   0  0  2  0  0  0  0  0  0  0  0  0
   18.2176   19.6529   21.0134 H   0  0  0  0  0  0  0  0  0  0  0  0
   19.6429   18.0818   21.3471 C   0  0  0  0  0  0  0  0  0  0  0  0
   20.7166   17.9441   21.5258 H   0  0  0  0  0  0  0  0  0  0  0  0
   19.0922   17.6978   22.2136 H   0  0  0  0  0  0  0  0  0  0  0  0
   19.3590   17.4645   20.4860 H   0  0  0  0  0  0  0  0  0  0  0  0
   19.8595   19.9950   19.7616 N   0  3  0  0  0  0  0  0  0  0  0  0
   19.6056   20.9634   19.5458 H   0  0  0  0  0  0  0  0  0  0  0  0
   19.5054   19.4102   18.9991 H   0  0  0  0  0  0  0  0  0  0  0  0
   20.8811   19.9334   19.7446 H   0  0  0  0  0  0  0  0  0  0  0  0
  1  2  1  0  0  0  0
  1  3  1  0  0  0  0
  1  4  1  0  0  0  0
  1  5  1  0  0  0  0
  5  6  1  0  0  0  0
  5  7  1  0  0  0  0
  5  8  1  0  0  0  0
  8  9  1  0  0  0  0
  8 10  1  0  0  0  0
  8 11  1  0  0  0  0
 11 12  1  0  0  0  0
 11 13  1  0  0  0  0
 11 14  1  0  0  0  0
 14 15  1  0  0  0  0
 14 16  1  0  0  0  0
 14 17  1  0  0  0  0
 17 18  1  0  0  0  0
 17 19  1  0  0  0  0
 17 20  1  0  0  0  0
 20 21  1  0  0  0  0
 20 22  1  0  0  0  0
 22 23  1  0  0  0  0
 22 24  1  0  0  0  0
 22 25  1  0  0  0  0
 20 26  1  0  0  0  0
 26 27  1  0  0  0  0
 26 28  1  0  0  0  0
 26 29  1  0  0  0  0
M  END
> <VConfSearch Rank>
894

> <Conf_Id>
156

> <Delta U+W>
3.393

> <U+W>
-24.433

> <U>
27.713

> <W>
-52.146

> <W(PB)>
-54.603

> <W(SA)>
2.458

> <Valence>
6.758

> <Coulomb>
19.720

> <VdW>
1.235

> <VdW6>
-9.782

> <VdW12>
11.017

> <Bond>
0.287

> <Angle>
1.880

> <Pdih>
4.591

> <Idih>
0.000

> <Tether>
0.000

$$$$
VeraChem MOL file


 29 28  0  0  0  0  0  0  0  0999 V2000     
   17.4103   16.1014   24.1228 C   0  0  0  0  0  0  0  0  0  0  0  0
   16.8361   16.7659   24.7816 H   0  0  0  0  0  0  0  0  0  0  0  0
   16.7195   15.6678   23.3880 H   0  0  0  0  0  0  0  0  0  0  0  0
   17.8089   15.2819   24.7348 H   0  0  0  0  0  0  0  0  0  0  0  0
   18.5545   16.8665   23.4250 C   0  0  0  0  0  0  0  0  0  0  0  0
   19.1285   16.1713   22.7967 H   0  0  0  0  0  0  0  0  0  0  0  0
   19.2437   17.2501   24.1888 H   0  0  0  0  0  0  0  0  0  0  0  0
   18.0172   18.0303   22.5593 C   0  0  0  0  0  0  0  0  0  0  0  0
   17.2727   17.6355   21.8542 H   0  0  0  0  0  0  0  0  0  0  0  0
   17.4787   18.7470   23.1931 H   0  0  0  0  0  0  0  0  0  0  0  0
   19.1175   18.7604   21.7462 C   0  0  0  0  0  0  0  0  0  0  0  0
   18.6461   19.5508   21.1460 H   0  0  0  0  0  0  0  0  0  0  0  0
   19.5511   18.0548   21.0242 H   0  0  0  0  0  0  0  0  0  0  0  0
   20.2656   19.3820   22.5830 C   0  0  0  0  0  0  0  0  0  0  0  0
   20.8223   18.5860   23.0932 H   0  0  0  0  0  0  0  0  0  0  0  0
   20.9734   19.8470   21.8850 H   0  0  0  0  0  0  0  0  0  0  0  0
   19.7775   20.4398   23.6102 C   0  0  0  0  0  0  0  0  0  0  0  0
   19.0926   19.9680   24.3254 H   0  0  0  0  0  0  0  0  0  0  0  0
   19.1911   21.2083   23.0896 H   0  0  0  0  0  0  0  0  0  0  0  0
   20.9020   21.1315   24.4165 C   0  0  2  0  0  0  0  0  0  0  0  0
   20.4205   21.8051   25.1321 H   0  0  0  0  0  0  0  0  0  0  0  0
   21.8183   21.9848   23.5221 C   0  0  0  0  0  0  0  0  0  0  0  0
   22.5120   22.5729   24.1355 H   0  0  0  0  0  0  0  0  0  0  0  0
   22.4160   21.3653   22.8433 H   0  0  0  0  0  0  0  0  0  0  0  0
   21.2303   22.6878   22.9192 H   0  0  0  0  0  0  0  0  0  0  0  0
   21.7033   20.1574   25.2353 N   0  3  0  0  0  0  0  0  0  0  0  0
   21.1056   19.6186   25.8685 H   0  0  0  0  0  0  0  0  0  0  0  0
   22.4027   20.6378   25.8087 H   0  0  0  0  0  0  0  0  0  0  0  0
   22.2003   19.4922   24.6378 H   0  0  0  0  0  0  0  0  0  0  0  0
  1  2  1  0  0  0  0
  1  3  1  0  0  0  0
  1  4  1  0  0  0  0
  1  5  1  0  0  0  0
  5  6  1  0  0  0  0
  5  7  1  0  0  0  0
  5  8  1  0  0  0  0
  8  9  1  0  0  0  0
  8 10  1  0  0  0  0
  8 11  1  0  0  0  0
 11 12  1  0  0  0  0
 11 13  1  0  0  0  0
 11 14  1  0  0  0  0
 14 15  1  0  0  0  0
 14 16  1  0  0  0  0
 14 17  1  0  0  0  0
 17 18  1  0  0  0  0
 17 19  1  0  0  0  0
 17 20  1  0  0  0  0
 20 21  1  0  0  0  0
 20 22  1  0  0  0  0
 22 23  1  0  0  0  0
 22 24  1  0  0  0  0
 22 25  1  0  0  0  0
 20 26  1  0  0  0  0
 26 27  1  0  0  0  0
 26 28  1  0  0  0  0
 26 29  1  0  0  0  0
M  END
> <VConfSearch Rank>
895

> <Conf_Id>
78

> <Delta U+W>
1.477

> <U+W>
-26.349

> <U>
26.385

> <W>
-52.734

> <W(PB)>
-55.179

> <W(SA)>
2.445

> <Valence>
4.726

> <Coulomb>
20.482

> <VdW>
1.177

> <VdW6>
-10.349

> <VdW12>
11.526

> <Bond>
0.319

> <Angle>
1.933

> <Pdih>
2.474

> <Idih>
0.000

> <Tether>
0.000

$$$$
VeraChem MOL file


 29 28  0  0  0  0  0  0  0  0999 V2000     
   18.2043   21.4022   21.1230 C   0  0  0  0  0  0  0  0  0  0  0  0
   17.8741   20.8363   20.2422 H   0  0  0  0  0  0  0  0  0  0  0  0
   17.7302   20.9583   22.0053 H   0  0  0  0  0  0  0  0  0  0  0  0
   17.8251   22.4273   21.0214 H   0  0  0  0  0  0  0  0  0  0  0  0
   19.7471   21.4043   21.2300 C   0  0  0  0  0  0  0  0  0  0  0  0
   20.0715   22.0366   22.0681 H   0  0  0  0  0  0  0  0  0  0  0  0
   20.1486   21.8764   20.3224 H   0  0  0  0  0  0  0  0  0  0  0  0
   20.3553   19.9839   21.3589 C   0  0  0  0  0  0  0  0  0  0  0  0
   19.7062   19.2464   20.8670 H   0  0  0  0  0  0  0  0  0  0  0  0
   21.3005   19.9651   20.7989 H   0  0  0  0  0  0  0  0  0  0  0  0
   20.6650   19.5360   22.8106 C   0  0  0  0  0  0  0  0  0  0  0  0
   21.3993   20.2221   23.2547 H   0  0  0  0  0  0  0  0  0  0  0  0
   21.1540   18.5546   22.7599 H   0  0  0  0  0  0  0  0  0  0  0  0
   19.4214   19.4493   23.7291 C   0  0  0  0  0  0  0  0  0  0  0  0
   18.9867   20.4507   23.8414 H   0  0  0  0  0  0  0  0  0  0  0  0
   18.6487   18.8295   23.2558 H   0  0  0  0  0  0  0  0  0  0  0  0
   19.7428   18.9125   25.1482 C   0  0  0  0  0  0  0  0  0  0  0  0
   18.8225   18.9198   25.7472 H   0  0  0  0  0  0  0  0  0  0  0  0
   20.4294   19.6159   25.6374 H   0  0  0  0  0  0  0  0  0  0  0  0
   20.3667   17.4974   25.1948 C   0  0  2  0  0  0  0  0  0  0  0  0
   21.2916   17.5071   24.6108 H   0  0  0  0  0  0  0  0  0  0  0  0
   19.4285   16.4306   24.6031 C   0  0  0  0  0  0  0  0  0  0  0  0
   19.8720   15.4316   24.6954 H   0  0  0  0  0  0  0  0  0  0  0  0
   18.4607   16.4229   25.1197 H   0  0  0  0  0  0  0  0  0  0  0  0
   19.2479   16.6079   23.5364 H   0  0  0  0  0  0  0  0  0  0  0  0
   20.7597   17.1257   26.5974 N   0  3  0  0  0  0  0  0  0  0  0  0
   19.9453   17.0880   27.2163 H   0  0  0  0  0  0  0  0  0  0  0  0
   21.4183   17.8011   26.9961 H   0  0  0  0  0  0  0  0  0  0  0  0
   21.2098   16.2064   26.6286 H   0  0  0  0  0  0  0  0  0  0  0  0
  1  2  1  0  0  0  0
  1  3  1  0  0  0  0
  1  4  1  0  0  0  0
  1  5  1  0  0  0  0
  5  6  1  0  0  0  0
  5  7  1  0  0  0  0
  5  8  1  0  0  0  0
  8  9  1  0  0  0  0
  8 10  1  0  0  0  0
  8 11  1  0  0  0  0
 11 12  1  0  0  0  0
 11 13  1  0  0  0  0
 11 14  1  0  0  0  0
 14 15  1  0  0  0  0
 14 16  1  0  0  0  0
 14 17  1  0  0  0  0
 17 18  1  0  0  0  0
 17 19  1  0  0  0  0
 17 20  1  0  0  0  0
 20 21  1  0  0  0  0
 20 22  1  0  0  0  0
 22 23  1  0  0  0  0
 22 24  1  0  0  0  0
 22 25  1  0  0  0  0
 20 26  1  0  0  0  0
 26 27  1  0  0  0  0
 26 28  1  0  0  0  0
 26 29  1  0  0  0  0
M  END
> <VConfSearch Rank>
896

> <Conf_Id>
145

> <Delta U+W>
3.784

> <U+W>
-24.042

> <U>
28.220

> <W>
-52.262

> <W(PB)>
-54.724

> <W(SA)>
2.462

> <Valence>
7.040

> <Coulomb>
19.984

> <VdW>
1.197

> <VdW6>
-10.566

> <VdW12>
11.763

> <Bond>
0.320

> <Angle>
2.280

> <Pdih>
4.439

> <Idih>
0.000

> <Tether>
0.000

$$$$
VeraChem MOL file


 29 28  0  0  0  0  0  0  0  0999 V2000     
   17.1437   16.2377   23.5701 C   0  0  0  0  0  0  0  0  0  0  0  0
   17.3450   15.2246   23.9420 H   0  0  0  0  0  0  0  0  0  0  0  0
   16.7648   16.8399   24.4061 H   0  0  0  0  0  0  0  0  0  0  0  0
   16.3482   16.1683   22.8168 H   0  0  0  0  0  0  0  0  0  0  0  0
   18.4148   16.8689   22.9639 C   0  0  0  0  0  0  0  0  0  0  0  0
   18.1684   17.8599   22.5641 H   0  0  0  0  0  0  0  0  0  0  0  0
   18.7479   16.2625   22.1101 H   0  0  0  0  0  0  0  0  0  0  0  0
   19.5554   16.9661   24.0056 C   0  0  0  0  0  0  0  0  0  0  0  0
   19.2160   17.5117   24.8968 H   0  0  0  0  0  0  0  0  0  0  0  0
   19.7934   15.9490   24.3462 H   0  0  0  0  0  0  0  0  0  0  0  0
   20.8493   17.6116   23.4445 C   0  0  0  0  0  0  0  0  0  0  0  0
   20.9234   17.4393   22.3619 H   0  0  0  0  0  0  0  0  0  0  0  0
   21.7100   17.0901   23.8856 H   0  0  0  0  0  0  0  0  0  0  0  0
   21.0098   19.1220   23.7561 C   0  0  0  0  0  0  0  0  0  0  0  0
   21.0423   19.2605   24.8449 H   0  0  0  0  0  0  0  0  0  0  0  0
   21.9894   19.4386   23.3762 H   0  0  0  0  0  0  0  0  0  0  0  0
   19.8988   20.0174   23.1455 C   0  0  0  0  0  0  0  0  0  0  0  0
   18.9346   19.7543   23.5971 H   0  0  0  0  0  0  0  0  0  0  0  0
   19.8064   19.8048   22.0724 H   0  0  0  0  0  0  0  0  0  0  0  0
   20.1090   21.5382   23.3368 C   0  0  2  0  0  0  0  0  0  0  0  0
   19.2255   22.0408   22.9310 H   0  0  0  0  0  0  0  0  0  0  0  0
   21.3327   22.0582   22.5622 C   0  0  0  0  0  0  0  0  0  0  0  0
   21.3715   23.1537   22.5991 H   0  0  0  0  0  0  0  0  0  0  0  0
   22.2717   21.6769   22.9800 H   0  0  0  0  0  0  0  0  0  0  0  0
   21.2806   21.7632   21.5068 H   0  0  0  0  0  0  0  0  0  0  0  0
   20.1823   21.9299   24.7869 N   0  3  0  0  0  0  0  0  0  0  0  0
   20.9945   21.5077   25.2438 H   0  0  0  0  0  0  0  0  0  0  0  0
   19.3484   21.6293   25.2995 H   0  0  0  0  0  0  0  0  0  0  0  0
   20.2605   22.9450   24.8967 H   0  0  0  0  0  0  0  0  0  0  0  0
  1  2  1  0  0  0  0
  1  3  1  0  0  0  0
  1  4  1  0  0  0  0
  1  5  1  0  0  0  0
  5  6  1  0  0  0  0
  5  7  1  0  0  0  0
  5  8  1  0  0  0  0
  8  9  1  0  0  0  0
  8 10  1  0  0  0  0
  8 11  1  0  0  0  0
 11 12  1  0  0  0  0
 11 13  1  0  0  0  0
 11 14  1  0  0  0  0
 14 15  1  0  0  0  0
 14 16  1  0  0  0  0
 14 17  1  0  0  0  0
 17 18  1  0  0  0  0
 17 19  1  0  0  0  0
 17 20  1  0  0  0  0
 20 21  1  0  0  0  0
 20 22  1  0  0  0  0
 22 23  1  0  0  0  0
 22 24  1  0  0  0  0
 22 25  1  0  0  0  0
 20 26  1  0  0  0  0
 26 27  1  0  0  0  0
 26 28  1  0  0  0  0
 26 29  1  0  0  0  0
M  END
> <VConfSearch Rank>
897

> <Conf_Id>
71

> <Delta U+W>
3.542

> <U+W>
-24.284

> <U>
28.217

> <W>
-52.501

> <W(PB)>
-54.947

> <W(SA)>
2.446

> <Valence>
6.821

> <Coulomb>
20.147

> <VdW>
1.249

> <VdW6>
-10.237

> <VdW12>
11.486

> <Bond>
0.317

> <Angle>
1.990

> <Pdih>
4.515

> <Idih>
0.000

> <Tether>
0.000

$$$$
VeraChem MOL file


 29 28  0  0  0  0  0  0  0  0999 V2000     
   20.9452   15.5146   22.3573 C   0  0  0  0  0  0  0  0  0  0  0  0
   20.4088   15.8275   21.4520 H   0  0  0  0  0  0  0  0  0  0  0  0
   21.9692   15.2414   22.0709 H   0  0  0  0  0  0  0  0  0  0  0  0
   20.4527   14.6143   22.7468 H   0  0  0  0  0  0  0  0  0  0  0  0
   20.9460   16.6369   23.4166 C   0  0  0  0  0  0  0  0  0  0  0  0
   21.4595   16.2808   24.3206 H   0  0  0  0  0  0  0  0  0  0  0  0
   19.9121   16.8534   23.7107 H   0  0  0  0  0  0  0  0  0  0  0  0
   21.6461   17.9141   22.8930 C   0  0  0  0  0  0  0  0  0  0  0  0
   22.6841   17.6551   22.6423 H   0  0  0  0  0  0  0  0  0  0  0  0
   21.1826   18.2483   21.9546 H   0  0  0  0  0  0  0  0  0  0  0  0
   21.6654   19.0747   23.9218 C   0  0  0  0  0  0  0  0  0  0  0  0
   22.6204   19.6079   23.8166 H   0  0  0  0  0  0  0  0  0  0  0  0
   21.6606   18.6774   24.9461 H   0  0  0  0  0  0  0  0  0  0  0  0
   20.5296   20.1156   23.7470 C   0  0  0  0  0  0  0  0  0  0  0  0
   20.6967   20.9232   24.4715 H   0  0  0  0  0  0  0  0  0  0  0  0
   20.6162   20.5722   22.7521 H   0  0  0  0  0  0  0  0  0  0  0  0
   19.1028   19.5358   23.9368 C   0  0  0  0  0  0  0  0  0  0  0  0
   19.0655   18.9625   24.8722 H   0  0  0  0  0  0  0  0  0  0  0  0
   18.8887   18.8251   23.1289 H   0  0  0  0  0  0  0  0  0  0  0  0
   17.9712   20.5902   23.9620 C   0  0  2  0  0  0  0  0  0  0  0  0
   17.0284   20.0521   24.1006 H   0  0  0  0  0  0  0  0  0  0  0  0
   17.8748   21.3654   22.6364 C   0  0  0  0  0  0  0  0  0  0  0  0
   17.7892   20.6761   21.7872 H   0  0  0  0  0  0  0  0  0  0  0  0
   16.9872   22.0099   22.6325 H   0  0  0  0  0  0  0  0  0  0  0  0
   18.7525   22.0026   22.4752 H   0  0  0  0  0  0  0  0  0  0  0  0
   18.0879   21.5313   25.1293 N   0  3  0  0  0  0  0  0  0  0  0  0
   18.1094   21.0249   26.0191 H   0  0  0  0  0  0  0  0  0  0  0  0
   17.2975   22.1814   25.1660 H   0  0  0  0  0  0  0  0  0  0  0  0
   18.9426   22.0903   25.0718 H   0  0  0  0  0  0  0  0  0  0  0  0
  1  2  1  0  0  0  0
  1  3  1  0  0  0  0
  1  4  1  0  0  0  0
  1  5  1  0  0  0  0
  5  6  1  0  0  0  0
  5  7  1  0  0  0  0
  5  8  1  0  0  0  0
  8  9  1  0  0  0  0
  8 10  1  0  0  0  0
  8 11  1  0  0  0  0
 11 12  1  0  0  0  0
 11 13  1  0  0  0  0
 11 14  1  0  0  0  0
 14 15  1  0  0  0  0
 14 16  1  0  0  0  0
 14 17  1  0  0  0  0
 17 18  1  0  0  0  0
 17 19  1  0  0  0  0
 17 20  1  0  0  0  0
 20 21  1  0  0  0  0
 20 22  1  0  0  0  0
 22 23  1  0  0  0  0
 22 24  1  0  0  0  0
 22 25  1  0  0  0  0
 20 26  1  0  0  0  0
 26 27  1  0  0  0  0
 26 28  1  0  0  0  0
 26 29  1  0  0  0  0
M  END
> <VConfSearch Rank>
898

> <Conf_Id>
163

> <Delta U+W>
3.309

> <U+W>
-24.517

> <U>
27.916

> <W>
-52.433

> <W(PB)>
-54.866

> <W(SA)>
2.433

> <Valence>
6.693

> <Coulomb>
20.015

> <VdW>
1.208

> <VdW6>
-10.294

> <VdW12>
11.503

> <Bond>
0.312

> <Angle>
1.939

> <Pdih>
4.441

> <Idih>
0.000

> <Tether>
0.000

$$$$
VeraChem MOL file


 29 28  0  0  0  0  0  0  0  0999 V2000     
   20.0962   23.0641   22.7809 C   0  0  0  0  0  0  0  0  0  0  0  0
   21.0073   23.1430   22.1737 H   0  0  0  0  0  0  0  0  0  0  0  0
   19.2669   22.7784   22.1222 H   0  0  0  0  0  0  0  0  0  0  0  0
   19.8711   24.0619   23.1794 H   0  0  0  0  0  0  0  0  0  0  0  0
   20.2825   22.0516   23.9336 C   0  0  0  0  0  0  0  0  0  0  0  0
   19.3474   21.9641   24.5043 H   0  0  0  0  0  0  0  0  0  0  0  0
   21.0329   22.4473   24.6322 H   0  0  0  0  0  0  0  0  0  0  0  0
   20.7390   20.6511   23.4582 C   0  0  0  0  0  0  0  0  0  0  0  0
   21.6759   20.7430   22.8919 H   0  0  0  0  0  0  0  0  0  0  0  0
   20.9713   20.0515   24.3477 H   0  0  0  0  0  0  0  0  0  0  0  0
   19.6788   19.9156   22.6000 C   0  0  0  0  0  0  0  0  0  0  0  0
   19.4473   20.5175   21.7118 H   0  0  0  0  0  0  0  0  0  0  0  0
   18.7401   19.8333   23.1633 H   0  0  0  0  0  0  0  0  0  0  0  0
   20.1364   18.5144   22.1176 C   0  0  0  0  0  0  0  0  0  0  0  0
   19.3556   18.0899   21.4723 H   0  0  0  0  0  0  0  0  0  0  0  0
   21.0203   18.6288   21.4751 H   0  0  0  0  0  0  0  0  0  0  0  0
   20.4703   17.5058   23.2493 C   0  0  0  0  0  0  0  0  0  0  0  0
   21.3787   17.8350   23.7697 H   0  0  0  0  0  0  0  0  0  0  0  0
   20.7190   16.5355   22.7994 H   0  0  0  0  0  0  0  0  0  0  0  0
   19.3356   17.3150   24.2799 C   0  0  2  0  0  0  0  0  0  0  0  0
   19.1034   18.2894   24.7200 H   0  0  0  0  0  0  0  0  0  0  0  0
   19.7885   16.3748   25.4078 C   0  0  0  0  0  0  0  0  0  0  0  0
   18.9995   16.2653   26.1621 H   0  0  0  0  0  0  0  0  0  0  0  0
   20.0316   15.3776   25.0201 H   0  0  0  0  0  0  0  0  0  0  0  0
   20.6783   16.7718   25.9121 H   0  0  0  0  0  0  0  0  0  0  0  0
   18.0680   16.8116   23.6461 N   0  3  0  0  0  0  0  0  0  0  0  0
   17.7422   17.4477   22.9133 H   0  0  0  0  0  0  0  0  0  0  0  0
   17.3149   16.7210   24.3340 H   0  0  0  0  0  0  0  0  0  0  0  0
   18.2055   15.8922   23.2181 H   0  0  0  0  0  0  0  0  0  0  0  0
  1  2  1  0  0  0  0
  1  3  1  0  0  0  0
  1  4  1  0  0  0  0
  1  5  1  0  0  0  0
  5  6  1  0  0  0  0
  5  7  1  0  0  0  0
  5  8  1  0  0  0  0
  8  9  1  0  0  0  0
  8 10  1  0  0  0  0
  8 11  1  0  0  0  0
 11 12  1  0  0  0  0
 11 13  1  0  0  0  0
 11 14  1  0  0  0  0
 14 15  1  0  0  0  0
 14 16  1  0  0  0  0
 14 17  1  0  0  0  0
 17 18  1  0  0  0  0
 17 19  1  0  0  0  0
 17 20  1  0  0  0  0
 20 21  1  0  0  0  0
 20 22  1  0  0  0  0
 22 23  1  0  0  0  0
 22 24  1  0  0  0  0
 22 25  1  0  0  0  0
 20 26  1  0  0  0  0
 26 27  1  0  0  0  0
 26 28  1  0  0  0  0
 26 29  1  0  0  0  0
M  END
> <VConfSearch Rank>
899

> <Conf_Id>
173

> <Delta U+W>
1.363

> <U+W>
-26.462

> <U>
25.816

> <W>
-52.279

> <W(PB)>
-54.727

> <W(SA)>
2.449

> <Valence>
4.504

> <Coulomb>
20.342

> <VdW>
0.971

> <VdW6>
-10.532

> <VdW12>
11.503

> <Bond>
0.307

> <Angle>
1.715

> <Pdih>
2.481

> <Idih>
0.000

> <Tether>
0.000

$$$$
VeraChem MOL file


 29 28  0  0  0  0  0  0  0  0999 V2000     
   21.3790   15.5154   23.6038 C   0  0  0  0  0  0  0  0  0  0  0  0
   20.6134   15.0105   24.2073 H   0  0  0  0  0  0  0  0  0  0  0  0
   21.5737   14.9014   22.7148 H   0  0  0  0  0  0  0  0  0  0  0  0
   22.3031   15.5542   24.1951 H   0  0  0  0  0  0  0  0  0  0  0  0
   20.9250   16.9365   23.2087 C   0  0  0  0  0  0  0  0  0  0  0  0
   21.7207   17.4254   22.6296 H   0  0  0  0  0  0  0  0  0  0  0  0
   20.7777   17.5273   24.1223 H   0  0  0  0  0  0  0  0  0  0  0  0
   19.6184   16.9087   22.3834 C   0  0  0  0  0  0  0  0  0  0  0  0
   19.7450   16.2186   21.5378 H   0  0  0  0  0  0  0  0  0  0  0  0
   18.8083   16.4926   22.9981 H   0  0  0  0  0  0  0  0  0  0  0  0
   19.1834   18.2880   21.8241 C   0  0  0  0  0  0  0  0  0  0  0  0
   18.2731   18.1306   21.2291 H   0  0  0  0  0  0  0  0  0  0  0  0
   19.9364   18.6635   21.1177 H   0  0  0  0  0  0  0  0  0  0  0  0
   18.8759   19.3570   22.9050 C   0  0  0  0  0  0  0  0  0  0  0  0
   18.0266   19.9599   22.5575 H   0  0  0  0  0  0  0  0  0  0  0  0
   18.5419   18.8618   23.8258 H   0  0  0  0  0  0  0  0  0  0  0  0
   20.0750   20.3057   23.1834 C   0  0  0  0  0  0  0  0  0  0  0  0
   20.3439   20.8209   22.2520 H   0  0  0  0  0  0  0  0  0  0  0  0
   20.9608   19.7264   23.4667 H   0  0  0  0  0  0  0  0  0  0  0  0
   19.8196   21.3737   24.2727 C   0  0  2  0  0  0  0  0  0  0  0  0
   20.7111   22.0066   24.3222 H   0  0  0  0  0  0  0  0  0  0  0  0
   19.6203   20.7440   25.6624 C   0  0  0  0  0  0  0  0  0  0  0  0
   20.4527   20.0736   25.9099 H   0  0  0  0  0  0  0  0  0  0  0  0
   19.5806   21.5230   26.4336 H   0  0  0  0  0  0  0  0  0  0  0  0
   18.6880   20.1700   25.7191 H   0  0  0  0  0  0  0  0  0  0  0  0
   18.6777   22.2888   23.9260 N   0  3  0  0  0  0  0  0  0  0  0  0
   18.8247   22.7466   23.0219 H   0  0  0  0  0  0  0  0  0  0  0  0
   18.5627   23.0259   24.6276 H   0  0  0  0  0  0  0  0  0  0  0  0
   17.7945   21.7754   23.8721 H   0  0  0  0  0  0  0  0  0  0  0  0
  1  2  1  0  0  0  0
  1  3  1  0  0  0  0
  1  4  1  0  0  0  0
  1  5  1  0  0  0  0
  5  6  1  0  0  0  0
  5  7  1  0  0  0  0
  5  8  1  0  0  0  0
  8  9  1  0  0  0  0
  8 10  1  0  0  0  0
  8 11  1  0  0  0  0
 11 12  1  0  0  0  0
 11 13  1  0  0  0  0
 11 14  1  0  0  0  0
 14 15  1  0  0  0  0
 14 16  1  0  0  0  0
 14 17  1  0  0  0  0
 17 18  1  0  0  0  0
 17 19  1  0  0  0  0
 17 20  1  0  0  0  0
 20 21  1  0  0  0  0
 20 22  1  0  0  0  0
 22 23  1  0  0  0  0
 22 24  1  0  0  0  0
 22 25  1  0  0  0  0
 20 26  1  0  0  0  0
 26 27  1  0  0  0  0
 26 28  1  0  0  0  0
 26 29  1  0  0  0  0
M  END
> <VConfSearch Rank>
900

> <Conf_Id>
117

> <Delta U+W>
3.377

> <U+W>
-24.449

> <U>
27.947

> <W>
-52.396

> <W(PB)>
-54.842

> <W(SA)>
2.447

> <Valence>
6.731

> <Coulomb>
20.067

> <VdW>
1.149

> <VdW6>
-10.427

> <VdW12>
11.575

> <Bond>
0.324

> <Angle>
1.943

> <Pdih>
4.465

> <Idih>
0.000

> <Tether>
0.000

$$$$
VeraChem MOL file


 29 28  0  0  0  0  0  0  0  0999 V2000     
   24.2846   17.7598   24.5593 C   0  0  0  0  0  0  0  0  0  0  0  0
   24.6758   18.1064   23.5938 H   0  0  0  0  0  0  0  0  0  0  0  0
   24.4575   18.5498   25.3018 H   0  0  0  0  0  0  0  0  0  0  0  0
   24.8662   16.8795   24.8622 H   0  0  0  0  0  0  0  0  0  0  0  0
   22.7842   17.4131   24.4576 C   0  0  0  0  0  0  0  0  0  0  0  0
   22.4301   17.0380   25.4280 H   0  0  0  0  0  0  0  0  0  0  0  0
   22.6467   16.5980   23.7332 H   0  0  0  0  0  0  0  0  0  0  0  0
   21.9421   18.6362   24.0324 C   0  0  0  0  0  0  0  0  0  0  0  0
   22.0846   19.4489   24.7581 H   0  0  0  0  0  0  0  0  0  0  0  0
   22.3013   19.0089   23.0632 H   0  0  0  0  0  0  0  0  0  0  0  0
   20.4390   18.2928   23.9296 C   0  0  0  0  0  0  0  0  0  0  0  0
   20.0816   17.9190   24.8991 H   0  0  0  0  0  0  0  0  0  0  0  0
   20.2973   17.4802   23.2036 H   0  0  0  0  0  0  0  0  0  0  0  0
   19.5967   19.5169   23.5050 C   0  0  0  0  0  0  0  0  0  0  0  0
   19.7362   20.3278   24.2335 H   0  0  0  0  0  0  0  0  0  0  0  0
   19.9639   19.8883   22.5390 H   0  0  0  0  0  0  0  0  0  0  0  0
   18.0917   19.1698   23.4015 C   0  0  0  0  0  0  0  0  0  0  0  0
   17.7577   18.7499   24.3597 H   0  0  0  0  0  0  0  0  0  0  0  0
   17.9421   18.3863   22.6467 H   0  0  0  0  0  0  0  0  0  0  0  0
   17.2132   20.3932   23.0614 C   0  0  2  0  0  0  0  0  0  0  0  0
   17.3977   21.1674   23.8126 H   0  0  0  0  0  0  0  0  0  0  0  0
   15.7248   20.0137   23.1147 C   0  0  0  0  0  0  0  0  0  0  0  0
   15.0937   20.8873   22.9098 H   0  0  0  0  0  0  0  0  0  0  0  0
   15.4860   19.2385   22.3758 H   0  0  0  0  0  0  0  0  0  0  0  0
   15.4546   19.6339   24.1079 H   0  0  0  0  0  0  0  0  0  0  0  0
   17.5561   20.9948   21.7260 N   0  3  0  0  0  0  0  0  0  0  0  0
   18.5345   21.2935   21.6908 H   0  0  0  0  0  0  0  0  0  0  0  0
   16.9777   21.8159   21.5260 H   0  0  0  0  0  0  0  0  0  0  0  0
   17.4103   20.3245   20.9665 H   0  0  0  0  0  0  0  0  0  0  0  0
  1  2  1  0  0  0  0
  1  3  1  0  0  0  0
  1  4  1  0  0  0  0
  1  5  1  0  0  0  0
  5  6  1  0  0  0  0
  5  7  1  0  0  0  0
  5  8  1  0  0  0  0
  8  9  1  0  0  0  0
  8 10  1  0  0  0  0
  8 11  1  0  0  0  0
 11 12  1  0  0  0  0
 11 13  1  0  0  0  0
 11 14  1  0  0  0  0
 14 15  1  0  0  0  0
 14 16  1  0  0  0  0
 14 17  1  0  0  0  0
 17 18  1  0  0  0  0
 17 19  1  0  0  0  0
 17 20  1  0  0  0  0
 20 21  1  0  0  0  0
 20 22  1  0  0  0  0
 22 23  1  0  0  0  0
 22 24  1  0  0  0  0
 22 25  1  0  0  0  0
 20 26  1  0  0  0  0
 26 27  1  0  0  0  0
 26 28  1  0  0  0  0
 26 29  1  0  0  0  0
M  END
> <VConfSearch Rank>
901

> <Conf_Id>
164

> <Delta U+W>
0.000

> <U+W>
-27.826

> <U>
23.963

> <W>
-51.789

> <W(PB)>
-54.342

> <W(SA)>
2.554

> <Valence>
3.166

> <Coulomb>
19.734

> <VdW>
1.062

> <VdW6>
-7.938

> <VdW12>
9.001

> <Bond>
0.188

> <Angle>
0.880

> <Pdih>
2.098

> <Idih>
0.000

> <Tether>
0.000

$$$$
VeraChem MOL file


 29 28  0  0  0  0  0  0  0  0999 V2000     
   24.2634   19.3099   21.5875 C   0  0  0  0  0  0  0  0  0  0  0  0
   23.9782   19.9725   20.7599 H   0  0  0  0  0  0  0  0  0  0  0  0
   24.6536   19.9313   22.4042 H   0  0  0  0  0  0  0  0  0  0  0  0
   25.0784   18.6638   21.2365 H   0  0  0  0  0  0  0  0  0  0  0  0
   23.0621   18.4639   22.0598 C   0  0  0  0  0  0  0  0  0  0  0  0
   23.3858   17.7882   22.8639 H   0  0  0  0  0  0  0  0  0  0  0  0
   22.7155   17.8290   21.2323 H   0  0  0  0  0  0  0  0  0  0  0  0
   21.8998   19.3500   22.5595 C   0  0  0  0  0  0  0  0  0  0  0  0
   22.2517   19.9844   23.3848 H   0  0  0  0  0  0  0  0  0  0  0  0
   21.5812   20.0251   21.7531 H   0  0  0  0  0  0  0  0  0  0  0  0
   20.6949   18.5062   23.0333 C   0  0  0  0  0  0  0  0  0  0  0  0
   21.0142   17.8316   23.8399 H   0  0  0  0  0  0  0  0  0  0  0  0
   20.3451   17.8715   22.2074 H   0  0  0  0  0  0  0  0  0  0  0  0
   19.5320   19.3933   23.5327 C   0  0  0  0  0  0  0  0  0  0  0  0
   19.8942   20.0290   24.3513 H   0  0  0  0  0  0  0  0  0  0  0  0
   19.2096   20.0643   22.7244 H   0  0  0  0  0  0  0  0  0  0  0  0
   18.3280   18.5453   24.0113 C   0  0  0  0  0  0  0  0  0  0  0  0
   18.6299   17.9205   24.8624 H   0  0  0  0  0  0  0  0  0  0  0  0
   18.0435   17.8563   23.2050 H   0  0  0  0  0  0  0  0  0  0  0  0
   17.0885   19.3849   24.3963 C   0  0  2  0  0  0  0  0  0  0  0  0
   16.8329   20.0282   23.5487 H   0  0  0  0  0  0  0  0  0  0  0  0
   17.3494   20.2764   25.6236 C   0  0  0  0  0  0  0  0  0  0  0  0
   17.6720   19.6798   26.4860 H   0  0  0  0  0  0  0  0  0  0  0  0
   18.1215   21.0259   25.4155 H   0  0  0  0  0  0  0  0  0  0  0  0
   16.4392   20.8192   25.9071 H   0  0  0  0  0  0  0  0  0  0  0  0
   15.8926   18.5061   24.6372 N   0  3  0  0  0  0  0  0  0  0  0  0
   15.0590   19.0602   24.8539 H   0  0  0  0  0  0  0  0  0  0  0  0
   16.0488   17.8691   25.4231 H   0  0  0  0  0  0  0  0  0  0  0  0
   15.6731   17.9344   23.8164 H   0  0  0  0  0  0  0  0  0  0  0  0
  1  2  1  0  0  0  0
  1  3  1  0  0  0  0
  1  4  1  0  0  0  0
  1  5  1  0  0  0  0
  5  6  1  0  0  0  0
  5  7  1  0  0  0  0
  5  8  1  0  0  0  0
  8  9  1  0  0  0  0
  8 10  1  0  0  0  0
  8 11  1  0  0  0  0
 11 12  1  0  0  0  0
 11 13  1  0  0  0  0
 11 14  1  0  0  0  0
 14 15  1  0  0  0  0
 14 16  1  0  0  0  0
 14 17  1  0  0  0  0
 17 18  1  0  0  0  0
 17 19  1  0  0  0  0
 17 20  1  0  0  0  0
 20 21  1  0  0  0  0
 20 22  1  0  0  0  0
 22 23  1  0  0  0  0
 22 24  1  0  0  0  0
 22 25  1  0  0  0  0
 20 26  1  0  0  0  0
 26 27  1  0  0  0  0
 26 28  1  0  0  0  0
 26 29  1  0  0  0  0
M  END
> <VConfSearch Rank>
902

> <Conf_Id>
58

> <Delta U+W>
0.412

> <U+W>
-27.414

> <U>
24.279

> <W>
-51.694

> <W(PB)>
-54.271

> <W(SA)>
2.577

> <Valence>
3.709

> <Coulomb>
19.380

> <VdW>
1.191

> <VdW6>
-8.093

> <VdW12>
9.284

> <Bond>
0.200

> <Angle>
1.161

> <Pdih>
2.348

> <Idih>
0.000

> <Tether>
0.000

$$$$
VeraChem MOL file


 29 28  0  0  0  0  0  0  0  0999 V2000     
   22.0836   15.1201   24.2518 C   0  0  0  0  0  0  0  0  0  0  0  0
   22.5867   15.1692   23.2773 H   0  0  0  0  0  0  0  0  0  0  0  0
   22.7362   15.5922   24.9978 H   0  0  0  0  0  0  0  0  0  0  0  0
   21.9739   14.0617   24.5216 H   0  0  0  0  0  0  0  0  0  0  0  0
   20.7064   15.8149   24.2007 C   0  0  0  0  0  0  0  0  0  0  0  0
   20.2137   15.7200   25.1785 H   0  0  0  0  0  0  0  0  0  0  0  0
   20.0654   15.3003   23.4712 H   0  0  0  0  0  0  0  0  0  0  0  0
   20.8325   17.3073   23.8229 C   0  0  0  0  0  0  0  0  0  0  0  0
   21.4758   17.8168   24.5536 H   0  0  0  0  0  0  0  0  0  0  0  0
   21.3278   17.3971   22.8461 H   0  0  0  0  0  0  0  0  0  0  0  0
   19.4553   18.0063   23.7704 C   0  0  0  0  0  0  0  0  0  0  0  0
   18.9608   17.9152   24.7474 H   0  0  0  0  0  0  0  0  0  0  0  0
   18.8127   17.4956   23.0398 H   0  0  0  0  0  0  0  0  0  0  0  0
   19.5817   19.4994   23.3922 C   0  0  0  0  0  0  0  0  0  0  0  0
   20.2258   20.0032   24.1249 H   0  0  0  0  0  0  0  0  0  0  0  0
   20.0809   19.5800   22.4176 H   0  0  0  0  0  0  0  0  0  0  0  0
   18.1962   20.1943   23.3378 C   0  0  0  0  0  0  0  0  0  0  0  0
   17.6888   20.0626   24.3025 H   0  0  0  0  0  0  0  0  0  0  0  0
   17.5660   19.6893   22.5938 H   0  0  0  0  0  0  0  0  0  0  0  0
   18.2375   21.7056   23.0102 C   0  0  2  0  0  0  0  0  0  0  0  0
   17.2064   22.0718   23.0343 H   0  0  0  0  0  0  0  0  0  0  0  0
   18.7949   21.9777   21.6022 C   0  0  0  0  0  0  0  0  0  0  0  0
   18.6858   23.0385   21.3452 H   0  0  0  0  0  0  0  0  0  0  0  0
   19.8592   21.7241   21.5309 H   0  0  0  0  0  0  0  0  0  0  0  0
   18.2508   21.3954   20.8482 H   0  0  0  0  0  0  0  0  0  0  0  0
   18.9851   22.4974   24.0475 N   0  3  0  0  0  0  0  0  0  0  0  0
   18.5920   22.3565   24.9826 H   0  0  0  0  0  0  0  0  0  0  0  0
   18.9500   23.5014   23.8487 H   0  0  0  0  0  0  0  0  0  0  0  0
   19.9706   22.2255   24.0828 H   0  0  0  0  0  0  0  0  0  0  0  0
  1  2  1  0  0  0  0
  1  3  1  0  0  0  0
  1  4  1  0  0  0  0
  1  5  1  0  0  0  0
  5  6  1  0  0  0  0
  5  7  1  0  0  0  0
  5  8  1  0  0  0  0
  8  9  1  0  0  0  0
  8 10  1  0  0  0  0
  8 11  1  0  0  0  0
 11 12  1  0  0  0  0
 11 13  1  0  0  0  0
 11 14  1  0  0  0  0
 14 15  1  0  0  0  0
 14 16  1  0  0  0  0
 14 17  1  0  0  0  0
 17 18  1  0  0  0  0
 17 19  1  0  0  0  0
 17 20  1  0  0  0  0
 20 21  1  0  0  0  0
 20 22  1  0  0  0  0
 22 23  1  0  0  0  0
 22 24  1  0  0  0  0
 22 25  1  0  0  0  0
 20 26  1  0  0  0  0
 26 27  1  0  0  0  0
 26 28  1  0  0  0  0
 26 29  1  0  0  0  0
M  END
> <VConfSearch Rank>
903

> <Conf_Id>
137

> <Delta U+W>
0.280

> <U+W>
-27.546

> <U>
24.513

> <W>
-52.059

> <W(PB)>
-54.556

> <W(SA)>
2.497

> <Valence>
3.677

> <Coulomb>
19.662

> <VdW>
1.174

> <VdW6>
-8.569

> <VdW12>
9.743

> <Bond>
0.224

> <Angle>
1.211

> <Pdih>
2.243

> <Idih>
0.000

> <Tether>
0.000

$$$$
VeraChem MOL file


 29 28  0  0  0  0  0  0  0  0999 V2000     
   18.9264   20.4784   19.3430 C   0  0  0  0  0  0  0  0  0  0  0  0
   18.8888   19.3959   19.1640 H   0  0  0  0  0  0  0  0  0  0  0  0
   17.9083   20.8240   19.5650 H   0  0  0  0  0  0  0  0  0  0  0  0
   19.2516   20.9627   18.4131 H   0  0  0  0  0  0  0  0  0  0  0  0
   19.8911   20.8163   20.4994 C   0  0  0  0  0  0  0  0  0  0  0  0
   19.9339   21.9065   20.6310 H   0  0  0  0  0  0  0  0  0  0  0  0
   20.9063   20.4886   20.2350 H   0  0  0  0  0  0  0  0  0  0  0  0
   19.4555   20.1471   21.8218 C   0  0  0  0  0  0  0  0  0  0  0  0
   18.4414   20.4797   22.0829 H   0  0  0  0  0  0  0  0  0  0  0  0
   19.4074   19.0608   21.6723 H   0  0  0  0  0  0  0  0  0  0  0  0
   20.4252   20.4822   22.9807 C   0  0  0  0  0  0  0  0  0  0  0  0
   20.5245   21.5740   23.0561 H   0  0  0  0  0  0  0  0  0  0  0  0
   21.4280   20.0973   22.7492 H   0  0  0  0  0  0  0  0  0  0  0  0
   19.9650   19.9388   24.3561 C   0  0  0  0  0  0  0  0  0  0  0  0
   20.6327   20.3550   25.1212 H   0  0  0  0  0  0  0  0  0  0  0  0
   18.9590   20.3179   24.5833 H   0  0  0  0  0  0  0  0  0  0  0  0
   19.9737   18.3903   24.4454 C   0  0  0  0  0  0  0  0  0  0  0  0
   20.9815   18.0121   24.2288 H   0  0  0  0  0  0  0  0  0  0  0  0
   19.3144   17.9837   23.6692 H   0  0  0  0  0  0  0  0  0  0  0  0
   19.4954   17.8428   25.8100 C   0  0  2  0  0  0  0  0  0  0  0  0
   18.5175   18.2810   26.0321 H   0  0  0  0  0  0  0  0  0  0  0  0
   20.4620   18.2006   26.9535 C   0  0  0  0  0  0  0  0  0  0  0  0
   21.4765   17.8400   26.7430 H   0  0  0  0  0  0  0  0  0  0  0  0
   20.5081   19.2836   27.1146 H   0  0  0  0  0  0  0  0  0  0  0  0
   20.1293   17.7480   27.8958 H   0  0  0  0  0  0  0  0  0  0  0  0
   19.2895   16.3545   25.7537 N   0  3  0  0  0  0  0  0  0  0  0  0
   18.6144   16.0941   25.0289 H   0  0  0  0  0  0  0  0  0  0  0  0
   18.9355   15.9922   26.6437 H   0  0  0  0  0  0  0  0  0  0  0  0
   20.1643   15.8634   25.5504 H   0  0  0  0  0  0  0  0  0  0  0  0
  1  2  1  0  0  0  0
  1  3  1  0  0  0  0
  1  4  1  0  0  0  0
  1  5  1  0  0  0  0
  5  6  1  0  0  0  0
  5  7  1  0  0  0  0
  5  8  1  0  0  0  0
  8  9  1  0  0  0  0
  8 10  1  0  0  0  0
  8 11  1  0  0  0  0
 11 12  1  0  0  0  0
 11 13  1  0  0  0  0
 11 14  1  0  0  0  0
 14 15  1  0  0  0  0
 14 16  1  0  0  0  0
 14 17  1  0  0  0  0
 17 18  1  0  0  0  0
 17 19  1  0  0  0  0
 17 20  1  0  0  0  0
 20 21  1  0  0  0  0
 20 22  1  0  0  0  0
 22 23  1  0  0  0  0
 22 24  1  0  0  0  0
 22 25  1  0  0  0  0
 20 26  1  0  0  0  0
 26 27  1  0  0  0  0
 26 28  1  0  0  0  0
 26 29  1  0  0  0  0
M  END
> <VConfSearch Rank>
904

> <Conf_Id>
40

> <Delta U+W>
1.128

> <U+W>
-26.698

> <U>
25.442

> <W>
-52.140

> <W(PB)>
-54.658

> <W(SA)>
2.519

> <Valence>
4.343

> <Coulomb>
19.740

> <VdW>
1.360

> <VdW6>
-8.739

> <VdW12>
10.099

> <Bond>
0.251

> <Angle>
1.483

> <Pdih>
2.608

> <Idih>
0.000

> <Tether>
0.000

$$$$
VeraChem MOL file


 29 28  0  0  0  0  0  0  0  0999 V2000     
   16.0447   21.1644   22.6033 C   0  0  0  0  0  0  0  0  0  0  0  0
   15.7158   20.4200   23.3387 H   0  0  0  0  0  0  0  0  0  0  0  0
   16.3367   22.0753   23.1419 H   0  0  0  0  0  0  0  0  0  0  0  0
   15.1795   21.4097   21.9739 H   0  0  0  0  0  0  0  0  0  0  0  0
   17.2095   20.6334   21.7372 C   0  0  0  0  0  0  0  0  0  0  0  0
   17.4133   21.3596   20.9379 H   0  0  0  0  0  0  0  0  0  0  0  0
   16.9049   19.7035   21.2368 H   0  0  0  0  0  0  0  0  0  0  0  0
   18.5149   20.3959   22.5345 C   0  0  0  0  0  0  0  0  0  0  0  0
   19.3099   20.1580   21.8167 H   0  0  0  0  0  0  0  0  0  0  0  0
   18.8147   21.3282   23.0324 H   0  0  0  0  0  0  0  0  0  0  0  0
   18.4001   19.2573   23.5801 C   0  0  0  0  0  0  0  0  0  0  0  0
   18.1059   18.3234   23.0818 H   0  0  0  0  0  0  0  0  0  0  0  0
   17.5968   19.4952   24.2891 H   0  0  0  0  0  0  0  0  0  0  0  0
   19.6983   19.0259   24.3926 C   0  0  0  0  0  0  0  0  0  0  0  0
   20.0024   19.9654   24.8746 H   0  0  0  0  0  0  0  0  0  0  0  0
   19.4678   18.3232   25.2040 H   0  0  0  0  0  0  0  0  0  0  0  0
   20.8713   18.4684   23.5452 C   0  0  0  0  0  0  0  0  0  0  0  0
   21.1195   19.1840   22.7520 H   0  0  0  0  0  0  0  0  0  0  0  0
   20.5614   17.5404   23.0466 H   0  0  0  0  0  0  0  0  0  0  0  0
   22.1452   18.2086   24.3787 C   0  0  2  0  0  0  0  0  0  0  0  0
   22.4127   19.1360   24.8944 H   0  0  0  0  0  0  0  0  0  0  0  0
   23.3128   17.8130   23.4606 C   0  0  0  0  0  0  0  0  0  0  0  0
   24.2301   17.6607   24.0426 H   0  0  0  0  0  0  0  0  0  0  0  0
   23.0941   16.8847   22.9179 H   0  0  0  0  0  0  0  0  0  0  0  0
   23.5137   18.6004   22.7235 H   0  0  0  0  0  0  0  0  0  0  0  0
   21.9370   17.1653   25.4423 N   0  3  0  0  0  0  0  0  0  0  0  0
   21.6782   16.2631   25.0341 H   0  0  0  0  0  0  0  0  0  0  0  0
   21.1929   17.4356   26.0910 H   0  0  0  0  0  0  0  0  0  0  0  0
   22.7869   17.0197   25.9947 H   0  0  0  0  0  0  0  0  0  0  0  0
  1  2  1  0  0  0  0
  1  3  1  0  0  0  0
  1  4  1  0  0  0  0
  1  5  1  0  0  0  0
  5  6  1  0  0  0  0
  5  7  1  0  0  0  0
  5  8  1  0  0  0  0
  8  9  1  0  0  0  0
  8 10  1  0  0  0  0
  8 11  1  0  0  0  0
 11 12  1  0  0  0  0
 11 13  1  0  0  0  0
 11 14  1  0  0  0  0
 14 15  1  0  0  0  0
 14 16  1  0  0  0  0
 14 17  1  0  0  0  0
 17 18  1  0  0  0  0
 17 19  1  0  0  0  0
 17 20  1  0  0  0  0
 20 21  1  0  0  0  0
 20 22  1  0  0  0  0
 22 23  1  0  0  0  0
 22 24  1  0  0  0  0
 22 25  1  0  0  0  0
 20 26  1  0  0  0  0
 26 27  1  0  0  0  0
 26 28  1  0  0  0  0
 26 29  1  0  0  0  0
M  END
> <VConfSearch Rank>
905

> <Conf_Id>
134

> <Delta U+W>
1.228

> <U+W>
-26.598

> <U>
25.451

> <W>
-52.048

> <W(PB)>
-54.539

> <W(SA)>
2.490

> <Valence>
4.319

> <Coulomb>
19.732

> <VdW>
1.400

> <VdW6>
-9.173

> <VdW12>
10.573

> <Bond>
0.281

> <Angle>
1.459

> <Pdih>
2.580

> <Idih>
0.000

> <Tether>
0.000

$$$$
VeraChem MOL file


 29 28  0  0  0  0  0  0  0  0999 V2000     
   21.9019   17.9035   27.0956 C   0  0  0  0  0  0  0  0  0  0  0  0
   22.4439   18.8299   26.8694 H   0  0  0  0  0  0  0  0  0  0  0  0
   21.0332   18.1555   27.7177 H   0  0  0  0  0  0  0  0  0  0  0  0
   22.5695   17.2691   27.6929 H   0  0  0  0  0  0  0  0  0  0  0  0
   21.4682   17.1684   25.8070 C   0  0  0  0  0  0  0  0  0  0  0  0
   21.0475   16.1915   26.0835 H   0  0  0  0  0  0  0  0  0  0  0  0
   22.3501   16.9584   25.1858 H   0  0  0  0  0  0  0  0  0  0  0  0
   20.4158   17.9435   24.9777 C   0  0  0  0  0  0  0  0  0  0  0  0
   20.0743   17.2880   24.1664 H   0  0  0  0  0  0  0  0  0  0  0  0
   19.5357   18.1490   25.6024 H   0  0  0  0  0  0  0  0  0  0  0  0
   20.9550   19.2684   24.3808 C   0  0  0  0  0  0  0  0  0  0  0  0
   21.8342   19.0625   23.7550 H   0  0  0  0  0  0  0  0  0  0  0  0
   21.3000   19.9213   25.1928 H   0  0  0  0  0  0  0  0  0  0  0  0
   19.9010   20.0475   23.5561 C   0  0  0  0  0  0  0  0  0  0  0  0
   19.0337   20.2618   24.1945 H   0  0  0  0  0  0  0  0  0  0  0  0
   20.3288   21.0200   23.2758 H   0  0  0  0  0  0  0  0  0  0  0  0
   19.4503   19.3071   22.2704 C   0  0  0  0  0  0  0  0  0  0  0  0
   18.8899   18.4010   22.5329 H   0  0  0  0  0  0  0  0  0  0  0  0
   20.3440   18.9767   21.7248 H   0  0  0  0  0  0  0  0  0  0  0  0
   18.5932   20.1784   21.3244 C   0  0  2  0  0  0  0  0  0  0  0  0
   19.1512   21.0926   21.1001 H   0  0  0  0  0  0  0  0  0  0  0  0
   17.2481   20.5723   21.9607 C   0  0  0  0  0  0  0  0  0  0  0  0
   16.6749   19.6853   22.2579 H   0  0  0  0  0  0  0  0  0  0  0  0
   17.3954   21.1995   22.8475 H   0  0  0  0  0  0  0  0  0  0  0  0
   16.6401   21.1489   21.2528 H   0  0  0  0  0  0  0  0  0  0  0  0
   18.3643   19.4877   20.0088 N   0  3  0  0  0  0  0  0  0  0  0  0
   19.2480   19.2545   19.5466 H   0  0  0  0  0  0  0  0  0  0  0  0
   17.8304   20.0780   19.3645 H   0  0  0  0  0  0  0  0  0  0  0  0
   17.8409   18.6164   20.1297 H   0  0  0  0  0  0  0  0  0  0  0  0
  1  2  1  0  0  0  0
  1  3  1  0  0  0  0
  1  4  1  0  0  0  0
  1  5  1  0  0  0  0
  5  6  1  0  0  0  0
  5  7  1  0  0  0  0
  5  8  1  0  0  0  0
  8  9  1  0  0  0  0
  8 10  1  0  0  0  0
  8 11  1  0  0  0  0
 11 12  1  0  0  0  0
 11 13  1  0  0  0  0
 11 14  1  0  0  0  0
 14 15  1  0  0  0  0
 14 16  1  0  0  0  0
 14 17  1  0  0  0  0
 17 18  1  0  0  0  0
 17 19  1  0  0  0  0
 17 20  1  0  0  0  0
 20 21  1  0  0  0  0
 20 22  1  0  0  0  0
 22 23  1  0  0  0  0
 22 24  1  0  0  0  0
 22 25  1  0  0  0  0
 20 26  1  0  0  0  0
 26 27  1  0  0  0  0
 26 28  1  0  0  0  0
 26 29  1  0  0  0  0
M  END
> <VConfSearch Rank>
906

> <Conf_Id>
73

> <Delta U+W>
1.580

> <U+W>
-26.246

> <U>
25.821

> <W>
-52.067

> <W(PB)>
-54.581

> <W(SA)>
2.514

> <Valence>
4.779

> <Coulomb>
19.614

> <VdW>
1.428

> <VdW6>
-9.390

> <VdW12>
10.818

> <Bond>
0.283

> <Angle>
1.640

> <Pdih>
2.856

> <Idih>
0.000

> <Tether>
0.000

$$$$
VeraChem MOL file


 29 28  0  0  0  0  0  0  0  0999 V2000     
   18.4705   20.7560   19.6081 C   0  0  0  0  0  0  0  0  0  0  0  0
   17.5251   20.2815   19.9020 H   0  0  0  0  0  0  0  0  0  0  0  0
   18.2315   21.6179   18.9717 H   0  0  0  0  0  0  0  0  0  0  0  0
   19.0401   20.0381   19.0035 H   0  0  0  0  0  0  0  0  0  0  0  0
   19.2767   21.2004   20.8469 C   0  0  0  0  0  0  0  0  0  0  0  0
   18.6959   21.9417   21.4134 H   0  0  0  0  0  0  0  0  0  0  0  0
   20.1987   21.7018   20.5206 H   0  0  0  0  0  0  0  0  0  0  0  0
   19.6275   20.0049   21.7601 C   0  0  0  0  0  0  0  0  0  0  0  0
   18.6989   19.5082   22.0696 H   0  0  0  0  0  0  0  0  0  0  0  0
   20.2102   19.2681   21.1902 H   0  0  0  0  0  0  0  0  0  0  0  0
   20.4318   20.4506   23.0051 C   0  0  0  0  0  0  0  0  0  0  0  0
   19.8282   21.1423   23.6088 H   0  0  0  0  0  0  0  0  0  0  0  0
   21.3127   21.0184   22.6750 H   0  0  0  0  0  0  0  0  0  0  0  0
   20.9129   19.2739   23.8895 C   0  0  0  0  0  0  0  0  0  0  0  0
   21.5189   18.5844   23.2855 H   0  0  0  0  0  0  0  0  0  0  0  0
   21.5820   19.6803   24.6592 H   0  0  0  0  0  0  0  0  0  0  0  0
   19.7558   18.4956   24.5675 C   0  0  0  0  0  0  0  0  0  0  0  0
   19.1038   18.0692   23.7953 H   0  0  0  0  0  0  0  0  0  0  0  0
   19.1374   19.1866   25.1556 H   0  0  0  0  0  0  0  0  0  0  0  0
   20.2523   17.3463   25.4717 C   0  0  2  0  0  0  0  0  0  0  0  0
   20.8947   16.6925   24.8737 H   0  0  0  0  0  0  0  0  0  0  0  0
   19.0633   16.5176   25.9836 C   0  0  0  0  0  0  0  0  0  0  0  0
   18.4890   16.1010   25.1467 H   0  0  0  0  0  0  0  0  0  0  0  0
   19.4111   15.6783   26.5984 H   0  0  0  0  0  0  0  0  0  0  0  0
   18.3856   17.1295   26.5920 H   0  0  0  0  0  0  0  0  0  0  0  0
   21.0855   17.8368   26.6243 N   0  3  0  0  0  0  0  0  0  0  0  0
   21.4195   17.0597   27.2016 H   0  0  0  0  0  0  0  0  0  0  0  0
   20.5498   18.4623   27.2320 H   0  0  0  0  0  0  0  0  0  0  0  0
   21.9079   18.3519   26.2990 H   0  0  0  0  0  0  0  0  0  0  0  0
  1  2  1  0  0  0  0
  1  3  1  0  0  0  0
  1  4  1  0  0  0  0
  1  5  1  0  0  0  0
  5  6  1  0  0  0  0
  5  7  1  0  0  0  0
  5  8  1  0  0  0  0
  8  9  1  0  0  0  0
  8 10  1  0  0  0  0
  8 11  1  0  0  0  0
 11 12  1  0  0  0  0
 11 13  1  0  0  0  0
 11 14  1  0  0  0  0
 14 15  1  0  0  0  0
 14 16  1  0  0  0  0
 14 17  1  0  0  0  0
 17 18  1  0  0  0  0
 17 19  1  0  0  0  0
 17 20  1  0  0  0  0
 20 21  1  0  0  0  0
 20 22  1  0  0  0  0
 22 23  1  0  0  0  0
 22 24  1  0  0  0  0
 22 25  1  0  0  0  0
 20 26  1  0  0  0  0
 26 27  1  0  0  0  0
 26 28  1  0  0  0  0
 26 29  1  0  0  0  0
M  END
> <VConfSearch Rank>
907

> <Conf_Id>
111

> <Delta U+W>
0.580

> <U+W>
-27.246

> <U>
24.710

> <W>
-51.957

> <W(PB)>
-54.511

> <W(SA)>
2.555

> <Valence>
3.735

> <Coulomb>
19.760

> <VdW>
1.216

> <VdW6>
-8.624

> <VdW12>
9.840

> <Bond>
0.236

> <Angle>
1.168

> <Pdih>
2.330

> <Idih>
0.000

> <Tether>
0.000

$$$$
VeraChem MOL file


 29 28  0  0  0  0  0  0  0  0999 V2000     
   17.3621   21.2203   20.5004 C   0  0  0  0  0  0  0  0  0  0  0  0
   18.1616   21.1379   19.7526 H   0  0  0  0  0  0  0  0  0  0  0  0
   16.8015   20.2764   20.5073 H   0  0  0  0  0  0  0  0  0  0  0  0
   16.6786   22.0160   20.1767 H   0  0  0  0  0  0  0  0  0  0  0  0
   17.9393   21.5328   21.8972 C   0  0  0  0  0  0  0  0  0  0  0  0
   17.1154   21.6420   22.6163 H   0  0  0  0  0  0  0  0  0  0  0  0
   18.4640   22.4980   21.8669 H   0  0  0  0  0  0  0  0  0  0  0  0
   18.9063   20.4277   22.3767 C   0  0  0  0  0  0  0  0  0  0  0  0
   18.3730   19.4683   22.3940 H   0  0  0  0  0  0  0  0  0  0  0  0
   19.7290   20.3235   21.6559 H   0  0  0  0  0  0  0  0  0  0  0  0
   19.4826   20.7380   23.7790 C   0  0  0  0  0  0  0  0  0  0  0  0
   18.6658   20.7913   24.5119 H   0  0  0  0  0  0  0  0  0  0  0  0
   19.9476   21.7334   23.7628 H   0  0  0  0  0  0  0  0  0  0  0  0
   20.5395   19.7105   24.2530 C   0  0  0  0  0  0  0  0  0  0  0  0
   21.3661   19.6879   23.5306 H   0  0  0  0  0  0  0  0  0  0  0  0
   20.9658   20.0617   25.2029 H   0  0  0  0  0  0  0  0  0  0  0  0
   19.9651   18.2844   24.4541 C   0  0  0  0  0  0  0  0  0  0  0  0
   19.6605   17.8609   23.4887 H   0  0  0  0  0  0  0  0  0  0  0  0
   19.0563   18.3560   25.0661 H   0  0  0  0  0  0  0  0  0  0  0  0
   20.9480   17.3144   25.1483 C   0  0  2  0  0  0  0  0  0  0  0  0
   21.2685   17.7674   26.0915 H   0  0  0  0  0  0  0  0  0  0  0  0
   22.1960   17.0424   24.2894 C   0  0  0  0  0  0  0  0  0  0  0  0
   21.9211   16.6410   23.3061 H   0  0  0  0  0  0  0  0  0  0  0  0
   22.7813   17.9564   24.1363 H   0  0  0  0  0  0  0  0  0  0  0  0
   22.8530   16.3152   24.7822 H   0  0  0  0  0  0  0  0  0  0  0  0
   20.2712   16.0209   25.5075 N   0  3  0  0  0  0  0  0  0  0  0  0
   19.4615   16.1751   26.1154 H   0  0  0  0  0  0  0  0  0  0  0  0
   20.9083   15.3907   26.0031 H   0  0  0  0  0  0  0  0  0  0  0  0
   19.9407   15.5275   24.6738 H   0  0  0  0  0  0  0  0  0  0  0  0
  1  2  1  0  0  0  0
  1  3  1  0  0  0  0
  1  4  1  0  0  0  0
  1  5  1  0  0  0  0
  5  6  1  0  0  0  0
  5  7  1  0  0  0  0
  5  8  1  0  0  0  0
  8  9  1  0  0  0  0
  8 10  1  0  0  0  0
  8 11  1  0  0  0  0
 11 12  1  0  0  0  0
 11 13  1  0  0  0  0
 11 14  1  0  0  0  0
 14 15  1  0  0  0  0
 14 16  1  0  0  0  0
 14 17  1  0  0  0  0
 17 18  1  0  0  0  0
 17 19  1  0  0  0  0
 17 20  1  0  0  0  0
 20 21  1  0  0  0  0
 20 22  1  0  0  0  0
 22 23  1  0  0  0  0
 22 24  1  0  0  0  0
 22 25  1  0  0  0  0
 20 26  1  0  0  0  0
 26 27  1  0  0  0  0
 26 28  1  0  0  0  0
 26 29  1  0  0  0  0
M  END
> <VConfSearch Rank>
908

> <Conf_Id>
39

> <Delta U+W>
0.965

> <U+W>
-26.861

> <U>
25.129

> <W>
-51.990

> <W(PB)>
-54.526

> <W(SA)>
2.536

> <Valence>
4.206

> <Coulomb>
19.678

> <VdW>
1.245

> <VdW6>
-8.834

> <VdW12>
10.079

> <Bond>
0.240

> <Angle>
1.353

> <Pdih>
2.613

> <Idih>
0.000

> <Tether>
0.000

$$$$
VeraChem MOL file


 29 28  0  0  0  0  0  0  0  0999 V2000     
   20.0193   18.6600   27.7301 C   0  0  0  0  0  0  0  0  0  0  0  0
   20.7987   19.4320   27.7709 H   0  0  0  0  0  0  0  0  0  0  0  0
   19.0494   19.1561   27.6023 H   0  0  0  0  0  0  0  0  0  0  0  0
   20.0020   18.1491   28.7015 H   0  0  0  0  0  0  0  0  0  0  0  0
   20.2965   17.6499   26.5935 C   0  0  0  0  0  0  0  0  0  0  0  0
   19.4858   16.9092   26.5505 H   0  0  0  0  0  0  0  0  0  0  0  0
   21.2111   17.0906   26.8348 H   0  0  0  0  0  0  0  0  0  0  0  0
   20.4738   18.3135   25.2063 C   0  0  0  0  0  0  0  0  0  0  0  0
   21.2856   19.0522   25.2545 H   0  0  0  0  0  0  0  0  0  0  0  0
   20.8003   17.5392   24.5006 H   0  0  0  0  0  0  0  0  0  0  0  0
   19.1830   18.9879   24.6759 C   0  0  0  0  0  0  0  0  0  0  0  0
   18.8543   19.7560   25.3876 H   0  0  0  0  0  0  0  0  0  0  0  0
   18.3724   18.2482   24.6234 H   0  0  0  0  0  0  0  0  0  0  0  0
   19.3604   19.6634   23.2935 C   0  0  0  0  0  0  0  0  0  0  0  0
   18.4446   20.2259   23.0701 H   0  0  0  0  0  0  0  0  0  0  0  0
   20.1705   20.4020   23.3568 H   0  0  0  0  0  0  0  0  0  0  0  0
   19.6423   18.6565   22.1449 C   0  0  0  0  0  0  0  0  0  0  0  0
   18.8862   17.8608   22.1676 H   0  0  0  0  0  0  0  0  0  0  0  0
   20.6076   18.1634   22.3130 H   0  0  0  0  0  0  0  0  0  0  0  0
   19.6579   19.2769   20.7278 C   0  0  2  0  0  0  0  0  0  0  0  0
   19.8571   18.4662   20.0202 H   0  0  0  0  0  0  0  0  0  0  0  0
   20.7765   20.3210   20.5671 C   0  0  0  0  0  0  0  0  0  0  0  0
   20.5927   21.2097   21.1825 H   0  0  0  0  0  0  0  0  0  0  0  0
   21.7478   19.8989   20.8535 H   0  0  0  0  0  0  0  0  0  0  0  0
   20.8503   20.6463   19.5221 H   0  0  0  0  0  0  0  0  0  0  0  0
   18.3242   19.8516   20.3366 N   0  3  0  0  0  0  0  0  0  0  0  0
   17.5804   19.1506   20.3999 H   0  0  0  0  0  0  0  0  0  0  0  0
   18.3352   20.2005   19.3739 H   0  0  0  0  0  0  0  0  0  0  0  0
   18.0641   20.6330   20.9434 H   0  0  0  0  0  0  0  0  0  0  0  0
  1  2  1  0  0  0  0
  1  3  1  0  0  0  0
  1  4  1  0  0  0  0
  1  5  1  0  0  0  0
  5  6  1  0  0  0  0
  5  7  1  0  0  0  0
  5  8  1  0  0  0  0
  8  9  1  0  0  0  0
  8 10  1  0  0  0  0
  8 11  1  0  0  0  0
 11 12  1  0  0  0  0
 11 13  1  0  0  0  0
 11 14  1  0  0  0  0
 14 15  1  0  0  0  0
 14 16  1  0  0  0  0
 14 17  1  0  0  0  0
 17 18  1  0  0  0  0
 17 19  1  0  0  0  0
 17 20  1  0  0  0  0
 20 21  1  0  0  0  0
 20 22  1  0  0  0  0
 22 23  1  0  0  0  0
 22 24  1  0  0  0  0
 22 25  1  0  0  0  0
 20 26  1  0  0  0  0
 26 27  1  0  0  0  0
 26 28  1  0  0  0  0
 26 29  1  0  0  0  0
M  END
> <VConfSearch Rank>
909

> <Conf_Id>
155

> <Delta U+W>
1.624

> <U+W>
-26.202

> <U>
25.894

> <W>
-52.096

> <W(PB)>
-54.602

> <W(SA)>
2.506

> <Valence>
4.779

> <Coulomb>
19.659

> <VdW>
1.456

> <VdW6>
-9.843

> <VdW12>
11.299

> <Bond>
0.315

> <Angle>
1.725

> <Pdih>
2.740

> <Idih>
0.000

> <Tether>
0.000

$$$$
VeraChem MOL file


 29 28  0  0  0  0  0  0  0  0999 V2000     
   18.3005   15.2944   23.3395 C   0  0  0  0  0  0  0  0  0  0  0  0
   18.2403   15.6532   22.3045 H   0  0  0  0  0  0  0  0  0  0  0  0
   19.3551   15.1036   23.5771 H   0  0  0  0  0  0  0  0  0  0  0  0
   17.7664   14.3367   23.3887 H   0  0  0  0  0  0  0  0  0  0  0  0
   17.6832   16.3094   24.3281 C   0  0  0  0  0  0  0  0  0  0  0  0
   17.6606   15.8595   25.3305 H   0  0  0  0  0  0  0  0  0  0  0  0
   16.6367   16.5025   24.0541 H   0  0  0  0  0  0  0  0  0  0  0  0
   18.4610   17.6454   24.4000 C   0  0  0  0  0  0  0  0  0  0  0  0
   18.0183   18.2649   25.1921 H   0  0  0  0  0  0  0  0  0  0  0  0
   19.4951   17.4404   24.7058 H   0  0  0  0  0  0  0  0  0  0  0  0
   18.4439   18.4366   23.0675 C   0  0  0  0  0  0  0  0  0  0  0  0
   17.4072   18.5115   22.7115 H   0  0  0  0  0  0  0  0  0  0  0  0
   18.9974   17.8863   22.2952 H   0  0  0  0  0  0  0  0  0  0  0  0
   19.0241   19.8675   23.1880 C   0  0  0  0  0  0  0  0  0  0  0  0
   18.8410   20.3849   22.2376 H   0  0  0  0  0  0  0  0  0  0  0  0
   18.4710   20.4254   23.9561 H   0  0  0  0  0  0  0  0  0  0  0  0
   20.5407   19.8942   23.5116 C   0  0  0  0  0  0  0  0  0  0  0  0
   21.0947   19.3468   22.7376 H   0  0  0  0  0  0  0  0  0  0  0  0
   20.7139   19.3617   24.4546 H   0  0  0  0  0  0  0  0  0  0  0  0
   21.1214   21.3198   23.6565 C   0  0  2  0  0  0  0  0  0  0  0  0
   20.5163   21.8644   24.3878 H   0  0  0  0  0  0  0  0  0  0  0  0
   21.0983   22.0969   22.3278 C   0  0  0  0  0  0  0  0  0  0  0  0
   21.6370   21.5541   21.5411 H   0  0  0  0  0  0  0  0  0  0  0  0
   20.0724   22.2721   21.9845 H   0  0  0  0  0  0  0  0  0  0  0  0
   21.5710   23.0796   22.4472 H   0  0  0  0  0  0  0  0  0  0  0  0
   22.5194   21.2810   24.2086 N   0  3  0  0  0  0  0  0  0  0  0  0
   22.5537   20.8076   25.1161 H   0  0  0  0  0  0  0  0  0  0  0  0
   22.8945   22.2244   24.3430 H   0  0  0  0  0  0  0  0  0  0  0  0
   23.1566   20.7859   23.5787 H   0  0  0  0  0  0  0  0  0  0  0  0
  1  2  1  0  0  0  0
  1  3  1  0  0  0  0
  1  4  1  0  0  0  0
  1  5  1  0  0  0  0
  5  6  1  0  0  0  0
  5  7  1  0  0  0  0
  5  8  1  0  0  0  0
  8  9  1  0  0  0  0
  8 10  1  0  0  0  0
  8 11  1  0  0  0  0
 11 12  1  0  0  0  0
 11 13  1  0  0  0  0
 11 14  1  0  0  0  0
 14 15  1  0  0  0  0
 14 16  1  0  0  0  0
 14 17  1  0  0  0  0
 17 18  1  0  0  0  0
 17 19  1  0  0  0  0
 17 20  1  0  0  0  0
 20 21  1  0  0  0  0
 20 22  1  0  0  0  0
 22 23  1  0  0  0  0
 22 24  1  0  0  0  0
 22 25  1  0  0  0  0
 20 26  1  0  0  0  0
 26 27  1  0  0  0  0
 26 28  1  0  0  0  0
 26 29  1  0  0  0  0
M  END
> <VConfSearch Rank>
910

> <Conf_Id>
135

> <Delta U+W>
1.581

> <U+W>
-26.245

> <U>
25.974

> <W>
-52.219

> <W(PB)>
-54.709

> <W(SA)>
2.490

> <Valence>
4.811

> <Coulomb>
19.700

> <VdW>
1.463

> <VdW6>
-9.391

> <VdW12>
10.854

> <Bond>
0.285

> <Angle>
1.671

> <Pdih>
2.855

> <Idih>
0.000

> <Tether>
0.000

$$$$
VeraChem MOL file


 29 28  0  0  0  0  0  0  0  0999 V2000     
   19.2755   22.9613   22.2400 C   0  0  0  0  0  0  0  0  0  0  0  0
   18.2344   22.6135   22.2479 H   0  0  0  0  0  0  0  0  0  0  0  0
   19.5925   23.1224   23.2779 H   0  0  0  0  0  0  0  0  0  0  0  0
   19.3008   23.9342   21.7322 H   0  0  0  0  0  0  0  0  0  0  0  0
   20.1936   21.9499   21.5172 C   0  0  0  0  0  0  0  0  0  0  0  0
   21.2323   22.3076   21.5459 H   0  0  0  0  0  0  0  0  0  0  0  0
   19.9113   21.9101   20.4559 H   0  0  0  0  0  0  0  0  0  0  0  0
   20.1153   20.5210   22.1065 C   0  0  0  0  0  0  0  0  0  0  0  0
   19.0788   20.1640   22.0450 H   0  0  0  0  0  0  0  0  0  0  0  0
   20.7140   19.8497   21.4756 H   0  0  0  0  0  0  0  0  0  0  0  0
   20.6239   20.4312   23.5674 C   0  0  0  0  0  0  0  0  0  0  0  0
   19.9633   21.0036   24.2320 H   0  0  0  0  0  0  0  0  0  0  0  0
   21.6138   20.9035   23.6323 H   0  0  0  0  0  0  0  0  0  0  0  0
   20.7367   18.9780   24.0897 C   0  0  0  0  0  0  0  0  0  0  0  0
   21.4296   18.4192   23.4469 H   0  0  0  0  0  0  0  0  0  0  0  0
   21.1900   19.0008   25.0904 H   0  0  0  0  0  0  0  0  0  0  0  0
   19.3718   18.2468   24.1693 C   0  0  0  0  0  0  0  0  0  0  0  0
   18.9663   18.0951   23.1609 H   0  0  0  0  0  0  0  0  0  0  0  0
   18.6595   18.8922   24.6999 H   0  0  0  0  0  0  0  0  0  0  0  0
   19.4405   16.8872   24.9011 C   0  0  2  0  0  0  0  0  0  0  0  0
   19.8798   17.0515   25.8899 H   0  0  0  0  0  0  0  0  0  0  0  0
   20.3097   15.8664   24.1451 C   0  0  0  0  0  0  0  0  0  0  0  0
   19.9421   15.7121   23.1230 H   0  0  0  0  0  0  0  0  0  0  0  0
   21.3536   16.1958   24.0891 H   0  0  0  0  0  0  0  0  0  0  0  0
   20.3025   14.8973   24.6591 H   0  0  0  0  0  0  0  0  0  0  0  0
   18.0652   16.3272   25.1359 N   0  3  0  0  0  0  0  0  0  0  0  0
   18.1042   15.4457   25.6556 H   0  0  0  0  0  0  0  0  0  0  0  0
   17.5817   16.1403   24.2533 H   0  0  0  0  0  0  0  0  0  0  0  0
   17.4821   16.9733   25.6757 H   0  0  0  0  0  0  0  0  0  0  0  0
  1  2  1  0  0  0  0
  1  3  1  0  0  0  0
  1  4  1  0  0  0  0
  1  5  1  0  0  0  0
  5  6  1  0  0  0  0
  5  7  1  0  0  0  0
  5  8  1  0  0  0  0
  8  9  1  0  0  0  0
  8 10  1  0  0  0  0
  8 11  1  0  0  0  0
 11 12  1  0  0  0  0
 11 13  1  0  0  0  0
 11 14  1  0  0  0  0
 14 15  1  0  0  0  0
 14 16  1  0  0  0  0
 14 17  1  0  0  0  0
 17 18  1  0  0  0  0
 17 19  1  0  0  0  0
 17 20  1  0  0  0  0
 20 21  1  0  0  0  0
 20 22  1  0  0  0  0
 22 23  1  0  0  0  0
 22 24  1  0  0  0  0
 22 25  1  0  0  0  0
 20 26  1  0  0  0  0
 26 27  1  0  0  0  0
 26 28  1  0  0  0  0
 26 29  1  0  0  0  0
M  END
> <VConfSearch Rank>
911

> <Conf_Id>
130

> <Delta U+W>
1.359

> <U+W>
-26.467

> <U>
25.687

> <W>
-52.154

> <W(PB)>
-54.643

> <W(SA)>
2.489

> <Valence>
4.682

> <Coulomb>
19.653

> <VdW>
1.352

> <VdW6>
-9.477

> <VdW12>
10.829

> <Bond>
0.274

> <Angle>
1.550

> <Pdih>
2.858

> <Idih>
0.000

> <Tether>
0.000

$$$$
VeraChem MOL file


 29 28  0  0  0  0  0  0  0  0999 V2000     
   21.1456   21.8245   26.1697 C   0  0  0  0  0  0  0  0  0  0  0  0
   21.6670   22.7840   26.2809 H   0  0  0  0  0  0  0  0  0  0  0  0
   20.5499   21.6590   27.0768 H   0  0  0  0  0  0  0  0  0  0  0  0
   21.9096   21.0395   26.1113 H   0  0  0  0  0  0  0  0  0  0  0  0
   20.2488   21.8395   24.9111 C   0  0  0  0  0  0  0  0  0  0  0  0
   20.8712   21.9729   24.0153 H   0  0  0  0  0  0  0  0  0  0  0  0
   19.5874   22.7158   24.9590 H   0  0  0  0  0  0  0  0  0  0  0  0
   19.3780   20.5689   24.7585 C   0  0  0  0  0  0  0  0  0  0  0  0
   18.7450   20.4511   25.6487 H   0  0  0  0  0  0  0  0  0  0  0  0
   18.6938   20.7232   23.9147 H   0  0  0  0  0  0  0  0  0  0  0  0
   20.2066   19.2781   24.5341 C   0  0  0  0  0  0  0  0  0  0  0  0
   20.8364   19.0995   25.4152 H   0  0  0  0  0  0  0  0  0  0  0  0
   20.8917   19.4217   23.6900 H   0  0  0  0  0  0  0  0  0  0  0  0
   19.3263   18.0207   24.3119 C   0  0  0  0  0  0  0  0  0  0  0  0
   19.9339   17.1165   24.4558 H   0  0  0  0  0  0  0  0  0  0  0  0
   18.5637   17.9884   25.1022 H   0  0  0  0  0  0  0  0  0  0  0  0
   18.6231   17.9544   22.9277 C   0  0  0  0  0  0  0  0  0  0  0  0
   18.4518   18.9600   22.5256 H   0  0  0  0  0  0  0  0  0  0  0  0
   17.6262   17.5203   23.0805 H   0  0  0  0  0  0  0  0  0  0  0  0
   19.3529   17.0866   21.8747 C   0  0  2  0  0  0  0  0  0  0  0  0
   19.4735   16.0801   22.2870 H   0  0  0  0  0  0  0  0  0  0  0  0
   20.7469   17.6306   21.5194 C   0  0  0  0  0  0  0  0  0  0  0  0
   21.4214   17.5774   22.3818 H   0  0  0  0  0  0  0  0  0  0  0  0
   21.2014   17.0365   20.7172 H   0  0  0  0  0  0  0  0  0  0  0  0
   20.6927   18.6734   21.1827 H   0  0  0  0  0  0  0  0  0  0  0  0
   18.5221   16.9359   20.6307 N   0  3  0  0  0  0  0  0  0  0  0  0
   17.6046   16.5303   20.8367 H   0  0  0  0  0  0  0  0  0  0  0  0
   18.9790   16.3246   19.9479 H   0  0  0  0  0  0  0  0  0  0  0  0
   18.3644   17.8387   20.1749 H   0  0  0  0  0  0  0  0  0  0  0  0
  1  2  1  0  0  0  0
  1  3  1  0  0  0  0
  1  4  1  0  0  0  0
  1  5  1  0  0  0  0
  5  6  1  0  0  0  0
  5  7  1  0  0  0  0
  5  8  1  0  0  0  0
  8  9  1  0  0  0  0
  8 10  1  0  0  0  0
  8 11  1  0  0  0  0
 11 12  1  0  0  0  0
 11 13  1  0  0  0  0
 11 14  1  0  0  0  0
 14 15  1  0  0  0  0
 14 16  1  0  0  0  0
 14 17  1  0  0  0  0
 17 18  1  0  0  0  0
 17 19  1  0  0  0  0
 17 20  1  0  0  0  0
 20 21  1  0  0  0  0
 20 22  1  0  0  0  0
 22 23  1  0  0  0  0
 22 24  1  0  0  0  0
 22 25  1  0  0  0  0
 20 26  1  0  0  0  0
 26 27  1  0  0  0  0
 26 28  1  0  0  0  0
 26 29  1  0  0  0  0
M  END
> <VConfSearch Rank>
912

> <Conf_Id>
157

> <Delta U+W>
4.354

> <U+W>
-23.472

> <U>
28.780

> <W>
-52.252

> <W(PB)>
-54.715

> <W(SA)>
2.462

> <Valence>
7.566

> <Coulomb>
19.822

> <VdW>
1.392

> <VdW6>
-10.248

> <VdW12>
11.641

> <Bond>
0.340

> <Angle>
2.096

> <Pdih>
5.129

> <Idih>
0.000

> <Tether>
0.000

$$$$
VeraChem MOL file


 29 28  0  0  0  0  0  0  0  0999 V2000     
   16.1352   19.3549   22.7022 C   0  0  0  0  0  0  0  0  0  0  0  0
   15.2152   19.9104   22.9260 H   0  0  0  0  0  0  0  0  0  0  0  0
   16.9093   20.0852   22.4420 H   0  0  0  0  0  0  0  0  0  0  0  0
   15.9432   18.7366   21.8157 H   0  0  0  0  0  0  0  0  0  0  0  0
   16.5441   18.4774   23.9081 C   0  0  0  0  0  0  0  0  0  0  0  0
   15.7161   17.7863   24.1199 H   0  0  0  0  0  0  0  0  0  0  0  0
   16.6593   19.0955   24.8093 H   0  0  0  0  0  0  0  0  0  0  0  0
   17.8287   17.6469   23.6556 C   0  0  0  0  0  0  0  0  0  0  0  0
   17.7077   16.6726   24.1491 H   0  0  0  0  0  0  0  0  0  0  0  0
   17.9329   17.4242   22.5848 H   0  0  0  0  0  0  0  0  0  0  0  0
   19.1346   18.2839   24.1971 C   0  0  0  0  0  0  0  0  0  0  0  0
   19.9509   17.5710   24.0238 H   0  0  0  0  0  0  0  0  0  0  0  0
   19.0573   18.4014   25.2867 H   0  0  0  0  0  0  0  0  0  0  0  0
   19.4898   19.6488   23.5576 C   0  0  0  0  0  0  0  0  0  0  0  0
   19.4860   19.5615   22.4632 H   0  0  0  0  0  0  0  0  0  0  0  0
   18.7108   20.3785   23.8128 H   0  0  0  0  0  0  0  0  0  0  0  0
   20.8481   20.2182   24.0425 C   0  0  0  0  0  0  0  0  0  0  0  0
   20.7984   20.3737   25.1285 H   0  0  0  0  0  0  0  0  0  0  0  0
   20.9968   21.2111   23.5977 H   0  0  0  0  0  0  0  0  0  0  0  0
   22.0680   19.3274   23.7166 C   0  0  2  0  0  0  0  0  0  0  0  0
   21.9218   18.3531   24.1917 H   0  0  0  0  0  0  0  0  0  0  0  0
   23.3518   19.9494   24.2882 C   0  0  0  0  0  0  0  0  0  0  0  0
   23.5523   20.9302   23.8391 H   0  0  0  0  0  0  0  0  0  0  0  0
   23.2705   20.0811   25.3744 H   0  0  0  0  0  0  0  0  0  0  0  0
   24.2161   19.3020   24.0952 H   0  0  0  0  0  0  0  0  0  0  0  0
   22.2142   19.0721   22.2417 N   0  3  0  0  0  0  0  0  0  0  0  0
   21.3781   18.6221   21.8590 H   0  0  0  0  0  0  0  0  0  0  0  0
   23.0114   18.4603   22.0444 H   0  0  0  0  0  0  0  0  0  0  0  0
   22.3603   19.9436   21.7255 H   0  0  0  0  0  0  0  0  0  0  0  0
  1  2  1  0  0  0  0
  1  3  1  0  0  0  0
  1  4  1  0  0  0  0
  1  5  1  0  0  0  0
  5  6  1  0  0  0  0
  5  7  1  0  0  0  0
  5  8  1  0  0  0  0
  8  9  1  0  0  0  0
  8 10  1  0  0  0  0
  8 11  1  0  0  0  0
 11 12  1  0  0  0  0
 11 13  1  0  0  0  0
 11 14  1  0  0  0  0
 14 15  1  0  0  0  0
 14 16  1  0  0  0  0
 14 17  1  0  0  0  0
 17 18  1  0  0  0  0
 17 19  1  0  0  0  0
 17 20  1  0  0  0  0
 20 21  1  0  0  0  0
 20 22  1  0  0  0  0
 22 23  1  0  0  0  0
 22 24  1  0  0  0  0
 22 25  1  0  0  0  0
 20 26  1  0  0  0  0
 26 27  1  0  0  0  0
 26 28  1  0  0  0  0
 26 29  1  0  0  0  0
M  END
> <VConfSearch Rank>
913

> <Conf_Id>
158

> <Delta U+W>
3.648

> <U+W>
-24.178

> <U>
28.057

> <W>
-52.235

> <W(PB)>
-54.696

> <W(SA)>
2.460

> <Valence>
6.543

> <Coulomb>
20.387

> <VdW>
1.127

> <VdW6>
-10.342

> <VdW12>
11.469

> <Bond>
0.308

> <Angle>
1.938

> <Pdih>
4.297

> <Idih>
0.000

> <Tether>
0.000

$$$$
VeraChem MOL file


 29 28  0  0  0  0  0  0  0  0999 V2000     
   21.4095   15.9439   24.8187 C   0  0  0  0  0  0  0  0  0  0  0  0
   20.4063   15.5247   24.9701 H   0  0  0  0  0  0  0  0  0  0  0  0
   21.5012   16.2473   23.7685 H   0  0  0  0  0  0  0  0  0  0  0  0
   22.1384   15.1424   24.9950 H   0  0  0  0  0  0  0  0  0  0  0  0
   21.6670   17.1288   25.7771 C   0  0  0  0  0  0  0  0  0  0  0  0
   22.6631   17.5509   25.5840 H   0  0  0  0  0  0  0  0  0  0  0  0
   21.6879   16.7511   26.8089 H   0  0  0  0  0  0  0  0  0  0  0  0
   20.5978   18.2435   25.6785 C   0  0  0  0  0  0  0  0  0  0  0  0
   19.6063   17.8199   25.8900 H   0  0  0  0  0  0  0  0  0  0  0  0
   20.7922   18.9841   26.4667 H   0  0  0  0  0  0  0  0  0  0  0  0
   20.5776   18.9589   24.3067 C   0  0  0  0  0  0  0  0  0  0  0  0
   20.3312   18.2386   23.5189 H   0  0  0  0  0  0  0  0  0  0  0  0
   21.5827   19.3403   24.0801 H   0  0  0  0  0  0  0  0  0  0  0  0
   19.5679   20.1328   24.2888 C   0  0  0  0  0  0  0  0  0  0  0  0
   18.5690   19.7855   24.5873 H   0  0  0  0  0  0  0  0  0  0  0  0
   19.8760   20.8604   25.0524 H   0  0  0  0  0  0  0  0  0  0  0  0
   19.4920   20.8593   22.9197 C   0  0  0  0  0  0  0  0  0  0  0  0
   20.4457   20.7635   22.3839 H   0  0  0  0  0  0  0  0  0  0  0  0
   19.3669   21.9323   23.1168 H   0  0  0  0  0  0  0  0  0  0  0  0
   18.3209   20.4141   22.0109 C   0  0  2  0  0  0  0  0  0  0  0  0
   17.3868   20.5703   22.5590 H   0  0  0  0  0  0  0  0  0  0  0  0
   18.4015   18.9301   21.6149 C   0  0  0  0  0  0  0  0  0  0  0  0
   19.3638   18.6959   21.1429 H   0  0  0  0  0  0  0  0  0  0  0  0
   18.2744   18.2823   22.4899 H   0  0  0  0  0  0  0  0  0  0  0  0
   17.6036   18.6748   20.9068 H   0  0  0  0  0  0  0  0  0  0  0  0
   18.2369   21.2752   20.7813 N   0  3  0  0  0  0  0  0  0  0  0  0
   18.1335   22.2656   21.0206 H   0  0  0  0  0  0  0  0  0  0  0  0
   17.4353   21.0175   20.1985 H   0  0  0  0  0  0  0  0  0  0  0  0
   19.0767   21.1842   20.2032 H   0  0  0  0  0  0  0  0  0  0  0  0
  1  2  1  0  0  0  0
  1  3  1  0  0  0  0
  1  4  1  0  0  0  0
  1  5  1  0  0  0  0
  5  6  1  0  0  0  0
  5  7  1  0  0  0  0
  5  8  1  0  0  0  0
  8  9  1  0  0  0  0
  8 10  1  0  0  0  0
  8 11  1  0  0  0  0
 11 12  1  0  0  0  0
 11 13  1  0  0  0  0
 11 14  1  0  0  0  0
 14 15  1  0  0  0  0
 14 16  1  0  0  0  0
 14 17  1  0  0  0  0
 17 18  1  0  0  0  0
 17 19  1  0  0  0  0
 17 20  1  0  0  0  0
 20 21  1  0  0  0  0
 20 22  1  0  0  0  0
 22 23  1  0  0  0  0
 22 24  1  0  0  0  0
 22 25  1  0  0  0  0
 20 26  1  0  0  0  0
 26 27  1  0  0  0  0
 26 28  1  0  0  0  0
 26 29  1  0  0  0  0
M  END
> <VConfSearch Rank>
914

> <Conf_Id>
156

> <Delta U+W>
3.393

> <U+W>
-24.433

> <U>
27.713

> <W>
-52.146

> <W(PB)>
-54.603

> <W(SA)>
2.458

> <Valence>
6.758

> <Coulomb>
19.720

> <VdW>
1.235

> <VdW6>
-9.782

> <VdW12>
11.017

> <Bond>
0.287

> <Angle>
1.880

> <Pdih>
4.591

> <Idih>
0.000

> <Tether>
0.000

$$$$
VeraChem MOL file


 29 28  0  0  0  0  0  0  0  0999 V2000     
   20.6668   18.7722   19.7517 C   0  0  0  0  0  0  0  0  0  0  0  0
   21.3302   17.9603   20.0773 H   0  0  0  0  0  0  0  0  0  0  0  0
   20.0056   18.3802   18.9679 H   0  0  0  0  0  0  0  0  0  0  0  0
   21.2896   19.5581   19.3051 H   0  0  0  0  0  0  0  0  0  0  0  0
   19.8518   19.3309   20.9372 C   0  0  0  0  0  0  0  0  0  0  0  0
   19.2204   20.1596   20.5877 H   0  0  0  0  0  0  0  0  0  0  0  0
   20.5446   19.7484   21.6797 H   0  0  0  0  0  0  0  0  0  0  0  0
   18.9687   18.2396   21.5865 C   0  0  0  0  0  0  0  0  0  0  0  0
   18.3390   17.7828   20.8106 H   0  0  0  0  0  0  0  0  0  0  0  0
   19.6020   17.4304   21.9730 H   0  0  0  0  0  0  0  0  0  0  0  0
   18.0438   18.7749   22.7103 C   0  0  0  0  0  0  0  0  0  0  0  0
   17.4393   17.9423   23.0956 H   0  0  0  0  0  0  0  0  0  0  0  0
   17.3295   19.4857   22.2723 H   0  0  0  0  0  0  0  0  0  0  0  0
   18.7647   19.4644   23.8977 C   0  0  0  0  0  0  0  0  0  0  0  0
   19.2737   20.3697   23.5441 H   0  0  0  0  0  0  0  0  0  0  0  0
   17.9956   19.8050   24.6026 H   0  0  0  0  0  0  0  0  0  0  0  0
   19.7691   18.5354   24.6329 C   0  0  0  0  0  0  0  0  0  0  0  0
   20.5539   18.2184   23.9353 H   0  0  0  0  0  0  0  0  0  0  0  0
   19.2531   17.6185   24.9469 H   0  0  0  0  0  0  0  0  0  0  0  0
   20.4576   19.1673   25.8657 C   0  0  2  0  0  0  0  0  0  0  0  0
   21.1706   18.4319   26.2512 H   0  0  0  0  0  0  0  0  0  0  0  0
   19.4586   19.4787   26.9938 C   0  0  0  0  0  0  0  0  0  0  0  0
   19.9907   19.7891   27.9014 H   0  0  0  0  0  0  0  0  0  0  0  0
   18.7713   20.2868   26.7171 H   0  0  0  0  0  0  0  0  0  0  0  0
   18.8640   18.5914   27.2443 H   0  0  0  0  0  0  0  0  0  0  0  0
   21.2658   20.3847   25.5102 N   0  3  0  0  0  0  0  0  0  0  0  0
   21.9662   20.1740   24.7935 H   0  0  0  0  0  0  0  0  0  0  0  0
   21.7631   20.7542   26.3255 H   0  0  0  0  0  0  0  0  0  0  0  0
   20.6690   21.1330   25.1492 H   0  0  0  0  0  0  0  0  0  0  0  0
  1  2  1  0  0  0  0
  1  3  1  0  0  0  0
  1  4  1  0  0  0  0
  1  5  1  0  0  0  0
  5  6  1  0  0  0  0
  5  7  1  0  0  0  0
  5  8  1  0  0  0  0
  8  9  1  0  0  0  0
  8 10  1  0  0  0  0
  8 11  1  0  0  0  0
 11 12  1  0  0  0  0
 11 13  1  0  0  0  0
 11 14  1  0  0  0  0
 14 15  1  0  0  0  0
 14 16  1  0  0  0  0
 14 17  1  0  0  0  0
 17 18  1  0  0  0  0
 17 19  1  0  0  0  0
 17 20  1  0  0  0  0
 20 21  1  0  0  0  0
 20 22  1  0  0  0  0
 22 23  1  0  0  0  0
 22 24  1  0  0  0  0
 22 25  1  0  0  0  0
 20 26  1  0  0  0  0
 26 27  1  0  0  0  0
 26 28  1  0  0  0  0
 26 29  1  0  0  0  0
M  END
> <VConfSearch Rank>
915

> <Conf_Id>
78

> <Delta U+W>
1.477

> <U+W>
-26.349

> <U>
26.385

> <W>
-52.734

> <W(PB)>
-55.179

> <W(SA)>
2.445

> <Valence>
4.726

> <Coulomb>
20.482

> <VdW>
1.177

> <VdW6>
-10.349

> <VdW12>
11.526

> <Bond>
0.319

> <Angle>
1.933

> <Pdih>
2.474

> <Idih>
0.000

> <Tether>
0.000

$$$$
VeraChem MOL file


 29 28  0  0  0  0  0  0  0  0999 V2000     
   20.5659   16.2221   25.8115 C   0  0  0  0  0  0  0  0  0  0  0  0
   19.6316   15.6998   26.0552 H   0  0  0  0  0  0  0  0  0  0  0  0
   20.6756   16.2244   24.7214 H   0  0  0  0  0  0  0  0  0  0  0  0
   21.3941   15.6346   26.2283 H   0  0  0  0  0  0  0  0  0  0  0  0
   20.5672   17.6522   26.3999 C   0  0  0  0  0  0  0  0  0  0  0  0
   21.5353   18.1395   26.2187 H   0  0  0  0  0  0  0  0  0  0  0  0
   20.4707   17.5691   27.4915 H   0  0  0  0  0  0  0  0  0  0  0  0
   19.4102   18.5361   25.8672 C   0  0  0  0  0  0  0  0  0  0  0  0
   18.5487   17.9110   25.5945 H   0  0  0  0  0  0  0  0  0  0  0  0
   19.0622   19.1756   26.6902 H   0  0  0  0  0  0  0  0  0  0  0  0
   19.7895   19.4645   24.6846 C   0  0  0  0  0  0  0  0  0  0  0  0
   20.5789   20.1583   25.0048 H   0  0  0  0  0  0  0  0  0  0  0  0
   18.9133   20.0833   24.4518 H   0  0  0  0  0  0  0  0  0  0  0  0
   20.2495   18.7157   23.4096 C   0  0  0  0  0  0  0  0  0  0  0  0
   21.1732   18.1654   23.6293 H   0  0  0  0  0  0  0  0  0  0  0  0
   19.5021   17.9626   23.1274 H   0  0  0  0  0  0  0  0  0  0  0  0
   20.5358   19.6599   22.2130 C   0  0  0  0  0  0  0  0  0  0  0  0
   20.8939   19.0603   21.3657 H   0  0  0  0  0  0  0  0  0  0  0  0
   21.3655   20.3247   22.4871 H   0  0  0  0  0  0  0  0  0  0  0  0
   19.3390   20.5252   21.7519 C   0  0  2  0  0  0  0  0  0  0  0  0
   19.0031   21.1313   22.5982 H   0  0  0  0  0  0  0  0  0  0  0  0
   18.1564   19.6677   21.2674 C   0  0  0  0  0  0  0  0  0  0  0  0
   17.3429   20.3043   20.8982 H   0  0  0  0  0  0  0  0  0  0  0  0
   18.4598   18.9967   20.4542 H   0  0  0  0  0  0  0  0  0  0  0  0
   17.7474   19.0586   22.0819 H   0  0  0  0  0  0  0  0  0  0  0  0
   19.7537   21.4943   20.6799 N   0  3  0  0  0  0  0  0  0  0  0  0
   20.0803   21.0067   19.8413 H   0  0  0  0  0  0  0  0  0  0  0  0
   20.5127   22.1046   20.9964 H   0  0  0  0  0  0  0  0  0  0  0  0
   18.9750   22.0971   20.3990 H   0  0  0  0  0  0  0  0  0  0  0  0
  1  2  1  0  0  0  0
  1  3  1  0  0  0  0
  1  4  1  0  0  0  0
  1  5  1  0  0  0  0
  5  6  1  0  0  0  0
  5  7  1  0  0  0  0
  5  8  1  0  0  0  0
  8  9  1  0  0  0  0
  8 10  1  0  0  0  0
  8 11  1  0  0  0  0
 11 12  1  0  0  0  0
 11 13  1  0  0  0  0
 11 14  1  0  0  0  0
 14 15  1  0  0  0  0
 14 16  1  0  0  0  0
 14 17  1  0  0  0  0
 17 18  1  0  0  0  0
 17 19  1  0  0  0  0
 17 20  1  0  0  0  0
 20 21  1  0  0  0  0
 20 22  1  0  0  0  0
 22 23  1  0  0  0  0
 22 24  1  0  0  0  0
 22 25  1  0  0  0  0
 20 26  1  0  0  0  0
 26 27  1  0  0  0  0
 26 28  1  0  0  0  0
 26 29  1  0  0  0  0
M  END
> <VConfSearch Rank>
916

> <Conf_Id>
145

> <Delta U+W>
3.784

> <U+W>
-24.042

> <U>
28.220

> <W>
-52.262

> <W(PB)>
-54.724

> <W(SA)>
2.462

> <Valence>
7.040

> <Coulomb>
19.984

> <VdW>
1.197

> <VdW6>
-10.566

> <VdW12>
11.763

> <Bond>
0.320

> <Angle>
2.280

> <Pdih>
4.439

> <Idih>
0.000

> <Tether>
0.000

$$$$
VeraChem MOL file


 29 28  0  0  0  0  0  0  0  0999 V2000     
   19.3670   20.4360   27.2361 C   0  0  0  0  0  0  0  0  0  0  0  0
   19.0461   21.4496   27.5097 H   0  0  0  0  0  0  0  0  0  0  0  0
   18.4728   19.8040   27.1564 H   0  0  0  0  0  0  0  0  0  0  0  0
   19.9841   20.0451   28.0555 H   0  0  0  0  0  0  0  0  0  0  0  0
   20.1600   20.4434   25.9122 C   0  0  0  0  0  0  0  0  0  0  0  0
   20.5015   19.4248   25.6920 H   0  0  0  0  0  0  0  0  0  0  0  0
   21.0644   21.0553   26.0357 H   0  0  0  0  0  0  0  0  0  0  0  0
   19.3130   21.0023   24.7436 C   0  0  0  0  0  0  0  0  0  0  0  0
   18.3715   20.4438   24.6503 H   0  0  0  0  0  0  0  0  0  0  0  0
   19.0290   22.0344   24.9916 H   0  0  0  0  0  0  0  0  0  0  0  0
   20.0650   21.0125   23.3871 C   0  0  0  0  0  0  0  0  0  0  0  0
   21.1478   21.1006   23.5514 H   0  0  0  0  0  0  0  0  0  0  0  0
   19.7745   21.9215   22.8424 H   0  0  0  0  0  0  0  0  0  0  0  0
   19.7622   19.8014   22.4672 C   0  0  0  0  0  0  0  0  0  0  0  0
   18.6908   19.7947   22.2268 H   0  0  0  0  0  0  0  0  0  0  0  0
   20.2895   19.9631   21.5186 H   0  0  0  0  0  0  0  0  0  0  0  0
   20.1746   18.4306   23.0668 C   0  0  0  0  0  0  0  0  0  0  0  0
   19.5783   18.2361   23.9665 H   0  0  0  0  0  0  0  0  0  0  0  0
   21.2220   18.4744   23.3931 H   0  0  0  0  0  0  0  0  0  0  0  0
   19.9985   17.2236   22.1151 C   0  0  2  0  0  0  0  0  0  0  0  0
   20.2506   16.3232   22.6839 H   0  0  0  0  0  0  0  0  0  0  0  0
   20.9517   17.2899   20.9090 C   0  0  0  0  0  0  0  0  0  0  0  0
   20.9062   16.3571   20.3337 H   0  0  0  0  0  0  0  0  0  0  0  0
   20.6948   18.1124   20.2312 H   0  0  0  0  0  0  0  0  0  0  0  0
   21.9891   17.4266   21.2386 H   0  0  0  0  0  0  0  0  0  0  0  0
   18.5735   17.0485   21.6674 N   0  3  0  0  0  0  0  0  0  0  0  0
   18.2584   17.8490   21.1138 H   0  0  0  0  0  0  0  0  0  0  0  0
   17.9382   16.9550   22.4651 H   0  0  0  0  0  0  0  0  0  0  0  0
   18.4636   16.2113   21.0880 H   0  0  0  0  0  0  0  0  0  0  0  0
  1  2  1  0  0  0  0
  1  3  1  0  0  0  0
  1  4  1  0  0  0  0
  1  5  1  0  0  0  0
  5  6  1  0  0  0  0
  5  7  1  0  0  0  0
  5  8  1  0  0  0  0
  8  9  1  0  0  0  0
  8 10  1  0  0  0  0
  8 11  1  0  0  0  0
 11 12  1  0  0  0  0
 11 13  1  0  0  0  0
 11 14  1  0  0  0  0
 14 15  1  0  0  0  0
 14 16  1  0  0  0  0
 14 17  1  0  0  0  0
 17 18  1  0  0  0  0
 17 19  1  0  0  0  0
 17 20  1  0  0  0  0
 20 21  1  0  0  0  0
 20 22  1  0  0  0  0
 22 23  1  0  0  0  0
 22 24  1  0  0  0  0
 22 25  1  0  0  0  0
 20 26  1  0  0  0  0
 26 27  1  0  0  0  0
 26 28  1  0  0  0  0
 26 29  1  0  0  0  0
M  END
> <VConfSearch Rank>
917

> <Conf_Id>
71

> <Delta U+W>
3.542

> <U+W>
-24.284

> <U>
28.217

> <W>
-52.501

> <W(PB)>
-54.947

> <W(SA)>
2.446

> <Valence>
6.821

> <Coulomb>
20.147

> <VdW>
1.249

> <VdW6>
-10.237

> <VdW12>
11.486

> <Bond>
0.317

> <Angle>
1.990

> <Pdih>
4.515

> <Idih>
0.000

> <Tether>
0.000

$$$$
VeraChem MOL file


 29 28  0  0  0  0  0  0  0  0999 V2000     
   22.4446   21.6109   21.8991 C   0  0  0  0  0  0  0  0  0  0  0  0
   23.0387   21.2819   22.7616 H   0  0  0  0  0  0  0  0  0  0  0  0
   23.0192   21.4006   20.9876 H   0  0  0  0  0  0  0  0  0  0  0  0
   22.3165   22.6987   21.9732 H   0  0  0  0  0  0  0  0  0  0  0  0
   21.0742   20.9018   21.8673 C   0  0  0  0  0  0  0  0  0  0  0  0
   20.4922   21.2774   21.0141 H   0  0  0  0  0  0  0  0  0  0  0  0
   20.5113   21.1685   22.7697 H   0  0  0  0  0  0  0  0  0  0  0  0
   21.2299   19.3663   21.7518 C   0  0  0  0  0  0  0  0  0  0  0  0
   21.7699   19.1479   20.8200 H   0  0  0  0  0  0  0  0  0  0  0  0
   21.8616   18.9825   22.5646 H   0  0  0  0  0  0  0  0  0  0  0  0
   19.8771   18.6080   21.7235 C   0  0  0  0  0  0  0  0  0  0  0  0
   19.9785   17.7551   21.0381 H   0  0  0  0  0  0  0  0  0  0  0  0
   19.0922   19.2429   21.2902 H   0  0  0  0  0  0  0  0  0  0  0  0
   19.4170   18.0505   23.0952 C   0  0  0  0  0  0  0  0  0  0  0  0
   18.5002   17.4689   22.9334 H   0  0  0  0  0  0  0  0  0  0  0  0
   20.1709   17.3409   23.4612 H   0  0  0  0  0  0  0  0  0  0  0  0
   19.1569   19.1409   24.1683 C   0  0  0  0  0  0  0  0  0  0  0  0
   18.5100   19.9200   23.7445 H   0  0  0  0  0  0  0  0  0  0  0  0
   20.1041   19.6307   24.4260 H   0  0  0  0  0  0  0  0  0  0  0  0
   18.5114   18.6245   25.4758 C   0  0  2  0  0  0  0  0  0  0  0  0
   18.3841   19.4865   26.1380 H   0  0  0  0  0  0  0  0  0  0  0  0
   19.4103   17.6083   26.2013 C   0  0  0  0  0  0  0  0  0  0  0  0
   20.4142   18.0207   26.3616 H   0  0  0  0  0  0  0  0  0  0  0  0
   18.9921   17.3591   27.1842 H   0  0  0  0  0  0  0  0  0  0  0  0
   19.5083   16.6758   25.6326 H   0  0  0  0  0  0  0  0  0  0  0  0
   17.1336   18.0636   25.2545 N   0  3  0  0  0  0  0  0  0  0  0  0
   16.5160   18.7493   24.8105 H   0  0  0  0  0  0  0  0  0  0  0  0
   16.6969   17.7850   26.1379 H   0  0  0  0  0  0  0  0  0  0  0  0
   17.1612   17.2375   24.6518 H   0  0  0  0  0  0  0  0  0  0  0  0
  1  2  1  0  0  0  0
  1  3  1  0  0  0  0
  1  4  1  0  0  0  0
  1  5  1  0  0  0  0
  5  6  1  0  0  0  0
  5  7  1  0  0  0  0
  5  8  1  0  0  0  0
  8  9  1  0  0  0  0
  8 10  1  0  0  0  0
  8 11  1  0  0  0  0
 11 12  1  0  0  0  0
 11 13  1  0  0  0  0
 11 14  1  0  0  0  0
 14 15  1  0  0  0  0
 14 16  1  0  0  0  0
 14 17  1  0  0  0  0
 17 18  1  0  0  0  0
 17 19  1  0  0  0  0
 17 20  1  0  0  0  0
 20 21  1  0  0  0  0
 20 22  1  0  0  0  0
 22 23  1  0  0  0  0
 22 24  1  0  0  0  0
 22 25  1  0  0  0  0
 20 26  1  0  0  0  0
 26 27  1  0  0  0  0
 26 28  1  0  0  0  0
 26 29  1  0  0  0  0
M  END
> <VConfSearch Rank>
918

> <Conf_Id>
163

> <Delta U+W>
3.309

> <U+W>
-24.517

> <U>
27.916

> <W>
-52.433

> <W(PB)>
-54.866

> <W(SA)>
2.433

> <Valence>
6.693

> <Coulomb>
20.015

> <VdW>
1.208

> <VdW6>
-10.294

> <VdW12>
11.503

> <Bond>
0.312

> <Angle>
1.939

> <Pdih>
4.441

> <Idih>
0.000

> <Tether>
0.000

$$$$
VeraChem MOL file


 29 28  0  0  0  0  0  0  0  0999 V2000     
   21.5605   22.4682   24.8812 C   0  0  0  0  0  0  0  0  0  0  0  0
   20.8890   23.2688   24.5446 H   0  0  0  0  0  0  0  0  0  0  0  0
   21.1516   22.0414   25.8052 H   0  0  0  0  0  0  0  0  0  0  0  0
   22.5279   22.9238   25.1292 H   0  0  0  0  0  0  0  0  0  0  0  0
   21.7352   21.3922   23.7856 C   0  0  0  0  0  0  0  0  0  0  0  0
   22.3819   20.5857   24.1586 H   0  0  0  0  0  0  0  0  0  0  0  0
   22.2641   21.8404   22.9328 H   0  0  0  0  0  0  0  0  0  0  0  0
   20.3968   20.7999   23.2820 C   0  0  0  0  0  0  0  0  0  0  0  0
   19.7555   21.6091   22.9065 H   0  0  0  0  0  0  0  0  0  0  0  0
   20.6157   20.1530   22.4228 H   0  0  0  0  0  0  0  0  0  0  0  0
   19.6369   19.9883   24.3615 C   0  0  0  0  0  0  0  0  0  0  0  0
   19.4202   20.6369   25.2200 H   0  0  0  0  0  0  0  0  0  0  0  0
   20.2824   19.1863   24.7430 H   0  0  0  0  0  0  0  0  0  0  0  0
   18.2926   19.3988   23.8607 C   0  0  0  0  0  0  0  0  0  0  0  0
   17.7946   18.8922   24.6983 H   0  0  0  0  0  0  0  0  0  0  0  0
   17.6250   20.2235   23.5757 H   0  0  0  0  0  0  0  0  0  0  0  0
   18.4101   18.4166   22.6645 C   0  0  0  0  0  0  0  0  0  0  0  0
   18.7201   18.9723   21.7703 H   0  0  0  0  0  0  0  0  0  0  0  0
   17.4145   18.0139   22.4355 H   0  0  0  0  0  0  0  0  0  0  0  0
   19.3915   17.2477   22.9015 C   0  0  2  0  0  0  0  0  0  0  0  0
   20.3775   17.6663   23.1245 H   0  0  0  0  0  0  0  0  0  0  0  0
   19.5122   16.3841   21.6362 C   0  0  0  0  0  0  0  0  0  0  0  0
   20.2364   15.5741   21.7867 H   0  0  0  0  0  0  0  0  0  0  0  0
   18.5475   15.9350   21.3684 H   0  0  0  0  0  0  0  0  0  0  0  0
   19.8571   16.9853   20.7857 H   0  0  0  0  0  0  0  0  0  0  0  0
   19.0001   16.4048   24.0840 N   0  3  0  0  0  0  0  0  0  0  0  0
   18.9465   16.9667   24.9379 H   0  0  0  0  0  0  0  0  0  0  0  0
   19.6763   15.6540   24.2499 H   0  0  0  0  0  0  0  0  0  0  0  0
   18.0849   15.9687   23.9435 H   0  0  0  0  0  0  0  0  0  0  0  0
  1  2  1  0  0  0  0
  1  3  1  0  0  0  0
  1  4  1  0  0  0  0
  1  5  1  0  0  0  0
  5  6  1  0  0  0  0
  5  7  1  0  0  0  0
  5  8  1  0  0  0  0
  8  9  1  0  0  0  0
  8 10  1  0  0  0  0
  8 11  1  0  0  0  0
 11 12  1  0  0  0  0
 11 13  1  0  0  0  0
 11 14  1  0  0  0  0
 14 15  1  0  0  0  0
 14 16  1  0  0  0  0
 14 17  1  0  0  0  0
 17 18  1  0  0  0  0
 17 19  1  0  0  0  0
 17 20  1  0  0  0  0
 20 21  1  0  0  0  0
 20 22  1  0  0  0  0
 22 23  1  0  0  0  0
 22 24  1  0  0  0  0
 22 25  1  0  0  0  0
 20 26  1  0  0  0  0
 26 27  1  0  0  0  0
 26 28  1  0  0  0  0
 26 29  1  0  0  0  0
M  END
> <VConfSearch Rank>
919

> <Conf_Id>
173

> <Delta U+W>
1.363

> <U+W>
-26.462

> <U>
25.816

> <W>
-52.279

> <W(PB)>
-54.727

> <W(SA)>
2.449

> <Valence>
4.504

> <Coulomb>
20.342

> <VdW>
0.971

> <VdW6>
-10.532

> <VdW12>
11.503

> <Bond>
0.307

> <Angle>
1.715

> <Pdih>
2.481

> <Idih>
0.000

> <Tether>
0.000

$$$$
VeraChem MOL file


 29 28  0  0  0  0  0  0  0  0999 V2000     
   17.2089   19.2771   26.3608 C   0  0  0  0  0  0  0  0  0  0  0  0
   16.3084   19.4291   25.7515 H   0  0  0  0  0  0  0  0  0  0  0  0
   17.0050   18.4710   27.0776 H   0  0  0  0  0  0  0  0  0  0  0  0
   17.3893   20.1974   26.9314 H   0  0  0  0  0  0  0  0  0  0  0  0
   18.4264   18.9379   25.4751 C   0  0  0  0  0  0  0  0  0  0  0  0
   19.3160   18.8180   26.1089 H   0  0  0  0  0  0  0  0  0  0  0  0
   18.6190   19.7825   24.8005 H   0  0  0  0  0  0  0  0  0  0  0  0
   18.1920   17.6502   24.6528 C   0  0  0  0  0  0  0  0  0  0  0  0
   17.8835   16.8440   25.3326 H   0  0  0  0  0  0  0  0  0  0  0  0
   17.3509   17.8065   23.9633 H   0  0  0  0  0  0  0  0  0  0  0  0
   19.4292   17.1654   23.8535 C   0  0  0  0  0  0  0  0  0  0  0  0
   19.1499   16.2304   23.3482 H   0  0  0  0  0  0  0  0  0  0  0  0
   20.2422   16.8972   24.5422 H   0  0  0  0  0  0  0  0  0  0  0  0
   19.9375   18.1624   22.7797 C   0  0  0  0  0  0  0  0  0  0  0  0
   20.2770   17.5843   21.9101 H   0  0  0  0  0  0  0  0  0  0  0  0
   19.1012   18.7799   22.4277 H   0  0  0  0  0  0  0  0  0  0  0  0
   21.1152   19.0463   23.2766 C   0  0  0  0  0  0  0  0  0  0  0  0
   21.9495   18.3952   23.5686 H   0  0  0  0  0  0  0  0  0  0  0  0
   20.8289   19.5853   24.1866 H   0  0  0  0  0  0  0  0  0  0  0  0
   21.6384   20.0724   22.2442 C   0  0  2  0  0  0  0  0  0  0  0  0
   22.4978   20.5778   22.6956 H   0  0  0  0  0  0  0  0  0  0  0  0
   20.5879   21.1479   21.9164 C   0  0  0  0  0  0  0  0  0  0  0  0
   20.2130   21.6194   22.8333 H   0  0  0  0  0  0  0  0  0  0  0  0
   21.0283   21.9362   21.2937 H   0  0  0  0  0  0  0  0  0  0  0  0
   19.7338   20.7294   21.3711 H   0  0  0  0  0  0  0  0  0  0  0  0
   22.1508   19.4186   20.9906 N   0  3  0  0  0  0  0  0  0  0  0  0
   22.8829   18.7331   21.1971 H   0  0  0  0  0  0  0  0  0  0  0  0
   22.5488   20.1071   20.3454 H   0  0  0  0  0  0  0  0  0  0  0  0
   21.4013   18.9299   20.4945 H   0  0  0  0  0  0  0  0  0  0  0  0
  1  2  1  0  0  0  0
  1  3  1  0  0  0  0
  1  4  1  0  0  0  0
  1  5  1  0  0  0  0
  5  6  1  0  0  0  0
  5  7  1  0  0  0  0
  5  8  1  0  0  0  0
  8  9  1  0  0  0  0
  8 10  1  0  0  0  0
  8 11  1  0  0  0  0
 11 12  1  0  0  0  0
 11 13  1  0  0  0  0
 11 14  1  0  0  0  0
 14 15  1  0  0  0  0
 14 16  1  0  0  0  0
 14 17  1  0  0  0  0
 17 18  1  0  0  0  0
 17 19  1  0  0  0  0
 17 20  1  0  0  0  0
 20 21  1  0  0  0  0
 20 22  1  0  0  0  0
 22 23  1  0  0  0  0
 22 24  1  0  0  0  0
 22 25  1  0  0  0  0
 20 26  1  0  0  0  0
 26 27  1  0  0  0  0
 26 28  1  0  0  0  0
 26 29  1  0  0  0  0
M  END
> <VConfSearch Rank>
920

> <Conf_Id>
117

> <Delta U+W>
3.377

> <U+W>
-24.449

> <U>
27.947

> <W>
-52.396

> <W(PB)>
-54.842

> <W(SA)>
2.447

> <Valence>
6.731

> <Coulomb>
20.067

> <VdW>
1.149

> <VdW6>
-10.427

> <VdW12>
11.575

> <Bond>
0.324

> <Angle>
1.943

> <Pdih>
4.465

> <Idih>
0.000

> <Tether>
0.000

$$$$
VeraChem MOL file


 29 28  0  0  0  0  0  0  0  0999 V2000     
   15.1531   18.9697   22.0626 C   0  0  0  0  0  0  0  0  0  0  0  0
   14.9880   17.9810   22.5104 H   0  0  0  0  0  0  0  0  0  0  0  0
   14.8006   19.7297   22.7722 H   0  0  0  0  0  0  0  0  0  0  0  0
   14.5330   19.0385   21.1594 H   0  0  0  0  0  0  0  0  0  0  0  0
   16.6426   19.1809   21.7184 C   0  0  0  0  0  0  0  0  0  0  0  0
   16.7711   20.1629   21.2421 H   0  0  0  0  0  0  0  0  0  0  0  0
   16.9570   18.4277   20.9823 H   0  0  0  0  0  0  0  0  0  0  0  0
   17.5382   19.0890   22.9736 C   0  0  0  0  0  0  0  0  0  0  0  0
   17.2187   19.8420   23.7073 H   0  0  0  0  0  0  0  0  0  0  0  0
   17.4046   18.1066   23.4475 H   0  0  0  0  0  0  0  0  0  0  0  0
   19.0306   19.3000   22.6329 C   0  0  0  0  0  0  0  0  0  0  0  0
   19.1625   20.2820   22.1578 H   0  0  0  0  0  0  0  0  0  0  0  0
   19.3494   18.5464   21.8993 H   0  0  0  0  0  0  0  0  0  0  0  0
   19.9262   19.2087   23.8890 C   0  0  0  0  0  0  0  0  0  0  0  0
   19.6090   19.9650   24.6205 H   0  0  0  0  0  0  0  0  0  0  0  0
   19.7840   18.2276   24.3613 H   0  0  0  0  0  0  0  0  0  0  0  0
   21.4207   19.4192   23.5446 C   0  0  0  0  0  0  0  0  0  0  0  0
   21.5331   20.3802   23.0251 H   0  0  0  0  0  0  0  0  0  0  0  0
   21.7533   18.6426   22.8430 H   0  0  0  0  0  0  0  0  0  0  0  0
   22.3321   19.4180   24.7909 C   0  0  2  0  0  0  0  0  0  0  0  0
   21.9666   20.1820   25.4840 H   0  0  0  0  0  0  0  0  0  0  0  0
   23.7750   19.7730   24.3982 C   0  0  0  0  0  0  0  0  0  0  0  0
   24.4208   19.8097   25.2842 H   0  0  0  0  0  0  0  0  0  0  0  0
   24.1906   19.0332   23.7025 H   0  0  0  0  0  0  0  0  0  0  0  0
   23.8167   20.7573   23.9153 H   0  0  0  0  0  0  0  0  0  0  0  0
   22.2944   18.1086   25.5305 N   0  3  0  0  0  0  0  0  0  0  0  0
   21.3450   17.8801   25.8376 H   0  0  0  0  0  0  0  0  0  0  0  0
   22.8887   18.1325   26.3641 H   0  0  0  0  0  0  0  0  0  0  0  0
   22.6224   17.3382   24.9419 H   0  0  0  0  0  0  0  0  0  0  0  0
  1  2  1  0  0  0  0
  1  3  1  0  0  0  0
  1  4  1  0  0  0  0
  1  5  1  0  0  0  0
  5  6  1  0  0  0  0
  5  7  1  0  0  0  0
  5  8  1  0  0  0  0
  8  9  1  0  0  0  0
  8 10  1  0  0  0  0
  8 11  1  0  0  0  0
 11 12  1  0  0  0  0
 11 13  1  0  0  0  0
 11 14  1  0  0  0  0
 14 15  1  0  0  0  0
 14 16  1  0  0  0  0
 14 17  1  0  0  0  0
 17 18  1  0  0  0  0
 17 19  1  0  0  0  0
 17 20  1  0  0  0  0
 20 21  1  0  0  0  0
 20 22  1  0  0  0  0
 22 23  1  0  0  0  0
 22 24  1  0  0  0  0
 22 25  1  0  0  0  0
 20 26  1  0  0  0  0
 26 27  1  0  0  0  0
 26 28  1  0  0  0  0
 26 29  1  0  0  0  0
M  END
> <VConfSearch Rank>
921

> <Conf_Id>
164

> <Delta U+W>
0.000

> <U+W>
-27.826

> <U>
23.963

> <W>
-51.789

> <W(PB)>
-54.342

> <W(SA)>
2.554

> <Valence>
3.166

> <Coulomb>
19.734

> <VdW>
1.062

> <VdW6>
-7.938

> <VdW12>
9.001

> <Bond>
0.188

> <Angle>
0.880

> <Pdih>
2.098

> <Idih>
0.000

> <Tether>
0.000

$$$$
VeraChem MOL file


 29 28  0  0  0  0  0  0  0  0999 V2000     
   23.6817   18.2501   20.7077 C   0  0  0  0  0  0  0  0  0  0  0  0
   23.2040   17.4500   20.1273 H   0  0  0  0  0  0  0  0  0  0  0  0
   23.5645   19.1909   20.1542 H   0  0  0  0  0  0  0  0  0  0  0  0
   24.7548   18.0269   20.7697 H   0  0  0  0  0  0  0  0  0  0  0  0
   23.0648   18.3561   22.1184 C   0  0  0  0  0  0  0  0  0  0  0  0
   23.5848   19.1407   22.6857 H   0  0  0  0  0  0  0  0  0  0  0  0
   23.2272   17.4132   22.6591 H   0  0  0  0  0  0  0  0  0  0  0  0
   21.5535   18.6700   22.0595 C   0  0  0  0  0  0  0  0  0  0  0  0
   21.3961   19.6119   21.5160 H   0  0  0  0  0  0  0  0  0  0  0  0
   21.0383   17.8843   21.4896 H   0  0  0  0  0  0  0  0  0  0  0  0
   20.9321   18.7769   23.4703 C   0  0  0  0  0  0  0  0  0  0  0  0
   21.4476   19.5630   24.0395 H   0  0  0  0  0  0  0  0  0  0  0  0
   21.0915   17.8348   24.0129 H   0  0  0  0  0  0  0  0  0  0  0  0
   19.4199   19.0904   23.4109 C   0  0  0  0  0  0  0  0  0  0  0  0
   19.2713   20.0283   22.8598 H   0  0  0  0  0  0  0  0  0  0  0  0
   18.9039   18.3016   22.8460 H   0  0  0  0  0  0  0  0  0  0  0  0
   18.8008   19.2017   24.8259 C   0  0  0  0  0  0  0  0  0  0  0  0
   19.2691   20.0322   25.3708 H   0  0  0  0  0  0  0  0  0  0  0  0
   19.0410   18.2878   25.3851 H   0  0  0  0  0  0  0  0  0  0  0  0
   17.2657   19.3826   24.8217 C   0  0  2  0  0  0  0  0  0  0  0  0
   16.8256   18.5678   24.2385 H   0  0  0  0  0  0  0  0  0  0  0  0
   16.8401   20.7198   24.1892 C   0  0  0  0  0  0  0  0  0  0  0  0
   17.3092   21.5685   24.7024 H   0  0  0  0  0  0  0  0  0  0  0  0
   17.1139   20.7647   23.1288 H   0  0  0  0  0  0  0  0  0  0  0  0
   15.7520   20.8459   24.2482 H   0  0  0  0  0  0  0  0  0  0  0  0
   16.7023   19.2622   26.2104 N   0  3  0  0  0  0  0  0  0  0  0  0
   15.6813   19.3418   26.2080 H   0  0  0  0  0  0  0  0  0  0  0  0
   17.0644   19.9956   26.8258 H   0  0  0  0  0  0  0  0  0  0  0  0
   16.9363   18.3603   26.6355 H   0  0  0  0  0  0  0  0  0  0  0  0
  1  2  1  0  0  0  0
  1  3  1  0  0  0  0
  1  4  1  0  0  0  0
  1  5  1  0  0  0  0
  5  6  1  0  0  0  0
  5  7  1  0  0  0  0
  5  8  1  0  0  0  0
  8  9  1  0  0  0  0
  8 10  1  0  0  0  0
  8 11  1  0  0  0  0
 11 12  1  0  0  0  0
 11 13  1  0  0  0  0
 11 14  1  0  0  0  0
 14 15  1  0  0  0  0
 14 16  1  0  0  0  0
 14 17  1  0  0  0  0
 17 18  1  0  0  0  0
 17 19  1  0  0  0  0
 17 20  1  0  0  0  0
 20 21  1  0  0  0  0
 20 22  1  0  0  0  0
 22 23  1  0  0  0  0
 22 24  1  0  0  0  0
 22 25  1  0  0  0  0
 20 26  1  0  0  0  0
 26 27  1  0  0  0  0
 26 28  1  0  0  0  0
 26 29  1  0  0  0  0
M  END
> <VConfSearch Rank>
922

> <Conf_Id>
58

> <Delta U+W>
0.412

> <U+W>
-27.414

> <U>
24.279

> <W>
-51.694

> <W(PB)>
-54.271

> <W(SA)>
2.577

> <Valence>
3.709

> <Coulomb>
19.380

> <VdW>
1.191

> <VdW6>
-8.093

> <VdW12>
9.284

> <Bond>
0.200

> <Angle>
1.161

> <Pdih>
2.348

> <Idih>
0.000

> <Tether>
0.000

$$$$
VeraChem MOL file


 29 28  0  0  0  0  0  0  0  0999 V2000     
   23.3207   16.1326   24.0179 C   0  0  0  0  0  0  0  0  0  0  0  0
   23.9300   16.6515   23.2664 H   0  0  0  0  0  0  0  0  0  0  0  0
   23.5751   16.5401   25.0051 H   0  0  0  0  0  0  0  0  0  0  0  0
   23.6041   15.0721   24.0078 H   0  0  0  0  0  0  0  0  0  0  0  0
   21.8152   16.2971   23.7212 C   0  0  0  0  0  0  0  0  0  0  0  0
   21.2332   15.7401   24.4688 H   0  0  0  0  0  0  0  0  0  0  0  0
   21.5854   15.8507   22.7435 H   0  0  0  0  0  0  0  0  0  0  0  0
   21.3896   17.7819   23.7294 C   0  0  0  0  0  0  0  0  0  0  0  0
   21.6232   18.2243   24.7078 H   0  0  0  0  0  0  0  0  0  0  0  0
   21.9757   18.3349   22.9824 H   0  0  0  0  0  0  0  0  0  0  0  0
   19.8825   17.9506   23.4323 C   0  0  0  0  0  0  0  0  0  0  0  0
   19.2976   17.3967   24.1796 H   0  0  0  0  0  0  0  0  0  0  0  0
   19.6500   17.5075   22.4540 H   0  0  0  0  0  0  0  0  0  0  0  0
   19.4570   19.4363   23.4405 C   0  0  0  0  0  0  0  0  0  0  0  0
   19.6933   19.8731   24.4197 H   0  0  0  0  0  0  0  0  0  0  0  0
   20.0500   19.9817   22.6946 H   0  0  0  0  0  0  0  0  0  0  0  0
   17.9445   19.5991   23.1383 C   0  0  0  0  0  0  0  0  0  0  0  0
   17.3668   19.0086   23.8616 H   0  0  0  0  0  0  0  0  0  0  0  0
   17.7231   19.1694   22.1524 H   0  0  0  0  0  0  0  0  0  0  0  0
   17.4262   21.0563   23.1729 C   0  0  2  0  0  0  0  0  0  0  0  0
   16.3502   21.0233   22.9754 H   0  0  0  0  0  0  0  0  0  0  0  0
   18.0728   21.9268   22.0815 C   0  0  0  0  0  0  0  0  0  0  0  0
   17.5904   22.9111   22.0405 H   0  0  0  0  0  0  0  0  0  0  0  0
   19.1414   22.0855   22.2690 H   0  0  0  0  0  0  0  0  0  0  0  0
   17.9619   21.4608   21.0945 H   0  0  0  0  0  0  0  0  0  0  0  0
   17.5817   21.6887   24.5285 N   0  3  0  0  0  0  0  0  0  0  0  0
   17.1155   21.1380   25.2553 H   0  0  0  0  0  0  0  0  0  0  0  0
   17.1780   22.6295   24.5509 H   0  0  0  0  0  0  0  0  0  0  0  0
   18.5676   21.7712   24.7886 H   0  0  0  0  0  0  0  0  0  0  0  0
  1  2  1  0  0  0  0
  1  3  1  0  0  0  0
  1  4  1  0  0  0  0
  1  5  1  0  0  0  0
  5  6  1  0  0  0  0
  5  7  1  0  0  0  0
  5  8  1  0  0  0  0
  8  9  1  0  0  0  0
  8 10  1  0  0  0  0
  8 11  1  0  0  0  0
 11 12  1  0  0  0  0
 11 13  1  0  0  0  0
 11 14  1  0  0  0  0
 14 15  1  0  0  0  0
 14 16  1  0  0  0  0
 14 17  1  0  0  0  0
 17 18  1  0  0  0  0
 17 19  1  0  0  0  0
 17 20  1  0  0  0  0
 20 21  1  0  0  0  0
 20 22  1  0  0  0  0
 22 23  1  0  0  0  0
 22 24  1  0  0  0  0
 22 25  1  0  0  0  0
 20 26  1  0  0  0  0
 26 27  1  0  0  0  0
 26 28  1  0  0  0  0
 26 29  1  0  0  0  0
M  END
> <VConfSearch Rank>
923

> <Conf_Id>
137

> <Delta U+W>
0.280

> <U+W>
-27.546

> <U>
24.513

> <W>
-52.059

> <W(PB)>
-54.556

> <W(SA)>
2.497

> <Valence>
3.677

> <Coulomb>
19.662

> <VdW>
1.174

> <VdW6>
-8.569

> <VdW12>
9.743

> <Bond>
0.224

> <Angle>
1.211

> <Pdih>
2.243

> <Idih>
0.000

> <Tether>
0.000

$$$$
VeraChem MOL file


 29 28  0  0  0  0  0  0  0  0999 V2000     
   21.6278   20.3999   19.6710 C   0  0  0  0  0  0  0  0  0  0  0  0
   21.1785   19.4621   19.3190 H   0  0  0  0  0  0  0  0  0  0  0  0
   20.9115   21.2117   19.4896 H   0  0  0  0  0  0  0  0  0  0  0  0
   22.5201   20.5953   19.0623 H   0  0  0  0  0  0  0  0  0  0  0  0
   21.9976   20.3107   21.1668 C   0  0  0  0  0  0  0  0  0  0  0  0
   22.4759   21.2493   21.4802 H   0  0  0  0  0  0  0  0  0  0  0  0
   22.7393   19.5128   21.3122 H   0  0  0  0  0  0  0  0  0  0  0  0
   20.7582   20.0367   22.0471 C   0  0  0  0  0  0  0  0  0  0  0  0
   20.0211   20.8382   21.9000 H   0  0  0  0  0  0  0  0  0  0  0  0
   20.2857   19.1029   21.7163 H   0  0  0  0  0  0  0  0  0  0  0  0
   21.1293   19.9429   23.5469 C   0  0  0  0  0  0  0  0  0  0  0  0
   21.6768   20.8512   23.8345 H   0  0  0  0  0  0  0  0  0  0  0  0
   21.8201   19.1036   23.7069 H   0  0  0  0  0  0  0  0  0  0  0  0
   19.9054   19.7944   24.4843 C   0  0  0  0  0  0  0  0  0  0  0  0
   20.2618   19.8888   25.5180 H   0  0  0  0  0  0  0  0  0  0  0  0
   19.2114   20.6299   24.3182 H   0  0  0  0  0  0  0  0  0  0  0  0
   19.1543   18.4480   24.3146 C   0  0  0  0  0  0  0  0  0  0  0  0
   19.8453   17.6130   24.4911 H   0  0  0  0  0  0  0  0  0  0  0  0
   18.8138   18.3569   23.2762 H   0  0  0  0  0  0  0  0  0  0  0  0
   17.9196   18.3038   25.2340 C   0  0  2  0  0  0  0  0  0  0  0  0
   17.2767   19.1767   25.0850 H   0  0  0  0  0  0  0  0  0  0  0  0
   18.3058   18.2301   26.7224 C   0  0  0  0  0  0  0  0  0  0  0  0
   19.0074   17.4077   26.9101 H   0  0  0  0  0  0  0  0  0  0  0  0
   18.7699   19.1629   27.0622 H   0  0  0  0  0  0  0  0  0  0  0  0
   17.4169   18.0668   27.3441 H   0  0  0  0  0  0  0  0  0  0  0  0
   17.0985   17.1033   24.8530 N   0  3  0  0  0  0  0  0  0  0  0  0
   16.7904   17.1510   23.8774 H   0  0  0  0  0  0  0  0  0  0  0  0
   16.2587   17.0251   25.4338 H   0  0  0  0  0  0  0  0  0  0  0  0
   17.6298   16.2357   24.9660 H   0  0  0  0  0  0  0  0  0  0  0  0
  1  2  1  0  0  0  0
  1  3  1  0  0  0  0
  1  4  1  0  0  0  0
  1  5  1  0  0  0  0
  5  6  1  0  0  0  0
  5  7  1  0  0  0  0
  5  8  1  0  0  0  0
  8  9  1  0  0  0  0
  8 10  1  0  0  0  0
  8 11  1  0  0  0  0
 11 12  1  0  0  0  0
 11 13  1  0  0  0  0
 11 14  1  0  0  0  0
 14 15  1  0  0  0  0
 14 16  1  0  0  0  0
 14 17  1  0  0  0  0
 17 18  1  0  0  0  0
 17 19  1  0  0  0  0
 17 20  1  0  0  0  0
 20 21  1  0  0  0  0
 20 22  1  0  0  0  0
 22 23  1  0  0  0  0
 22 24  1  0  0  0  0
 22 25  1  0  0  0  0
 20 26  1  0  0  0  0
 26 27  1  0  0  0  0
 26 28  1  0  0  0  0
 26 29  1  0  0  0  0
M  END
> <VConfSearch Rank>
924

> <Conf_Id>
40

> <Delta U+W>
1.128

> <U+W>
-26.698

> <U>
25.442

> <W>
-52.140

> <W(PB)>
-54.658

> <W(SA)>
2.519

> <Valence>
4.343

> <Coulomb>
19.740

> <VdW>
1.360

> <VdW6>
-8.739

> <VdW12>
10.099

> <Bond>
0.251

> <Angle>
1.483

> <Pdih>
2.608

> <Idih>
0.000

> <Tether>
0.000

$$$$
VeraChem MOL file


 29 28  0  0  0  0  0  0  0  0999 V2000     
   17.5734   18.0748   19.9123 C   0  0  0  0  0  0  0  0  0  0  0  0
   18.6107   17.9145   19.5936 H   0  0  0  0  0  0  0  0  0  0  0  0
   17.1945   17.1363   20.3376 H   0  0  0  0  0  0  0  0  0  0  0  0
   16.9839   18.2980   19.0137 H   0  0  0  0  0  0  0  0  0  0  0  0
   17.4630   19.2314   20.9317 C   0  0  0  0  0  0  0  0  0  0  0  0
   16.3994   19.4357   21.1183 H   0  0  0  0  0  0  0  0  0  0  0  0
   17.8804   20.1500   20.4961 H   0  0  0  0  0  0  0  0  0  0  0  0
   18.1540   18.9319   22.2841 C   0  0  0  0  0  0  0  0  0  0  0  0
   17.9024   19.7436   22.9783 H   0  0  0  0  0  0  0  0  0  0  0  0
   17.7331   18.0131   22.7149 H   0  0  0  0  0  0  0  0  0  0  0  0
   19.6945   18.8006   22.1736 C   0  0  0  0  0  0  0  0  0  0  0  0
   20.1164   19.7215   21.7481 H   0  0  0  0  0  0  0  0  0  0  0  0
   19.9406   17.9948   21.4702 H   0  0  0  0  0  0  0  0  0  0  0  0
   20.3901   18.4847   23.5209 C   0  0  0  0  0  0  0  0  0  0  0  0
   19.9538   17.5744   23.9550 H   0  0  0  0  0  0  0  0  0  0  0  0
   21.4425   18.2530   23.3112 H   0  0  0  0  0  0  0  0  0  0  0  0
   20.3121   19.6440   24.5479 C   0  0  0  0  0  0  0  0  0  0  0  0
   19.2610   19.8562   24.7782 H   0  0  0  0  0  0  0  0  0  0  0  0
   20.7290   20.5594   24.1075 H   0  0  0  0  0  0  0  0  0  0  0  0
   21.0428   19.3260   25.8707 C   0  0  2  0  0  0  0  0  0  0  0  0
   20.6366   18.3919   26.2709 H   0  0  0  0  0  0  0  0  0  0  0  0
   20.7939   20.4403   26.8998 C   0  0  0  0  0  0  0  0  0  0  0  0
   21.2815   20.2040   27.8536 H   0  0  0  0  0  0  0  0  0  0  0  0
   21.1845   21.4025   26.5452 H   0  0  0  0  0  0  0  0  0  0  0  0
   19.7208   20.5583   27.0953 H   0  0  0  0  0  0  0  0  0  0  0  0
   22.5190   19.1096   25.6780 N   0  3  0  0  0  0  0  0  0  0  0  0
   22.9721   19.9457   25.2995 H   0  0  0  0  0  0  0  0  0  0  0  0
   22.7027   18.3388   25.0302 H   0  0  0  0  0  0  0  0  0  0  0  0
   22.9824   18.8832   26.5627 H   0  0  0  0  0  0  0  0  0  0  0  0
  1  2  1  0  0  0  0
  1  3  1  0  0  0  0
  1  4  1  0  0  0  0
  1  5  1  0  0  0  0
  5  6  1  0  0  0  0
  5  7  1  0  0  0  0
  5  8  1  0  0  0  0
  8  9  1  0  0  0  0
  8 10  1  0  0  0  0
  8 11  1  0  0  0  0
 11 12  1  0  0  0  0
 11 13  1  0  0  0  0
 11 14  1  0  0  0  0
 14 15  1  0  0  0  0
 14 16  1  0  0  0  0
 14 17  1  0  0  0  0
 17 18  1  0  0  0  0
 17 19  1  0  0  0  0
 17 20  1  0  0  0  0
 20 21  1  0  0  0  0
 20 22  1  0  0  0  0
 22 23  1  0  0  0  0
 22 24  1  0  0  0  0
 22 25  1  0  0  0  0
 20 26  1  0  0  0  0
 26 27  1  0  0  0  0
 26 28  1  0  0  0  0
 26 29  1  0  0  0  0
M  END
> <VConfSearch Rank>
925

> <Conf_Id>
134

> <Delta U+W>
1.228

> <U+W>
-26.598

> <U>
25.451

> <W>
-52.048

> <W(PB)>
-54.539

> <W(SA)>
2.490

> <Valence>
4.319

> <Coulomb>
19.732

> <VdW>
1.400

> <VdW6>
-9.173

> <VdW12>
10.573

> <Bond>
0.281

> <Angle>
1.459

> <Pdih>
2.580

> <Idih>
0.000

> <Tether>
0.000

$$$$
VeraChem MOL file


 29 28  0  0  0  0  0  0  0  0999 V2000     
   18.7798   23.1770   24.4755 C   0  0  0  0  0  0  0  0  0  0  0  0
   18.8126   22.7611   25.4900 H   0  0  0  0  0  0  0  0  0  0  0  0
   19.7902   23.5122   24.2076 H   0  0  0  0  0  0  0  0  0  0  0  0
   18.1294   24.0607   24.5030 H   0  0  0  0  0  0  0  0  0  0  0  0
   18.2473   22.1460   23.4545 C   0  0  0  0  0  0  0  0  0  0  0  0
   18.1124   22.6471   22.4858 H   0  0  0  0  0  0  0  0  0  0  0  0
   17.2508   21.8001   23.7629 H   0  0  0  0  0  0  0  0  0  0  0  0
   19.1855   20.9309   23.2566 C   0  0  0  0  0  0  0  0  0  0  0  0
   18.7938   20.3328   22.4239 H   0  0  0  0  0  0  0  0  0  0  0  0
   20.1793   21.2818   22.9464 H   0  0  0  0  0  0  0  0  0  0  0  0
   19.3151   20.0399   24.5182 C   0  0  0  0  0  0  0  0  0  0  0  0
   18.3214   19.6879   24.8273 H   0  0  0  0  0  0  0  0  0  0  0  0
   19.7030   20.6402   25.3511 H   0  0  0  0  0  0  0  0  0  0  0  0
   20.2584   18.8274   24.3229 C   0  0  0  0  0  0  0  0  0  0  0  0
   21.2523   19.1905   24.0296 H   0  0  0  0  0  0  0  0  0  0  0  0
   20.3842   18.3254   25.2923 H   0  0  0  0  0  0  0  0  0  0  0  0
   19.7368   17.7978   23.2875 C   0  0  0  0  0  0  0  0  0  0  0  0
   19.7417   18.2372   22.2821 H   0  0  0  0  0  0  0  0  0  0  0  0
   18.6902   17.5637   23.5228 H   0  0  0  0  0  0  0  0  0  0  0  0
   20.5415   16.4784   23.2693 C   0  0  2  0  0  0  0  0  0  0  0  0
   20.5561   16.0712   24.2850 H   0  0  0  0  0  0  0  0  0  0  0  0
   21.9947   16.6934   22.8096 C   0  0  0  0  0  0  0  0  0  0  0  0
   22.0321   17.1564   21.8157 H   0  0  0  0  0  0  0  0  0  0  0  0
   22.5429   17.3354   23.5088 H   0  0  0  0  0  0  0  0  0  0  0  0
   22.5296   15.7370   22.7598 H   0  0  0  0  0  0  0  0  0  0  0  0
   19.8704   15.4451   22.4078 N   0  3  0  0  0  0  0  0  0  0  0  0
   18.9148   15.2545   22.7228 H   0  0  0  0  0  0  0  0  0  0  0  0
   20.3794   14.5566   22.4246 H   0  0  0  0  0  0  0  0  0  0  0  0
   19.8180   15.7486   21.4316 H   0  0  0  0  0  0  0  0  0  0  0  0
  1  2  1  0  0  0  0
  1  3  1  0  0  0  0
  1  4  1  0  0  0  0
  1  5  1  0  0  0  0
  5  6  1  0  0  0  0
  5  7  1  0  0  0  0
  5  8  1  0  0  0  0
  8  9  1  0  0  0  0
  8 10  1  0  0  0  0
  8 11  1  0  0  0  0
 11 12  1  0  0  0  0
 11 13  1  0  0  0  0
 11 14  1  0  0  0  0
 14 15  1  0  0  0  0
 14 16  1  0  0  0  0
 14 17  1  0  0  0  0
 17 18  1  0  0  0  0
 17 19  1  0  0  0  0
 17 20  1  0  0  0  0
 20 21  1  0  0  0  0
 20 22  1  0  0  0  0
 22 23  1  0  0  0  0
 22 24  1  0  0  0  0
 22 25  1  0  0  0  0
 20 26  1  0  0  0  0
 26 27  1  0  0  0  0
 26 28  1  0  0  0  0
 26 29  1  0  0  0  0
M  END
> <VConfSearch Rank>
926

> <Conf_Id>
73

> <Delta U+W>
1.580

> <U+W>
-26.246

> <U>
25.821

> <W>
-52.067

> <W(PB)>
-54.581

> <W(SA)>
2.514

> <Valence>
4.779

> <Coulomb>
19.614

> <VdW>
1.428

> <VdW6>
-9.390

> <VdW12>
10.818

> <Bond>
0.283

> <Angle>
1.640

> <Pdih>
2.856

> <Idih>
0.000

> <Tether>
0.000

$$$$
VeraChem MOL file


 29 28  0  0  0  0  0  0  0  0999 V2000     
   21.3608   19.5860   27.6759 C   0  0  0  0  0  0  0  0  0  0  0  0
   20.9971   18.5551   27.7764 H   0  0  0  0  0  0  0  0  0  0  0  0
   22.1976   19.7177   28.3741 H   0  0  0  0  0  0  0  0  0  0  0  0
   20.5547   20.2647   27.9840 H   0  0  0  0  0  0  0  0  0  0  0  0
   21.8083   19.8779   26.2280 C   0  0  0  0  0  0  0  0  0  0  0  0
   22.6363   19.2067   25.9598 H   0  0  0  0  0  0  0  0  0  0  0  0
   22.1989   20.9034   26.1673 H   0  0  0  0  0  0  0  0  0  0  0  0
   20.6479   19.7006   25.2239 C   0  0  0  0  0  0  0  0  0  0  0  0
   20.2615   18.6762   25.3027 H   0  0  0  0  0  0  0  0  0  0  0  0
   19.8240   20.3753   25.4946 H   0  0  0  0  0  0  0  0  0  0  0  0
   21.0972   19.9884   23.7711 C   0  0  0  0  0  0  0  0  0  0  0  0
   21.8805   19.2762   23.4769 H   0  0  0  0  0  0  0  0  0  0  0  0
   21.5573   20.9855   23.7319 H   0  0  0  0  0  0  0  0  0  0  0  0
   19.9414   19.9434   22.7414 C   0  0  0  0  0  0  0  0  0  0  0  0
   19.1601   20.6581   23.0350 H   0  0  0  0  0  0  0  0  0  0  0  0
   20.3332   20.2925   21.7771 H   0  0  0  0  0  0  0  0  0  0  0  0
   19.3209   18.5330   22.5684 C   0  0  0  0  0  0  0  0  0  0  0  0
   18.9075   18.1982   23.5277 H   0  0  0  0  0  0  0  0  0  0  0  0
   20.1038   17.8134   22.2945 H   0  0  0  0  0  0  0  0  0  0  0  0
   18.1921   18.4973   21.5151 C   0  0  2  0  0  0  0  0  0  0  0  0
   17.4433   19.2467   21.7893 H   0  0  0  0  0  0  0  0  0  0  0  0
   17.5136   17.1181   21.5059 C   0  0  0  0  0  0  0  0  0  0  0  0
   17.0984   16.8809   22.4933 H   0  0  0  0  0  0  0  0  0  0  0  0
   16.6876   17.0965   20.7842 H   0  0  0  0  0  0  0  0  0  0  0  0
   18.2248   16.3276   21.2353 H   0  0  0  0  0  0  0  0  0  0  0  0
   18.6772   18.8530   20.1362 N   0  3  0  0  0  0  0  0  0  0  0  0
   17.9120   18.8408   19.4559 H   0  0  0  0  0  0  0  0  0  0  0  0
   19.3886   18.1936   19.8096 H   0  0  0  0  0  0  0  0  0  0  0  0
   19.0907   19.7890   20.1150 H   0  0  0  0  0  0  0  0  0  0  0  0
  1  2  1  0  0  0  0
  1  3  1  0  0  0  0
  1  4  1  0  0  0  0
  1  5  1  0  0  0  0
  5  6  1  0  0  0  0
  5  7  1  0  0  0  0
  5  8  1  0  0  0  0
  8  9  1  0  0  0  0
  8 10  1  0  0  0  0
  8 11  1  0  0  0  0
 11 12  1  0  0  0  0
 11 13  1  0  0  0  0
 11 14  1  0  0  0  0
 14 15  1  0  0  0  0
 14 16  1  0  0  0  0
 14 17  1  0  0  0  0
 17 18  1  0  0  0  0
 17 19  1  0  0  0  0
 17 20  1  0  0  0  0
 20 21  1  0  0  0  0
 20 22  1  0  0  0  0
 22 23  1  0  0  0  0
 22 24  1  0  0  0  0
 22 25  1  0  0  0  0
 20 26  1  0  0  0  0
 26 27  1  0  0  0  0
 26 28  1  0  0  0  0
 26 29  1  0  0  0  0
M  END
> <VConfSearch Rank>
927

> <Conf_Id>
111

> <Delta U+W>
0.580

> <U+W>
-27.246

> <U>
24.710

> <W>
-51.957

> <W(PB)>
-54.511

> <W(SA)>
2.555

> <Valence>
3.735

> <Coulomb>
19.760

> <VdW>
1.216

> <VdW6>
-8.624

> <VdW12>
9.840

> <Bond>
0.236

> <Angle>
1.168

> <Pdih>
2.330

> <Idih>
0.000

> <Tether>
0.000

$$$$
VeraChem MOL file


 29 28  0  0  0  0  0  0  0  0999 V2000     
   19.1705   18.1995   19.2706 C   0  0  0  0  0  0  0  0  0  0  0  0
   19.3138   19.2493   18.9829 H   0  0  0  0  0  0  0  0  0  0  0  0
   20.1601   17.7439   19.4059 H   0  0  0  0  0  0  0  0  0  0  0  0
   18.6743   17.6862   18.4367 H   0  0  0  0  0  0  0  0  0  0  0  0
   18.3273   18.0876   20.5584 C   0  0  0  0  0  0  0  0  0  0  0  0
   18.1732   17.0271   20.8024 H   0  0  0  0  0  0  0  0  0  0  0  0
   17.3327   18.5202   20.3812 H   0  0  0  0  0  0  0  0  0  0  0  0
   19.0035   18.8032   21.7486 C   0  0  0  0  0  0  0  0  0  0  0  0
   19.9987   18.3683   21.9093 H   0  0  0  0  0  0  0  0  0  0  0  0
   19.1538   19.8630   21.5008 H   0  0  0  0  0  0  0  0  0  0  0  0
   18.1609   18.6881   23.0415 C   0  0  0  0  0  0  0  0  0  0  0  0
   18.0528   17.6309   23.3206 H   0  0  0  0  0  0  0  0  0  0  0  0
   17.1462   19.0594   22.8419 H   0  0  0  0  0  0  0  0  0  0  0  0
   18.7482   19.4827   24.2337 C   0  0  0  0  0  0  0  0  0  0  0  0
   18.8224   20.5423   23.9558 H   0  0  0  0  0  0  0  0  0  0  0  0
   18.0391   19.4294   25.0714 H   0  0  0  0  0  0  0  0  0  0  0  0
   20.1276   18.9549   24.7057 C   0  0  0  0  0  0  0  0  0  0  0  0
   20.8834   19.1280   23.9291 H   0  0  0  0  0  0  0  0  0  0  0  0
   20.0592   17.8674   24.8401 H   0  0  0  0  0  0  0  0  0  0  0  0
   20.6085   19.5834   26.0332 C   0  0  2  0  0  0  0  0  0  0  0  0
   19.8290   19.4329   26.7865 H   0  0  0  0  0  0  0  0  0  0  0  0
   20.8694   21.0942   25.8972 C   0  0  0  0  0  0  0  0  0  0  0  0
   21.6041   21.3007   25.1090 H   0  0  0  0  0  0  0  0  0  0  0  0
   19.9478   21.6379   25.6592 H   0  0  0  0  0  0  0  0  0  0  0  0
   21.2550   21.5059   26.8380 H   0  0  0  0  0  0  0  0  0  0  0  0
   21.8371   18.8875   26.5495 N   0  3  0  0  0  0  0  0  0  0  0  0
   21.6729   17.8862   26.6888 H   0  0  0  0  0  0  0  0  0  0  0  0
   22.1360   19.2749   27.4491 H   0  0  0  0  0  0  0  0  0  0  0  0
   22.6222   18.9832   25.8997 H   0  0  0  0  0  0  0  0  0  0  0  0
  1  2  1  0  0  0  0
  1  3  1  0  0  0  0
  1  4  1  0  0  0  0
  1  5  1  0  0  0  0
  5  6  1  0  0  0  0
  5  7  1  0  0  0  0
  5  8  1  0  0  0  0
  8  9  1  0  0  0  0
  8 10  1  0  0  0  0
  8 11  1  0  0  0  0
 11 12  1  0  0  0  0
 11 13  1  0  0  0  0
 11 14  1  0  0  0  0
 14 15  1  0  0  0  0
 14 16  1  0  0  0  0
 14 17  1  0  0  0  0
 17 18  1  0  0  0  0
 17 19  1  0  0  0  0
 17 20  1  0  0  0  0
 20 21  1  0  0  0  0
 20 22  1  0  0  0  0
 22 23  1  0  0  0  0
 22 24  1  0  0  0  0
 22 25  1  0  0  0  0
 20 26  1  0  0  0  0
 26 27  1  0  0  0  0
 26 28  1  0  0  0  0
 26 29  1  0  0  0  0
M  END
> <VConfSearch Rank>
928

> <Conf_Id>
39

> <Delta U+W>
0.965

> <U+W>
-26.861

> <U>
25.129

> <W>
-51.990

> <W(PB)>
-54.526

> <W(SA)>
2.536

> <Valence>
4.206

> <Coulomb>
19.678

> <VdW>
1.245

> <VdW6>
-8.834

> <VdW12>
10.079

> <Bond>
0.240

> <Angle>
1.353

> <Pdih>
2.613

> <Idih>
0.000

> <Tether>
0.000

$$$$
VeraChem MOL file


 29 28  0  0  0  0  0  0  0  0999 V2000     
   16.3580   19.5064   26.0399 C   0  0  0  0  0  0  0  0  0  0  0  0
   15.8253   20.0598   25.2557 H   0  0  0  0  0  0  0  0  0  0  0  0
   16.3353   18.4398   25.7849 H   0  0  0  0  0  0  0  0  0  0  0  0
   15.8007   19.6325   26.9772 H   0  0  0  0  0  0  0  0  0  0  0  0
   17.8060   20.0231   26.1988 C   0  0  0  0  0  0  0  0  0  0  0  0
   18.3286   19.4314   26.9633 H   0  0  0  0  0  0  0  0  0  0  0  0
   17.7723   21.0540   26.5782 H   0  0  0  0  0  0  0  0  0  0  0  0
   18.6162   20.0076   24.8800 C   0  0  0  0  0  0  0  0  0  0  0  0
   18.0902   20.6010   24.1197 H   0  0  0  0  0  0  0  0  0  0  0  0
   19.5713   20.5156   25.0641 H   0  0  0  0  0  0  0  0  0  0  0  0
   18.8839   18.5805   24.3376 C   0  0  0  0  0  0  0  0  0  0  0  0
   17.9272   18.0720   24.1622 H   0  0  0  0  0  0  0  0  0  0  0  0
   19.4140   17.9884   25.0962 H   0  0  0  0  0  0  0  0  0  0  0  0
   19.6839   18.5619   23.0116 C   0  0  0  0  0  0  0  0  0  0  0  0
   19.7010   17.5293   22.6394 H   0  0  0  0  0  0  0  0  0  0  0  0
   19.1453   19.1538   22.2598 H   0  0  0  0  0  0  0  0  0  0  0  0
   21.1398   19.0823   23.1605 C   0  0  0  0  0  0  0  0  0  0  0  0
   21.6281   18.5582   23.9925 H   0  0  0  0  0  0  0  0  0  0  0  0
   21.1275   20.1441   23.4354 H   0  0  0  0  0  0  0  0  0  0  0  0
   22.0184   18.9213   21.8974 C   0  0  2  0  0  0  0  0  0  0  0  0
   23.0103   19.3159   22.1389 H   0  0  0  0  0  0  0  0  0  0  0  0
   21.4725   19.7297   20.7076 C   0  0  0  0  0  0  0  0  0  0  0  0
   20.5166   19.3288   20.3499 H   0  0  0  0  0  0  0  0  0  0  0  0
   21.3225   20.7802   20.9861 H   0  0  0  0  0  0  0  0  0  0  0  0
   22.1805   19.7054   19.8701 H   0  0  0  0  0  0  0  0  0  0  0  0
   22.2251   17.4802   21.5201 N   0  3  0  0  0  0  0  0  0  0  0  0
   22.6286   16.9439   22.2936 H   0  0  0  0  0  0  0  0  0  0  0  0
   22.8593   17.3900   20.7212 H   0  0  0  0  0  0  0  0  0  0  0  0
   21.3416   17.0333   21.2627 H   0  0  0  0  0  0  0  0  0  0  0  0
  1  2  1  0  0  0  0
  1  3  1  0  0  0  0
  1  4  1  0  0  0  0
  1  5  1  0  0  0  0
  5  6  1  0  0  0  0
  5  7  1  0  0  0  0
  5  8  1  0  0  0  0
  8  9  1  0  0  0  0
  8 10  1  0  0  0  0
  8 11  1  0  0  0  0
 11 12  1  0  0  0  0
 11 13  1  0  0  0  0
 11 14  1  0  0  0  0
 14 15  1  0  0  0  0
 14 16  1  0  0  0  0
 14 17  1  0  0  0  0
 17 18  1  0  0  0  0
 17 19  1  0  0  0  0
 17 20  1  0  0  0  0
 20 21  1  0  0  0  0
 20 22  1  0  0  0  0
 22 23  1  0  0  0  0
 22 24  1  0  0  0  0
 22 25  1  0  0  0  0
 20 26  1  0  0  0  0
 26 27  1  0  0  0  0
 26 28  1  0  0  0  0
 26 29  1  0  0  0  0
M  END
> <VConfSearch Rank>
929

> <Conf_Id>
155

> <Delta U+W>
1.624

> <U+W>
-26.202

> <U>
25.894

> <W>
-52.096

> <W(PB)>
-54.602

> <W(SA)>
2.506

> <Valence>
4.779

> <Coulomb>
19.659

> <VdW>
1.456

> <VdW6>
-9.843

> <VdW12>
11.299

> <Bond>
0.315

> <Angle>
1.725

> <Pdih>
2.740

> <Idih>
0.000

> <Tether>
0.000

$$$$
VeraChem MOL file


 29 28  0  0  0  0  0  0  0  0999 V2000     
   19.6756   22.0556   20.7383 C   0  0  0  0  0  0  0  0  0  0  0  0
   20.3879   21.3246   20.3359 H   0  0  0  0  0  0  0  0  0  0  0  0
   18.6628   21.6477   20.6252 H   0  0  0  0  0  0  0  0  0  0  0  0
   19.7449   22.9595   20.1194 H   0  0  0  0  0  0  0  0  0  0  0  0
   19.9788   22.3877   22.2169 C   0  0  0  0  0  0  0  0  0  0  0  0
   19.3178   23.2041   22.5399 H   0  0  0  0  0  0  0  0  0  0  0  0
   21.0054   22.7696   22.3068 H   0  0  0  0  0  0  0  0  0  0  0  0
   19.7828   21.1829   23.1683 C   0  0  0  0  0  0  0  0  0  0  0  0
   19.9201   21.5285   24.2021 H   0  0  0  0  0  0  0  0  0  0  0  0
   18.7452   20.8329   23.0917 H   0  0  0  0  0  0  0  0  0  0  0  0
   20.7633   20.0158   22.8887 C   0  0  0  0  0  0  0  0  0  0  0  0
   21.7856   20.4150   22.8356 H   0  0  0  0  0  0  0  0  0  0  0  0
   20.5523   19.5733   21.9062 H   0  0  0  0  0  0  0  0  0  0  0  0
   20.7279   18.9040   23.9663 C   0  0  0  0  0  0  0  0  0  0  0  0
   21.5450   18.2032   23.7523 H   0  0  0  0  0  0  0  0  0  0  0  0
   20.9433   19.3396   24.9517 H   0  0  0  0  0  0  0  0  0  0  0  0
   19.3820   18.1348   24.0167 C   0  0  0  0  0  0  0  0  0  0  0  0
   19.1726   17.6894   23.0352 H   0  0  0  0  0  0  0  0  0  0  0  0
   18.5715   18.8463   24.2157 H   0  0  0  0  0  0  0  0  0  0  0  0
   19.3316   17.0390   25.1062 C   0  0  2  0  0  0  0  0  0  0  0  0
   19.6026   17.4941   26.0639 H   0  0  0  0  0  0  0  0  0  0  0  0
   20.3102   15.8857   24.8194 C   0  0  0  0  0  0  0  0  0  0  0  0
   20.1208   15.4402   23.8349 H   0  0  0  0  0  0  0  0  0  0  0  0
   21.3510   16.2275   24.8482 H   0  0  0  0  0  0  0  0  0  0  0  0
   20.2086   15.0966   25.5746 H   0  0  0  0  0  0  0  0  0  0  0  0
   17.9362   16.5041   25.2715 N   0  3  0  0  0  0  0  0  0  0  0  0
   17.2727   17.2475   25.5080 H   0  0  0  0  0  0  0  0  0  0  0  0
   17.8897   15.8055   26.0188 H   0  0  0  0  0  0  0  0  0  0  0  0
   17.6035   16.0559   24.4134 H   0  0  0  0  0  0  0  0  0  0  0  0
  1  2  1  0  0  0  0
  1  3  1  0  0  0  0
  1  4  1  0  0  0  0
  1  5  1  0  0  0  0
  5  6  1  0  0  0  0
  5  7  1  0  0  0  0
  5  8  1  0  0  0  0
  8  9  1  0  0  0  0
  8 10  1  0  0  0  0
  8 11  1  0  0  0  0
 11 12  1  0  0  0  0
 11 13  1  0  0  0  0
 11 14  1  0  0  0  0
 14 15  1  0  0  0  0
 14 16  1  0  0  0  0
 14 17  1  0  0  0  0
 17 18  1  0  0  0  0
 17 19  1  0  0  0  0
 17 20  1  0  0  0  0
 20 21  1  0  0  0  0
 20 22  1  0  0  0  0
 22 23  1  0  0  0  0
 22 24  1  0  0  0  0
 22 25  1  0  0  0  0
 20 26  1  0  0  0  0
 26 27  1  0  0  0  0
 26 28  1  0  0  0  0
 26 29  1  0  0  0  0
M  END
> <VConfSearch Rank>
930

> <Conf_Id>
135

> <Delta U+W>
1.581

> <U+W>
-26.245

> <U>
25.974

> <W>
-52.219

> <W(PB)>
-54.709

> <W(SA)>
2.490

> <Valence>
4.811

> <Coulomb>
19.700

> <VdW>
1.463

> <VdW6>
-9.391

> <VdW12>
10.854

> <Bond>
0.285

> <Angle>
1.671

> <Pdih>
2.855

> <Idih>
0.000

> <Tether>
0.000

$$$$
VeraChem MOL file


 29 28  0  0  0  0  0  0  0  0999 V2000     
   17.2562   17.7288   20.6319 C   0  0  0  0  0  0  0  0  0  0  0  0
   17.4241   18.7563   20.2838 H   0  0  0  0  0  0  0  0  0  0  0  0
   18.1638   17.1455   20.4331 H   0  0  0  0  0  0  0  0  0  0  0  0
   16.4475   17.2974   20.0279 H   0  0  0  0  0  0  0  0  0  0  0  0
   16.8835   17.7042   22.1315 C   0  0  0  0  0  0  0  0  0  0  0  0
   16.7467   16.6649   22.4613 H   0  0  0  0  0  0  0  0  0  0  0  0
   15.9112   18.1992   22.2635 H   0  0  0  0  0  0  0  0  0  0  0  0
   17.9258   18.4072   23.0339 C   0  0  0  0  0  0  0  0  0  0  0  0
   18.0314   19.4520   22.7132 H   0  0  0  0  0  0  0  0  0  0  0  0
   17.5369   18.4345   24.0611 H   0  0  0  0  0  0  0  0  0  0  0  0
   19.3084   17.7077   23.0339 C   0  0  0  0  0  0  0  0  0  0  0  0
   19.7652   17.7763   22.0378 H   0  0  0  0  0  0  0  0  0  0  0  0
   19.1687   16.6372   23.2379 H   0  0  0  0  0  0  0  0  0  0  0  0
   20.2884   18.2851   24.0844 C   0  0  0  0  0  0  0  0  0  0  0  0
   19.8462   18.1779   25.0837 H   0  0  0  0  0  0  0  0  0  0  0  0
   21.2025   17.6754   24.0815 H   0  0  0  0  0  0  0  0  0  0  0  0
   20.6670   19.7655   23.8220 C   0  0  0  0  0  0  0  0  0  0  0  0
   19.7875   20.4084   23.9540 H   0  0  0  0  0  0  0  0  0  0  0  0
   20.9752   19.8673   22.7731 H   0  0  0  0  0  0  0  0  0  0  0  0
   21.8138   20.2792   24.7218 C   0  0  2  0  0  0  0  0  0  0  0  0
   22.6692   19.6068   24.6050 H   0  0  0  0  0  0  0  0  0  0  0  0
   21.4150   20.3069   26.2082 C   0  0  0  0  0  0  0  0  0  0  0  0
   20.5219   20.9238   26.3680 H   0  0  0  0  0  0  0  0  0  0  0  0
   21.2081   19.2983   26.5842 H   0  0  0  0  0  0  0  0  0  0  0  0
   22.2275   20.7202   26.8185 H   0  0  0  0  0  0  0  0  0  0  0  0
   22.2805   21.6393   24.2827 N   0  3  0  0  0  0  0  0  0  0  0  0
   23.0667   21.9663   24.8515 H   0  0  0  0  0  0  0  0  0  0  0  0
   21.5343   22.3351   24.3641 H   0  0  0  0  0  0  0  0  0  0  0  0
   22.5919   21.6342   23.3070 H   0  0  0  0  0  0  0  0  0  0  0  0
  1  2  1  0  0  0  0
  1  3  1  0  0  0  0
  1  4  1  0  0  0  0
  1  5  1  0  0  0  0
  5  6  1  0  0  0  0
  5  7  1  0  0  0  0
  5  8  1  0  0  0  0
  8  9  1  0  0  0  0
  8 10  1  0  0  0  0
  8 11  1  0  0  0  0
 11 12  1  0  0  0  0
 11 13  1  0  0  0  0
 11 14  1  0  0  0  0
 14 15  1  0  0  0  0
 14 16  1  0  0  0  0
 14 17  1  0  0  0  0
 17 18  1  0  0  0  0
 17 19  1  0  0  0  0
 17 20  1  0  0  0  0
 20 21  1  0  0  0  0
 20 22  1  0  0  0  0
 22 23  1  0  0  0  0
 22 24  1  0  0  0  0
 22 25  1  0  0  0  0
 20 26  1  0  0  0  0
 26 27  1  0  0  0  0
 26 28  1  0  0  0  0
 26 29  1  0  0  0  0
M  END
> <VConfSearch Rank>
931

> <Conf_Id>
130

> <Delta U+W>
1.359

> <U+W>
-26.467

> <U>
25.687

> <W>
-52.154

> <W(PB)>
-54.643

> <W(SA)>
2.489

> <Valence>
4.682

> <Coulomb>
19.653

> <VdW>
1.352

> <VdW6>
-9.477

> <VdW12>
10.829

> <Bond>
0.274

> <Angle>
1.550

> <Pdih>
2.858

> <Idih>
0.000

> <Tether>
0.000

$$$$
VeraChem MOL file


 29 28  0  0  0  0  0  0  0  0999 V2000     
   17.5152   15.7282   22.8249 C   0  0  0  0  0  0  0  0  0  0  0  0
   16.5552   15.3576   22.4427 H   0  0  0  0  0  0  0  0  0  0  0  0
   18.2353   14.9008   22.7825 H   0  0  0  0  0  0  0  0  0  0  0  0
   17.3670   16.0024   23.8767 H   0  0  0  0  0  0  0  0  0  0  0  0
   18.0020   16.9321   21.9869 C   0  0  0  0  0  0  0  0  0  0  0  0
   17.2816   17.7576   22.0726 H   0  0  0  0  0  0  0  0  0  0  0  0
   18.0135   16.6430   20.9267 H   0  0  0  0  0  0  0  0  0  0  0  0
   19.4145   17.4275   22.3810 C   0  0  0  0  0  0  0  0  0  0  0  0
   20.1331   16.6031   22.2758 H   0  0  0  0  0  0  0  0  0  0  0  0
   19.7211   18.1947   21.6589 H   0  0  0  0  0  0  0  0  0  0  0  0
   19.4867   18.0009   23.8194 C   0  0  0  0  0  0  0  0  0  0  0  0
   19.2436   17.2045   24.5347 H   0  0  0  0  0  0  0  0  0  0  0  0
   18.7195   18.7740   23.9472 H   0  0  0  0  0  0  0  0  0  0  0  0
   20.8871   18.5597   24.1825 C   0  0  0  0  0  0  0  0  0  0  0  0
   20.9668   18.6719   25.2726 H   0  0  0  0  0  0  0  0  0  0  0  0
   21.6406   17.8073   23.9109 H   0  0  0  0  0  0  0  0  0  0  0  0
   21.2483   19.9070   23.4976 C   0  0  0  0  0  0  0  0  0  0  0  0
   20.7211   20.0157   22.5424 H   0  0  0  0  0  0  0  0  0  0  0  0
   22.3169   19.8779   23.2470 H   0  0  0  0  0  0  0  0  0  0  0  0
   21.0089   21.1600   24.3736 C   0  0  2  0  0  0  0  0  0  0  0  0
   21.5783   21.0416   25.3006 H   0  0  0  0  0  0  0  0  0  0  0  0
   19.5280   21.3541   24.7406 C   0  0  0  0  0  0  0  0  0  0  0  0
   19.1724   20.5413   25.3842 H   0  0  0  0  0  0  0  0  0  0  0  0
   19.3860   22.2900   25.2948 H   0  0  0  0  0  0  0  0  0  0  0  0
   18.8975   21.3900   23.8435 H   0  0  0  0  0  0  0  0  0  0  0  0
   21.5441   22.3957   23.7048 N   0  3  0  0  0  0  0  0  0  0  0  0
   22.5423   22.3077   23.4932 H   0  0  0  0  0  0  0  0  0  0  0  0
   21.4305   23.2215   24.2996 H   0  0  0  0  0  0  0  0  0  0  0  0
   21.0579   22.5844   22.8241 H   0  0  0  0  0  0  0  0  0  0  0  0
  1  2  1  0  0  0  0
  1  3  1  0  0  0  0
  1  4  1  0  0  0  0
  1  5  1  0  0  0  0
  5  6  1  0  0  0  0
  5  7  1  0  0  0  0
  5  8  1  0  0  0  0
  8  9  1  0  0  0  0
  8 10  1  0  0  0  0
  8 11  1  0  0  0  0
 11 12  1  0  0  0  0
 11 13  1  0  0  0  0
 11 14  1  0  0  0  0
 14 15  1  0  0  0  0
 14 16  1  0  0  0  0
 14 17  1  0  0  0  0
 17 18  1  0  0  0  0
 17 19  1  0  0  0  0
 17 20  1  0  0  0  0
 20 21  1  0  0  0  0
 20 22  1  0  0  0  0
 22 23  1  0  0  0  0
 22 24  1  0  0  0  0
 22 25  1  0  0  0  0
 20 26  1  0  0  0  0
 26 27  1  0  0  0  0
 26 28  1  0  0  0  0
 26 29  1  0  0  0  0
M  END
> <VConfSearch Rank>
932

> <Conf_Id>
157

> <Delta U+W>
4.354

> <U+W>
-23.472

> <U>
28.780

> <W>
-52.252

> <W(PB)>
-54.715

> <W(SA)>
2.462

> <Valence>
7.566

> <Coulomb>
19.822

> <VdW>
1.392

> <VdW6>
-10.248

> <VdW12>
11.641

> <Bond>
0.340

> <Angle>
2.096

> <Pdih>
5.129

> <Idih>
0.000

> <Tether>
0.000

$$$$
VeraChem MOL file


 29 28  0  0  0  0  0  0  0  0999 V2000     
   22.8008   21.2161   23.6573 C   0  0  0  0  0  0  0  0  0  0  0  0
   23.1950   22.1769   24.0129 H   0  0  0  0  0  0  0  0  0  0  0  0
   22.3176   20.7205   24.5066 H   0  0  0  0  0  0  0  0  0  0  0  0
   23.6550   20.5997   23.3484 H   0  0  0  0  0  0  0  0  0  0  0  0
   21.8243   21.4351   22.4782 C   0  0  0  0  0  0  0  0  0  0  0  0
   22.3721   21.9497   21.6764 H   0  0  0  0  0  0  0  0  0  0  0  0
   21.0135   22.1152   22.7744 H   0  0  0  0  0  0  0  0  0  0  0  0
   21.2413   20.1154   21.9106 C   0  0  0  0  0  0  0  0  0  0  0  0
   21.1467   20.2249   20.8213 H   0  0  0  0  0  0  0  0  0  0  0  0
   21.9501   19.2900   22.0637 H   0  0  0  0  0  0  0  0  0  0  0  0
   19.8450   19.7282   22.4624 C   0  0  0  0  0  0  0  0  0  0  0  0
   19.5146   18.8259   21.9320 H   0  0  0  0  0  0  0  0  0  0  0  0
   19.1219   20.5150   22.2072 H   0  0  0  0  0  0  0  0  0  0  0  0
   19.8116   19.4766   23.9901 C   0  0  0  0  0  0  0  0  0  0  0  0
   20.5896   18.7531   24.2672 H   0  0  0  0  0  0  0  0  0  0  0  0
   20.0562   20.4098   24.5132 H   0  0  0  0  0  0  0  0  0  0  0  0
   18.4294   18.9958   24.5023 C   0  0  0  0  0  0  0  0  0  0  0  0
   17.6832   19.7721   24.2867 H   0  0  0  0  0  0  0  0  0  0  0  0
   18.4676   18.9034   25.5958 H   0  0  0  0  0  0  0  0  0  0  0  0
   17.9528   17.6568   23.8956 C   0  0  2  0  0  0  0  0  0  0  0  0
   17.8885   17.7724   22.8098 H   0  0  0  0  0  0  0  0  0  0  0  0
   16.5534   17.2999   24.4212 C   0  0  0  0  0  0  0  0  0  0  0  0
   16.5606   17.1646   25.5100 H   0  0  0  0  0  0  0  0  0  0  0  0
   15.8332   18.0917   24.1800 H   0  0  0  0  0  0  0  0  0  0  0  0
   16.1922   16.3707   23.9636 H   0  0  0  0  0  0  0  0  0  0  0  0
   18.9185   16.5334   24.1549 N   0  3  0  0  0  0  0  0  0  0  0  0
   19.8446   16.7458   23.7738 H   0  0  0  0  0  0  0  0  0  0  0  0
   18.6012   15.6597   23.7254 H   0  0  0  0  0  0  0  0  0  0  0  0
   19.0287   16.3609   25.1576 H   0  0  0  0  0  0  0  0  0  0  0  0
  1  2  1  0  0  0  0
  1  3  1  0  0  0  0
  1  4  1  0  0  0  0
  1  5  1  0  0  0  0
  5  6  1  0  0  0  0
  5  7  1  0  0  0  0
  5  8  1  0  0  0  0
  8  9  1  0  0  0  0
  8 10  1  0  0  0  0
  8 11  1  0  0  0  0
 11 12  1  0  0  0  0
 11 13  1  0  0  0  0
 11 14  1  0  0  0  0
 14 15  1  0  0  0  0
 14 16  1  0  0  0  0
 14 17  1  0  0  0  0
 17 18  1  0  0  0  0
 17 19  1  0  0  0  0
 17 20  1  0  0  0  0
 20 21  1  0  0  0  0
 20 22  1  0  0  0  0
 22 23  1  0  0  0  0
 22 24  1  0  0  0  0
 22 25  1  0  0  0  0
 20 26  1  0  0  0  0
 26 27  1  0  0  0  0
 26 28  1  0  0  0  0
 26 29  1  0  0  0  0
M  END
> <VConfSearch Rank>
933

> <Conf_Id>
158

> <Delta U+W>
3.648

> <U+W>
-24.178

> <U>
28.057

> <W>
-52.235

> <W(PB)>
-54.696

> <W(SA)>
2.460

> <Valence>
6.543

> <Coulomb>
20.387

> <VdW>
1.127

> <VdW6>
-10.342

> <VdW12>
11.469

> <Bond>
0.308

> <Angle>
1.938

> <Pdih>
4.297

> <Idih>
0.000

> <Tether>
0.000

$$$$
VeraChem MOL file


 29 28  0  0  0  0  0  0  0  0999 V2000     
   21.0906   19.6587   20.1011 C   0  0  0  0  0  0  0  0  0  0  0  0
   22.0493   19.2247   20.4135 H   0  0  0  0  0  0  0  0  0  0  0  0
   20.2996   18.9245   20.2981 H   0  0  0  0  0  0  0  0  0  0  0  0
   21.1312   19.8160   19.0155 H   0  0  0  0  0  0  0  0  0  0  0  0
   20.8209   20.9941   20.8311 C   0  0  0  0  0  0  0  0  0  0  0  0
   19.8426   21.3912   20.5262 H   0  0  0  0  0  0  0  0  0  0  0  0
   21.5673   21.7321   20.5055 H   0  0  0  0  0  0  0  0  0  0  0  0
   20.8805   20.8754   22.3731 C   0  0  0  0  0  0  0  0  0  0  0  0
   21.8665   20.4951   22.6734 H   0  0  0  0  0  0  0  0  0  0  0  0
   20.7930   21.8823   22.8041 H   0  0  0  0  0  0  0  0  0  0  0  0
   19.7711   19.9739   22.9654 C   0  0  0  0  0  0  0  0  0  0  0  0
   19.8821   18.9533   22.5831 H   0  0  0  0  0  0  0  0  0  0  0  0
   18.7901   20.3320   22.6241 H   0  0  0  0  0  0  0  0  0  0  0  0
   19.8045   19.9686   24.5135 C   0  0  0  0  0  0  0  0  0  0  0  0
   20.8026   19.6857   24.8756 H   0  0  0  0  0  0  0  0  0  0  0  0
   19.6362   20.9968   24.8626 H   0  0  0  0  0  0  0  0  0  0  0  0
   18.7271   19.0507   25.1498 C   0  0  0  0  0  0  0  0  0  0  0  0
   17.8624   18.9567   24.4796 H   0  0  0  0  0  0  0  0  0  0  0  0
   18.3523   19.5509   26.0525 H   0  0  0  0  0  0  0  0  0  0  0  0
   19.2324   17.6496   25.5707 C   0  0  2  0  0  0  0  0  0  0  0  0
   20.0594   17.7836   26.2747 H   0  0  0  0  0  0  0  0  0  0  0  0
   19.7442   16.8164   24.3836 C   0  0  0  0  0  0  0  0  0  0  0  0
   18.9813   16.7297   23.6000 H   0  0  0  0  0  0  0  0  0  0  0  0
   20.6441   17.2653   23.9473 H   0  0  0  0  0  0  0  0  0  0  0  0
   20.0148   15.8045   24.7092 H   0  0  0  0  0  0  0  0  0  0  0  0
   18.1656   16.8938   26.3131 N   0  3  0  0  0  0  0  0  0  0  0  0
   17.8428   17.4086   27.1374 H   0  0  0  0  0  0  0  0  0  0  0  0
   18.5080   15.9845   26.6366 H   0  0  0  0  0  0  0  0  0  0  0  0
   17.3497   16.7195   25.7200 H   0  0  0  0  0  0  0  0  0  0  0  0
  1  2  1  0  0  0  0
  1  3  1  0  0  0  0
  1  4  1  0  0  0  0
  1  5  1  0  0  0  0
  5  6  1  0  0  0  0
  5  7  1  0  0  0  0
  5  8  1  0  0  0  0
  8  9  1  0  0  0  0
  8 10  1  0  0  0  0
  8 11  1  0  0  0  0
 11 12  1  0  0  0  0
 11 13  1  0  0  0  0
 11 14  1  0  0  0  0
 14 15  1  0  0  0  0
 14 16  1  0  0  0  0
 14 17  1  0  0  0  0
 17 18  1  0  0  0  0
 17 19  1  0  0  0  0
 17 20  1  0  0  0  0
 20 21  1  0  0  0  0
 20 22  1  0  0  0  0
 22 23  1  0  0  0  0
 22 24  1  0  0  0  0
 22 25  1  0  0  0  0
 20 26  1  0  0  0  0
 26 27  1  0  0  0  0
 26 28  1  0  0  0  0
 26 29  1  0  0  0  0
M  END
> <VConfSearch Rank>
934

> <Conf_Id>
156

> <Delta U+W>
3.393

> <U+W>
-24.433

> <U>
27.713

> <W>
-52.146

> <W(PB)>
-54.603

> <W(SA)>
2.458

> <Valence>
6.758

> <Coulomb>
19.720

> <VdW>
1.235

> <VdW6>
-9.782

> <VdW12>
11.017

> <Bond>
0.287

> <Angle>
1.880

> <Pdih>
4.591

> <Idih>
0.000

> <Tether>
0.000

$$$$
VeraChem MOL file


 29 28  0  0  0  0  0  0  0  0999 V2000     
   21.1451   20.1738   27.0154 C   0  0  0  0  0  0  0  0  0  0  0  0
   22.0354   20.5196   26.4742 H   0  0  0  0  0  0  0  0  0  0  0  0
   20.7798   21.0015   27.6372 H   0  0  0  0  0  0  0  0  0  0  0  0
   21.4523   19.3598   27.6848 H   0  0  0  0  0  0  0  0  0  0  0  0
   20.0540   19.6915   26.0364 C   0  0  0  0  0  0  0  0  0  0  0  0
   19.1888   19.3246   26.6060 H   0  0  0  0  0  0  0  0  0  0  0  0
   20.4425   18.8401   25.4621 H   0  0  0  0  0  0  0  0  0  0  0  0
   19.6076   20.8211   25.0788 C   0  0  0  0  0  0  0  0  0  0  0  0
   19.2957   21.6903   25.6743 H   0  0  0  0  0  0  0  0  0  0  0  0
   20.4628   21.1601   24.4797 H   0  0  0  0  0  0  0  0  0  0  0  0
   18.4319   20.4211   24.1500 C   0  0  0  0  0  0  0  0  0  0  0  0
   18.1664   21.2853   23.5255 H   0  0  0  0  0  0  0  0  0  0  0  0
   17.5470   20.2151   24.7678 H   0  0  0  0  0  0  0  0  0  0  0  0
   18.6914   19.1985   23.2320 C   0  0  0  0  0  0  0  0  0  0  0  0
   18.8377   18.3011   23.8461 H   0  0  0  0  0  0  0  0  0  0  0  0
   17.7796   19.0203   22.6478 H   0  0  0  0  0  0  0  0  0  0  0  0
   19.8952   19.3937   22.2702 C   0  0  0  0  0  0  0  0  0  0  0  0
   20.8113   19.5429   22.8546 H   0  0  0  0  0  0  0  0  0  0  0  0
   19.7514   20.3149   21.6903 H   0  0  0  0  0  0  0  0  0  0  0  0
   20.1429   18.2218   21.2913 C   0  0  2  0  0  0  0  0  0  0  0  0
   21.0420   18.4642   20.7163 H   0  0  0  0  0  0  0  0  0  0  0  0
   18.9872   18.0455   20.2908 C   0  0  0  0  0  0  0  0  0  0  0  0
   19.2536   17.3071   19.5246 H   0  0  0  0  0  0  0  0  0  0  0  0
   18.0714   17.6992   20.7839 H   0  0  0  0  0  0  0  0  0  0  0  0
   18.7668   18.9905   19.7790 H   0  0  0  0  0  0  0  0  0  0  0  0
   20.4398   16.9315   22.0045 N   0  3  0  0  0  0  0  0  0  0  0  0
   21.2390   17.0278   22.6374 H   0  0  0  0  0  0  0  0  0  0  0  0
   20.6610   16.1814   21.3434 H   0  0  0  0  0  0  0  0  0  0  0  0
   19.6390   16.6236   22.5618 H   0  0  0  0  0  0  0  0  0  0  0  0
  1  2  1  0  0  0  0
  1  3  1  0  0  0  0
  1  4  1  0  0  0  0
  1  5  1  0  0  0  0
  5  6  1  0  0  0  0
  5  7  1  0  0  0  0
  5  8  1  0  0  0  0
  8  9  1  0  0  0  0
  8 10  1  0  0  0  0
  8 11  1  0  0  0  0
 11 12  1  0  0  0  0
 11 13  1  0  0  0  0
 11 14  1  0  0  0  0
 14 15  1  0  0  0  0
 14 16  1  0  0  0  0
 14 17  1  0  0  0  0
 17 18  1  0  0  0  0
 17 19  1  0  0  0  0
 17 20  1  0  0  0  0
 20 21  1  0  0  0  0
 20 22  1  0  0  0  0
 22 23  1  0  0  0  0
 22 24  1  0  0  0  0
 22 25  1  0  0  0  0
 20 26  1  0  0  0  0
 26 27  1  0  0  0  0
 26 28  1  0  0  0  0
 26 29  1  0  0  0  0
M  END
> <VConfSearch Rank>
935

> <Conf_Id>
78

> <Delta U+W>
1.477

> <U+W>
-26.349

> <U>
26.385

> <W>
-52.734

> <W(PB)>
-55.179

> <W(SA)>
2.445

> <Valence>
4.726

> <Coulomb>
20.482

> <VdW>
1.177

> <VdW6>
-10.349

> <VdW12>
11.526

> <Bond>
0.319

> <Angle>
1.933

> <Pdih>
2.474

> <Idih>
0.000

> <Tether>
0.000

$$$$
VeraChem MOL file


 29 28  0  0  0  0  0  0  0  0999 V2000     
   16.7883   20.7293   22.1267 C   0  0  0  0  0  0  0  0  0  0  0  0
   16.4131   21.4589   22.8561 H   0  0  0  0  0  0  0  0  0  0  0  0
   17.8310   20.9815   21.9043 H   0  0  0  0  0  0  0  0  0  0  0  0
   16.2105   20.8557   21.2021 H   0  0  0  0  0  0  0  0  0  0  0  0
   16.6402   19.2868   22.6643 C   0  0  0  0  0  0  0  0  0  0  0  0
   16.9451   18.5601   21.8985 H   0  0  0  0  0  0  0  0  0  0  0  0
   15.5724   19.1020   22.8478 H   0  0  0  0  0  0  0  0  0  0  0  0
   17.4183   19.0401   23.9824 C   0  0  0  0  0  0  0  0  0  0  0  0
   17.5066   19.9752   24.5524 H   0  0  0  0  0  0  0  0  0  0  0  0
   16.8198   18.3665   24.6113 H   0  0  0  0  0  0  0  0  0  0  0  0
   18.8154   18.3918   23.8039 C   0  0  0  0  0  0  0  0  0  0  0  0
   18.7022   17.4073   23.3294 H   0  0  0  0  0  0  0  0  0  0  0  0
   19.2266   18.2045   24.8042 H   0  0  0  0  0  0  0  0  0  0  0  0
   19.8135   19.2458   22.9840 C   0  0  0  0  0  0  0  0  0  0  0  0
   19.4342   19.3584   21.9605 H   0  0  0  0  0  0  0  0  0  0  0  0
   19.8726   20.2586   23.4037 H   0  0  0  0  0  0  0  0  0  0  0  0
   21.2296   18.6195   22.8964 C   0  0  0  0  0  0  0  0  0  0  0  0
   21.8628   19.2603   22.2686 H   0  0  0  0  0  0  0  0  0  0  0  0
   21.1517   17.6594   22.3694 H   0  0  0  0  0  0  0  0  0  0  0  0
   21.9341   18.3841   24.2535 C   0  0  2  0  0  0  0  0  0  0  0  0
   21.3036   17.7299   24.8625 H   0  0  0  0  0  0  0  0  0  0  0  0
   22.1610   19.6968   25.0241 C   0  0  0  0  0  0  0  0  0  0  0  0
   22.7073   19.5084   25.9565 H   0  0  0  0  0  0  0  0  0  0  0  0
   22.7414   20.4117   24.4277 H   0  0  0  0  0  0  0  0  0  0  0  0
   21.2090   20.1678   25.2955 H   0  0  0  0  0  0  0  0  0  0  0  0
   23.2368   17.6571   24.0676 N   0  3  0  0  0  0  0  0  0  0  0  0
   23.8946   18.2060   23.5074 H   0  0  0  0  0  0  0  0  0  0  0  0
   23.1033   16.7593   23.5934 H   0  0  0  0  0  0  0  0  0  0  0  0
   23.6885   17.4631   24.9659 H   0  0  0  0  0  0  0  0  0  0  0  0
  1  2  1  0  0  0  0
  1  3  1  0  0  0  0
  1  4  1  0  0  0  0
  1  5  1  0  0  0  0
  5  6  1  0  0  0  0
  5  7  1  0  0  0  0
  5  8  1  0  0  0  0
  8  9  1  0  0  0  0
  8 10  1  0  0  0  0
  8 11  1  0  0  0  0
 11 12  1  0  0  0  0
 11 13  1  0  0  0  0
 11 14  1  0  0  0  0
 14 15  1  0  0  0  0
 14 16  1  0  0  0  0
 14 17  1  0  0  0  0
 17 18  1  0  0  0  0
 17 19  1  0  0  0  0
 17 20  1  0  0  0  0
 20 21  1  0  0  0  0
 20 22  1  0  0  0  0
 22 23  1  0  0  0  0
 22 24  1  0  0  0  0
 22 25  1  0  0  0  0
 20 26  1  0  0  0  0
 26 27  1  0  0  0  0
 26 28  1  0  0  0  0
 26 29  1  0  0  0  0
M  END
> <VConfSearch Rank>
936

> <Conf_Id>
145

> <Delta U+W>
3.784

> <U+W>
-24.042

> <U>
28.220

> <W>
-52.262

> <W(PB)>
-54.724

> <W(SA)>
2.462

> <Valence>
7.040

> <Coulomb>
19.984

> <VdW>
1.197

> <VdW6>
-10.566

> <VdW12>
11.763

> <Bond>
0.320

> <Angle>
2.280

> <Pdih>
4.439

> <Idih>
0.000

> <Tether>
0.000

$$$$
VeraChem MOL file


 29 28  0  0  0  0  0  0  0  0999 V2000     
   17.5584   20.0421   26.6560 C   0  0  0  0  0  0  0  0  0  0  0  0
   16.7017   20.7283   26.6319 H   0  0  0  0  0  0  0  0  0  0  0  0
   17.1908   19.0286   26.4490 H   0  0  0  0  0  0  0  0  0  0  0  0
   17.9684   20.0506   27.6743 H   0  0  0  0  0  0  0  0  0  0  0  0
   18.6341   20.4614   25.6319 C   0  0  0  0  0  0  0  0  0  0  0  0
   19.4916   19.7826   25.7130 H   0  0  0  0  0  0  0  0  0  0  0  0
   19.0051   21.4639   25.8869 H   0  0  0  0  0  0  0  0  0  0  0  0
   18.0751   20.4684   24.1887 C   0  0  0  0  0  0  0  0  0  0  0  0
   17.6375   19.4914   23.9416 H   0  0  0  0  0  0  0  0  0  0  0  0
   17.2471   21.1896   24.1474 H   0  0  0  0  0  0  0  0  0  0  0  0
   19.1277   20.8676   23.1218 C   0  0  0  0  0  0  0  0  0  0  0  0
   19.8897   21.5240   23.5642 H   0  0  0  0  0  0  0  0  0  0  0  0
   18.6247   21.4743   22.3561 H   0  0  0  0  0  0  0  0  0  0  0  0
   19.8057   19.6746   22.3998 C   0  0  0  0  0  0  0  0  0  0  0  0
   19.0377   19.0924   21.8736 H   0  0  0  0  0  0  0  0  0  0  0  0
   20.4655   20.0851   21.6249 H   0  0  0  0  0  0  0  0  0  0  0  0
   20.6190   18.7440   23.3387 C   0  0  0  0  0  0  0  0  0  0  0  0
   19.9374   18.2685   24.0543 H   0  0  0  0  0  0  0  0  0  0  0  0
   21.3203   19.3455   23.9319 H   0  0  0  0  0  0  0  0  0  0  0  0
   21.4066   17.6220   22.6216 C   0  0  2  0  0  0  0  0  0  0  0  0
   21.8667   17.0024   23.3976 H   0  0  0  0  0  0  0  0  0  0  0  0
   22.5404   18.1779   21.7421 C   0  0  0  0  0  0  0  0  0  0  0  0
   23.1671   17.3608   21.3642 H   0  0  0  0  0  0  0  0  0  0  0  0
   22.1526   18.7283   20.8770 H   0  0  0  0  0  0  0  0  0  0  0  0
   23.1860   18.8524   22.3181 H   0  0  0  0  0  0  0  0  0  0  0  0
   20.5118   16.7062   21.8328 N   0  3  0  0  0  0  0  0  0  0  0  0
   20.0467   17.2080   21.0722 H   0  0  0  0  0  0  0  0  0  0  0  0
   19.7830   16.2941   22.4223 H   0  0  0  0  0  0  0  0  0  0  0  0
   21.0405   15.9353   21.4148 H   0  0  0  0  0  0  0  0  0  0  0  0
  1  2  1  0  0  0  0
  1  3  1  0  0  0  0
  1  4  1  0  0  0  0
  1  5  1  0  0  0  0
  5  6  1  0  0  0  0
  5  7  1  0  0  0  0
  5  8  1  0  0  0  0
  8  9  1  0  0  0  0
  8 10  1  0  0  0  0
  8 11  1  0  0  0  0
 11 12  1  0  0  0  0
 11 13  1  0  0  0  0
 11 14  1  0  0  0  0
 14 15  1  0  0  0  0
 14 16  1  0  0  0  0
 14 17  1  0  0  0  0
 17 18  1  0  0  0  0
 17 19  1  0  0  0  0
 17 20  1  0  0  0  0
 20 21  1  0  0  0  0
 20 22  1  0  0  0  0
 22 23  1  0  0  0  0
 22 24  1  0  0  0  0
 22 25  1  0  0  0  0
 20 26  1  0  0  0  0
 26 27  1  0  0  0  0
 26 28  1  0  0  0  0
 26 29  1  0  0  0  0
M  END
> <VConfSearch Rank>
937

> <Conf_Id>
71

> <Delta U+W>
3.542

> <U+W>
-24.284

> <U>
28.217

> <W>
-52.501

> <W(PB)>
-54.947

> <W(SA)>
2.446

> <Valence>
6.821

> <Coulomb>
20.147

> <VdW>
1.249

> <VdW6>
-10.237

> <VdW12>
11.486

> <Bond>
0.317

> <Angle>
1.990

> <Pdih>
4.515

> <Idih>
0.000

> <Tether>
0.000

$$$$
VeraChem MOL file


 29 28  0  0  0  0  0  0  0  0999 V2000     
   21.8961   22.2318   22.2106 C   0  0  0  0  0  0  0  0  0  0  0  0
   21.9095   22.4606   23.2842 H   0  0  0  0  0  0  0  0  0  0  0  0
   22.9346   22.1847   21.8579 H   0  0  0  0  0  0  0  0  0  0  0  0
   21.4023   23.0653   21.6944 H   0  0  0  0  0  0  0  0  0  0  0  0
   21.1560   20.9057   21.9360 C   0  0  0  0  0  0  0  0  0  0  0  0
   21.1305   20.7233   20.8526 H   0  0  0  0  0  0  0  0  0  0  0  0
   20.1130   21.0031   22.2599 H   0  0  0  0  0  0  0  0  0  0  0  0
   21.8416   19.7132   22.6455 C   0  0  0  0  0  0  0  0  0  0  0  0
   22.8700   19.6367   22.2663 H   0  0  0  0  0  0  0  0  0  0  0  0
   21.9303   19.9075   23.7232 H   0  0  0  0  0  0  0  0  0  0  0  0
   21.1283   18.3571   22.4046 C   0  0  0  0  0  0  0  0  0  0  0  0
   21.8973   17.5760   22.3284 H   0  0  0  0  0  0  0  0  0  0  0  0
   20.6158   18.3623   21.4328 H   0  0  0  0  0  0  0  0  0  0  0  0
   20.1442   17.9335   23.5255 C   0  0  0  0  0  0  0  0  0  0  0  0
   19.7696   16.9301   23.2849 H   0  0  0  0  0  0  0  0  0  0  0  0
   20.6996   17.8367   24.4678 H   0  0  0  0  0  0  0  0  0  0  0  0
   18.9469   18.9017   23.7180 C   0  0  0  0  0  0  0  0  0  0  0  0
   18.4813   19.1011   22.7440 H   0  0  0  0  0  0  0  0  0  0  0  0
   19.3153   19.8662   24.0888 H   0  0  0  0  0  0  0  0  0  0  0  0
   17.8543   18.3982   24.6904 C   0  0  2  0  0  0  0  0  0  0  0  0
   17.0775   19.1680   24.7333 H   0  0  0  0  0  0  0  0  0  0  0  0
   18.3965   18.2031   26.1170 C   0  0  0  0  0  0  0  0  0  0  0  0
   18.8904   19.1152   26.4744 H   0  0  0  0  0  0  0  0  0  0  0  0
   17.5781   17.9743   26.8106 H   0  0  0  0  0  0  0  0  0  0  0  0
   19.1182   17.3791   26.1667 H   0  0  0  0  0  0  0  0  0  0  0  0
   17.1755   17.1503   24.1965 N   0  3  0  0  0  0  0  0  0  0  0  0
   16.7741   17.2852   23.2641 H   0  0  0  0  0  0  0  0  0  0  0  0
   16.4139   16.8672   24.8198 H   0  0  0  0  0  0  0  0  0  0  0  0
   17.8322   16.3680   24.1394 H   0  0  0  0  0  0  0  0  0  0  0  0
  1  2  1  0  0  0  0
  1  3  1  0  0  0  0
  1  4  1  0  0  0  0
  1  5  1  0  0  0  0
  5  6  1  0  0  0  0
  5  7  1  0  0  0  0
  5  8  1  0  0  0  0
  8  9  1  0  0  0  0
  8 10  1  0  0  0  0
  8 11  1  0  0  0  0
 11 12  1  0  0  0  0
 11 13  1  0  0  0  0
 11 14  1  0  0  0  0
 14 15  1  0  0  0  0
 14 16  1  0  0  0  0
 14 17  1  0  0  0  0
 17 18  1  0  0  0  0
 17 19  1  0  0  0  0
 17 20  1  0  0  0  0
 20 21  1  0  0  0  0
 20 22  1  0  0  0  0
 22 23  1  0  0  0  0
 22 24  1  0  0  0  0
 22 25  1  0  0  0  0
 20 26  1  0  0  0  0
 26 27  1  0  0  0  0
 26 28  1  0  0  0  0
 26 29  1  0  0  0  0
M  END
> <VConfSearch Rank>
938

> <Conf_Id>
163

> <Delta U+W>
3.309

> <U+W>
-24.517

> <U>
27.916

> <W>
-52.433

> <W(PB)>
-54.866

> <W(SA)>
2.433

> <Valence>
6.693

> <Coulomb>
20.015

> <VdW>
1.208

> <VdW6>
-10.294

> <VdW12>
11.503

> <Bond>
0.312

> <Angle>
1.939

> <Pdih>
4.441

> <Idih>
0.000

> <Tether>
0.000

$$$$
VeraChem MOL file


 29 28  0  0  0  0  0  0  0  0999 V2000     
   16.9615   21.8451   24.2538 C   0  0  0  0  0  0  0  0  0  0  0  0
   16.2697   21.7206   23.4106 H   0  0  0  0  0  0  0  0  0  0  0  0
   16.7344   21.0760   25.0022 H   0  0  0  0  0  0  0  0  0  0  0  0
   16.7585   22.8212   24.7131 H   0  0  0  0  0  0  0  0  0  0  0  0
   18.4314   21.7649   23.7831 C   0  0  0  0  0  0  0  0  0  0  0  0
   19.1028   21.8567   24.6483 H   0  0  0  0  0  0  0  0  0  0  0  0
   18.6422   22.6291   23.1377 H   0  0  0  0  0  0  0  0  0  0  0  0
   18.7599   20.4708   23.0000 C   0  0  0  0  0  0  0  0  0  0  0  0
   18.0892   20.3855   22.1341 H   0  0  0  0  0  0  0  0  0  0  0  0
   19.7762   20.5684   22.5973 H   0  0  0  0  0  0  0  0  0  0  0  0
   18.6656   19.1873   23.8633 C   0  0  0  0  0  0  0  0  0  0  0  0
   17.6489   19.0925   24.2658 H   0  0  0  0  0  0  0  0  0  0  0  0
   19.3287   19.2781   24.7336 H   0  0  0  0  0  0  0  0  0  0  0  0
   18.9886   17.8887   23.0792 C   0  0  0  0  0  0  0  0  0  0  0  0
   18.8423   17.0276   23.7451 H   0  0  0  0  0  0  0  0  0  0  0  0
   18.2529   17.7662   22.2724 H   0  0  0  0  0  0  0  0  0  0  0  0
   20.4139   17.8271   22.4675 C   0  0  0  0  0  0  0  0  0  0  0  0
   20.4912   18.5637   21.6576 H   0  0  0  0  0  0  0  0  0  0  0  0
   20.5558   16.8466   21.9939 H   0  0  0  0  0  0  0  0  0  0  0  0
   21.5491   18.0712   23.4860 C   0  0  2  0  0  0  0  0  0  0  0  0
   21.3941   19.0522   23.9451 H   0  0  0  0  0  0  0  0  0  0  0  0
   22.9122   18.0835   22.7767 C   0  0  0  0  0  0  0  0  0  0  0  0
   23.7189   18.2938   23.4897 H   0  0  0  0  0  0  0  0  0  0  0  0
   23.1205   17.1176   22.2998 H   0  0  0  0  0  0  0  0  0  0  0  0
   22.9414   18.8603   22.0025 H   0  0  0  0  0  0  0  0  0  0  0  0
   21.5407   17.0633   24.6022 N   0  3  0  0  0  0  0  0  0  0  0  0
   20.6463   17.0692   25.1000 H   0  0  0  0  0  0  0  0  0  0  0  0
   22.2770   17.2560   25.2873 H   0  0  0  0  0  0  0  0  0  0  0  0
   21.6908   16.1148   24.2483 H   0  0  0  0  0  0  0  0  0  0  0  0
  1  2  1  0  0  0  0
  1  3  1  0  0  0  0
  1  4  1  0  0  0  0
  1  5  1  0  0  0  0
  5  6  1  0  0  0  0
  5  7  1  0  0  0  0
  5  8  1  0  0  0  0
  8  9  1  0  0  0  0
  8 10  1  0  0  0  0
  8 11  1  0  0  0  0
 11 12  1  0  0  0  0
 11 13  1  0  0  0  0
 11 14  1  0  0  0  0
 14 15  1  0  0  0  0
 14 16  1  0  0  0  0
 14 17  1  0  0  0  0
 17 18  1  0  0  0  0
 17 19  1  0  0  0  0
 17 20  1  0  0  0  0
 20 21  1  0  0  0  0
 20 22  1  0  0  0  0
 22 23  1  0  0  0  0
 22 24  1  0  0  0  0
 22 25  1  0  0  0  0
 20 26  1  0  0  0  0
 26 27  1  0  0  0  0
 26 28  1  0  0  0  0
 26 29  1  0  0  0  0
M  END
> <VConfSearch Rank>
939

> <Conf_Id>
173

> <Delta U+W>
1.363

> <U+W>
-26.462

> <U>
25.816

> <W>
-52.279

> <W(PB)>
-54.727

> <W(SA)>
2.449

> <Valence>
4.504

> <Coulomb>
20.342

> <VdW>
0.971

> <VdW6>
-10.532

> <VdW12>
11.503

> <Bond>
0.307

> <Angle>
1.715

> <Pdih>
2.481

> <Idih>
0.000

> <Tether>
0.000

$$$$
VeraChem MOL file


 29 28  0  0  0  0  0  0  0  0999 V2000     
   23.4616   18.5126   24.6509 C   0  0  0  0  0  0  0  0  0  0  0  0
   23.4365   17.4227   24.7798 H   0  0  0  0  0  0  0  0  0  0  0  0
   24.3415   18.7653   24.0451 H   0  0  0  0  0  0  0  0  0  0  0  0
   23.5933   18.9665   25.6417 H   0  0  0  0  0  0  0  0  0  0  0  0
   22.1651   19.0220   23.9864 C   0  0  0  0  0  0  0  0  0  0  0  0
   22.2080   20.1162   23.8951 H   0  0  0  0  0  0  0  0  0  0  0  0
   21.3157   18.7832   24.6399 H   0  0  0  0  0  0  0  0  0  0  0  0
   21.9517   18.3882   22.5929 C   0  0  0  0  0  0  0  0  0  0  0  0
   22.8600   18.5337   21.9919 H   0  0  0  0  0  0  0  0  0  0  0  0
   21.8288   17.3019   22.7019 H   0  0  0  0  0  0  0  0  0  0  0  0
   20.7486   18.9655   21.8030 C   0  0  0  0  0  0  0  0  0  0  0  0
   20.7271   18.4673   20.8239 H   0  0  0  0  0  0  0  0  0  0  0  0
   20.9136   20.0303   21.5888 H   0  0  0  0  0  0  0  0  0  0  0  0
   19.3694   18.7582   22.4817 C   0  0  0  0  0  0  0  0  0  0  0  0
   18.6289   18.5574   21.6962 H   0  0  0  0  0  0  0  0  0  0  0  0
   19.4009   17.8578   23.1085 H   0  0  0  0  0  0  0  0  0  0  0  0
   18.9002   19.9934   23.2998 C   0  0  0  0  0  0  0  0  0  0  0  0
   18.8301   20.8588   22.6279 H   0  0  0  0  0  0  0  0  0  0  0  0
   19.6530   20.2617   24.0493 H   0  0  0  0  0  0  0  0  0  0  0  0
   17.5387   19.8213   24.0135 C   0  0  2  0  0  0  0  0  0  0  0  0
   17.3010   20.7756   24.4938 H   0  0  0  0  0  0  0  0  0  0  0  0
   17.5966   18.7493   25.1157 C   0  0  0  0  0  0  0  0  0  0  0  0
   18.4203   18.9498   25.8121 H   0  0  0  0  0  0  0  0  0  0  0  0
   16.6653   18.7452   25.6952 H   0  0  0  0  0  0  0  0  0  0  0  0
   17.7354   17.7447   24.6993 H   0  0  0  0  0  0  0  0  0  0  0  0
   16.4149   19.5472   23.0525 N   0  3  0  0  0  0  0  0  0  0  0  0
   16.3415   20.2807   22.3417 H   0  0  0  0  0  0  0  0  0  0  0  0
   15.5134   19.4973   23.5356 H   0  0  0  0  0  0  0  0  0  0  0  0
   16.5522   18.6581   22.5655 H   0  0  0  0  0  0  0  0  0  0  0  0
  1  2  1  0  0  0  0
  1  3  1  0  0  0  0
  1  4  1  0  0  0  0
  1  5  1  0  0  0  0
  5  6  1  0  0  0  0
  5  7  1  0  0  0  0
  5  8  1  0  0  0  0
  8  9  1  0  0  0  0
  8 10  1  0  0  0  0
  8 11  1  0  0  0  0
 11 12  1  0  0  0  0
 11 13  1  0  0  0  0
 11 14  1  0  0  0  0
 14 15  1  0  0  0  0
 14 16  1  0  0  0  0
 14 17  1  0  0  0  0
 17 18  1  0  0  0  0
 17 19  1  0  0  0  0
 17 20  1  0  0  0  0
 20 21  1  0  0  0  0
 20 22  1  0  0  0  0
 22 23  1  0  0  0  0
 22 24  1  0  0  0  0
 22 25  1  0  0  0  0
 20 26  1  0  0  0  0
 26 27  1  0  0  0  0
 26 28  1  0  0  0  0
 26 29  1  0  0  0  0
M  END
> <VConfSearch Rank>
940

> <Conf_Id>
117

> <Delta U+W>
3.377

> <U+W>
-24.449

> <U>
27.947

> <W>
-52.396

> <W(PB)>
-54.842

> <W(SA)>
2.447

> <Valence>
6.731

> <Coulomb>
20.067

> <VdW>
1.149

> <VdW6>
-10.427

> <VdW12>
11.575

> <Bond>
0.324

> <Angle>
1.943

> <Pdih>
4.465

> <Idih>
0.000

> <Tether>
0.000

$$$$
VeraChem MOL file


 29 28  0  0  0  0  0  0  0  0999 V2000     
   21.8430   15.8772   20.5987 C   0  0  0  0  0  0  0  0  0  0  0  0
   21.0763   15.1191   20.8049 H   0  0  0  0  0  0  0  0  0  0  0  0
   21.5730   16.3921   19.6674 H   0  0  0  0  0  0  0  0  0  0  0  0
   22.7953   15.3570   20.4323 H   0  0  0  0  0  0  0  0  0  0  0  0
   21.9648   16.8756   21.7692 C   0  0  0  0  0  0  0  0  0  0  0  0
   22.7613   17.6002   21.5490 H   0  0  0  0  0  0  0  0  0  0  0  0
   22.2683   16.3370   22.6778 H   0  0  0  0  0  0  0  0  0  0  0  0
   20.6368   17.6221   22.0246 C   0  0  0  0  0  0  0  0  0  0  0  0
   20.3362   18.1571   21.1131 H   0  0  0  0  0  0  0  0  0  0  0  0
   19.8433   16.8936   22.2419 H   0  0  0  0  0  0  0  0  0  0  0  0
   20.7548   18.6229   23.1961 C   0  0  0  0  0  0  0  0  0  0  0  0
   21.5495   19.3498   22.9780 H   0  0  0  0  0  0  0  0  0  0  0  0
   21.0551   18.0871   24.1073 H   0  0  0  0  0  0  0  0  0  0  0  0
   19.4262   19.3700   23.4508 C   0  0  0  0  0  0  0  0  0  0  0  0
   19.1285   19.9084   22.5402 H   0  0  0  0  0  0  0  0  0  0  0  0
   18.6362   18.6369   23.6615 H   0  0  0  0  0  0  0  0  0  0  0  0
   19.5469   20.3709   24.6256 C   0  0  0  0  0  0  0  0  0  0  0  0
   20.3768   21.0604   24.4204 H   0  0  0  0  0  0  0  0  0  0  0  0
   19.8069   19.8329   25.5469 H   0  0  0  0  0  0  0  0  0  0  0  0
   18.2602   21.1942   24.8503 C   0  0  2  0  0  0  0  0  0  0  0  0
   18.0090   21.7007   23.9133 H   0  0  0  0  0  0  0  0  0  0  0  0
   18.4915   22.2633   25.9300 C   0  0  0  0  0  0  0  0  0  0  0  0
   17.5921   22.8758   26.0689 H   0  0  0  0  0  0  0  0  0  0  0  0
   18.7456   21.8053   26.8942 H   0  0  0  0  0  0  0  0  0  0  0  0
   19.3106   22.9350   25.6444 H   0  0  0  0  0  0  0  0  0  0  0  0
   17.0800   20.3322   25.2065 N   0  3  0  0  0  0  0  0  0  0  0  0
   16.8861   19.6431   24.4749 H   0  0  0  0  0  0  0  0  0  0  0  0
   16.2320   20.8923   25.3324 H   0  0  0  0  0  0  0  0  0  0  0  0
   17.2417   19.8202   26.0779 H   0  0  0  0  0  0  0  0  0  0  0  0
  1  2  1  0  0  0  0
  1  3  1  0  0  0  0
  1  4  1  0  0  0  0
  1  5  1  0  0  0  0
  5  6  1  0  0  0  0
  5  7  1  0  0  0  0
  5  8  1  0  0  0  0
  8  9  1  0  0  0  0
  8 10  1  0  0  0  0
  8 11  1  0  0  0  0
 11 12  1  0  0  0  0
 11 13  1  0  0  0  0
 11 14  1  0  0  0  0
 14 15  1  0  0  0  0
 14 16  1  0  0  0  0
 14 17  1  0  0  0  0
 17 18  1  0  0  0  0
 17 19  1  0  0  0  0
 17 20  1  0  0  0  0
 20 21  1  0  0  0  0
 20 22  1  0  0  0  0
 22 23  1  0  0  0  0
 22 24  1  0  0  0  0
 22 25  1  0  0  0  0
 20 26  1  0  0  0  0
 26 27  1  0  0  0  0
 26 28  1  0  0  0  0
 26 29  1  0  0  0  0
M  END
> <VConfSearch Rank>
941

> <Conf_Id>
164

> <Delta U+W>
0.000

> <U+W>
-27.826

> <U>
23.963

> <W>
-51.789

> <W(PB)>
-54.342

> <W(SA)>
2.554

> <Valence>
3.166

> <Coulomb>
19.734

> <VdW>
1.062

> <VdW6>
-7.938

> <VdW12>
9.001

> <Bond>
0.188

> <Angle>
0.880

> <Pdih>
2.098

> <Idih>
0.000

> <Tether>
0.000

$$$$
VeraChem MOL file


 29 28  0  0  0  0  0  0  0  0999 V2000     
   19.0968   14.6536   21.7217 C   0  0  0  0  0  0  0  0  0  0  0  0
   20.1539   14.3607   21.7662 H   0  0  0  0  0  0  0  0  0  0  0  0
   18.6049   14.2992   22.6370 H   0  0  0  0  0  0  0  0  0  0  0  0
   18.6386   14.1342   20.8700 H   0  0  0  0  0  0  0  0  0  0  0  0
   18.9508   16.1825   21.5701 C   0  0  0  0  0  0  0  0  0  0  0  0
   17.8853   16.4413   21.4945 H   0  0  0  0  0  0  0  0  0  0  0  0
   19.4224   16.5024   20.6303 H   0  0  0  0  0  0  0  0  0  0  0  0
   19.5880   16.9383   22.7570 C   0  0  0  0  0  0  0  0  0  0  0  0
   19.1151   16.6135   23.6942 H   0  0  0  0  0  0  0  0  0  0  0  0
   20.6523   16.6748   22.8300 H   0  0  0  0  0  0  0  0  0  0  0  0
   19.4438   18.4697   22.6088 C   0  0  0  0  0  0  0  0  0  0  0  0
   18.3793   18.7325   22.5362 H   0  0  0  0  0  0  0  0  0  0  0  0
   19.9159   18.7927   21.6706 H   0  0  0  0  0  0  0  0  0  0  0  0
   20.0819   19.2255   23.7963 C   0  0  0  0  0  0  0  0  0  0  0  0
   19.6094   18.8893   24.7285 H   0  0  0  0  0  0  0  0  0  0  0  0
   21.1476   18.9665   23.8656 H   0  0  0  0  0  0  0  0  0  0  0  0
   19.9318   20.7595   23.6476 C   0  0  0  0  0  0  0  0  0  0  0  0
   18.8673   21.0289   23.6438 H   0  0  0  0  0  0  0  0  0  0  0  0
   20.3314   21.0563   22.6688 H   0  0  0  0  0  0  0  0  0  0  0  0
   20.6686   21.5664   24.7410 C   0  0  2  0  0  0  0  0  0  0  0  0
   21.7163   21.2507   24.7533 H   0  0  0  0  0  0  0  0  0  0  0  0
   20.0714   21.3289   26.1396 C   0  0  0  0  0  0  0  0  0  0  0  0
   19.0017   21.5719   26.1609 H   0  0  0  0  0  0  0  0  0  0  0  0
   20.1937   20.2860   26.4539 H   0  0  0  0  0  0  0  0  0  0  0  0
   20.5768   21.9535   26.8865 H   0  0  0  0  0  0  0  0  0  0  0  0
   20.6723   23.0353   24.4203 N   0  3  0  0  0  0  0  0  0  0  0  0
   21.1933   23.5698   25.1214 H   0  0  0  0  0  0  0  0  0  0  0  0
   19.7218   23.4142   24.3916 H   0  0  0  0  0  0  0  0  0  0  0  0
   21.1057   23.2218   23.5113 H   0  0  0  0  0  0  0  0  0  0  0  0
  1  2  1  0  0  0  0
  1  3  1  0  0  0  0
  1  4  1  0  0  0  0
  1  5  1  0  0  0  0
  5  6  1  0  0  0  0
  5  7  1  0  0  0  0
  5  8  1  0  0  0  0
  8  9  1  0  0  0  0
  8 10  1  0  0  0  0
  8 11  1  0  0  0  0
 11 12  1  0  0  0  0
 11 13  1  0  0  0  0
 11 14  1  0  0  0  0
 14 15  1  0  0  0  0
 14 16  1  0  0  0  0
 14 17  1  0  0  0  0
 17 18  1  0  0  0  0
 17 19  1  0  0  0  0
 17 20  1  0  0  0  0
 20 21  1  0  0  0  0
 20 22  1  0  0  0  0
 22 23  1  0  0  0  0
 22 24  1  0  0  0  0
 22 25  1  0  0  0  0
 20 26  1  0  0  0  0
 26 27  1  0  0  0  0
 26 28  1  0  0  0  0
 26 29  1  0  0  0  0
M  END
> <VConfSearch Rank>
942

> <Conf_Id>
58

> <Delta U+W>
0.412

> <U+W>
-27.414

> <U>
24.279

> <W>
-51.694

> <W(PB)>
-54.271

> <W(SA)>
2.577

> <Valence>
3.709

> <Coulomb>
19.380

> <VdW>
1.191

> <VdW6>
-8.093

> <VdW12>
9.284

> <Bond>
0.200

> <Angle>
1.161

> <Pdih>
2.348

> <Idih>
0.000

> <Tether>
0.000

$$$$
VeraChem MOL file


 29 28  0  0  0  0  0  0  0  0999 V2000     
   22.3386   15.2194   23.8023 C   0  0  0  0  0  0  0  0  0  0  0  0
   23.2659   15.7897   23.9441 H   0  0  0  0  0  0  0  0  0  0  0  0
   21.9348   14.9713   24.7926 H   0  0  0  0  0  0  0  0  0  0  0  0
   22.5951   14.2789   23.2976 H   0  0  0  0  0  0  0  0  0  0  0  0
   21.3153   16.0222   22.9715 C   0  0  0  0  0  0  0  0  0  0  0  0
   20.4130   15.4139   22.8177 H   0  0  0  0  0  0  0  0  0  0  0  0
   21.7338   16.2260   21.9759 H   0  0  0  0  0  0  0  0  0  0  0  0
   20.9367   17.3519   23.6603 C   0  0  0  0  0  0  0  0  0  0  0  0
   20.5209   17.1431   24.6557 H   0  0  0  0  0  0  0  0  0  0  0  0
   21.8421   17.9553   23.8140 H   0  0  0  0  0  0  0  0  0  0  0  0
   19.9124   18.1587   22.8310 C   0  0  0  0  0  0  0  0  0  0  0  0
   19.0078   17.5540   22.6774 H   0  0  0  0  0  0  0  0  0  0  0  0
   20.3290   18.3665   21.8356 H   0  0  0  0  0  0  0  0  0  0  0  0
   19.5339   19.4891   23.5202 C   0  0  0  0  0  0  0  0  0  0  0  0
   19.1198   19.2746   24.5143 H   0  0  0  0  0  0  0  0  0  0  0  0
   20.4441   20.0835   23.6736 H   0  0  0  0  0  0  0  0  0  0  0  0
   18.5084   20.2956   22.6816 C   0  0  0  0  0  0  0  0  0  0  0  0
   17.6250   19.6710   22.4944 H   0  0  0  0  0  0  0  0  0  0  0  0
   18.9382   20.5139   21.6950 H   0  0  0  0  0  0  0  0  0  0  0  0
   18.0406   21.6227   23.3244 C   0  0  2  0  0  0  0  0  0  0  0  0
   17.3041   22.0691   22.6491 H   0  0  0  0  0  0  0  0  0  0  0  0
   19.1950   22.6275   23.4831 C   0  0  0  0  0  0  0  0  0  0  0  0
   18.8127   23.6017   23.8116 H   0  0  0  0  0  0  0  0  0  0  0  0
   19.9287   22.2889   24.2242 H   0  0  0  0  0  0  0  0  0  0  0  0
   19.7143   22.7788   22.5286 H   0  0  0  0  0  0  0  0  0  0  0  0
   17.3302   21.4077   24.6323 N   0  3  0  0  0  0  0  0  0  0  0  0
   16.5326   20.7742   24.5266 H   0  0  0  0  0  0  0  0  0  0  0  0
   16.9733   22.2887   25.0134 H   0  0  0  0  0  0  0  0  0  0  0  0
   17.9562   21.0016   25.3322 H   0  0  0  0  0  0  0  0  0  0  0  0
  1  2  1  0  0  0  0
  1  3  1  0  0  0  0
  1  4  1  0  0  0  0
  1  5  1  0  0  0  0
  5  6  1  0  0  0  0
  5  7  1  0  0  0  0
  5  8  1  0  0  0  0
  8  9  1  0  0  0  0
  8 10  1  0  0  0  0
  8 11  1  0  0  0  0
 11 12  1  0  0  0  0
 11 13  1  0  0  0  0
 11 14  1  0  0  0  0
 14 15  1  0  0  0  0
 14 16  1  0  0  0  0
 14 17  1  0  0  0  0
 17 18  1  0  0  0  0
 17 19  1  0  0  0  0
 17 20  1  0  0  0  0
 20 21  1  0  0  0  0
 20 22  1  0  0  0  0
 22 23  1  0  0  0  0
 22 24  1  0  0  0  0
 22 25  1  0  0  0  0
 20 26  1  0  0  0  0
 26 27  1  0  0  0  0
 26 28  1  0  0  0  0
 26 29  1  0  0  0  0
M  END
> <VConfSearch Rank>
943

> <Conf_Id>
137

> <Delta U+W>
0.280

> <U+W>
-27.546

> <U>
24.513

> <W>
-52.059

> <W(PB)>
-54.556

> <W(SA)>
2.497

> <Valence>
3.677

> <Coulomb>
19.662

> <VdW>
1.174

> <VdW6>
-8.569

> <VdW12>
9.743

> <Bond>
0.224

> <Angle>
1.211

> <Pdih>
2.243

> <Idih>
0.000

> <Tether>
0.000

$$$$
VeraChem MOL file


 29 28  0  0  0  0  0  0  0  0999 V2000     
   22.7017   22.3990   24.3197 C   0  0  0  0  0  0  0  0  0  0  0  0
   23.2193   21.5940   24.8574 H   0  0  0  0  0  0  0  0  0  0  0  0
   23.0816   22.4219   23.2899 H   0  0  0  0  0  0  0  0  0  0  0  0
   22.9686   23.3501   24.7986 H   0  0  0  0  0  0  0  0  0  0  0  0
   21.1730   22.1878   24.3422 C   0  0  0  0  0  0  0  0  0  0  0  0
   20.6821   23.0257   23.8277 H   0  0  0  0  0  0  0  0  0  0  0  0
   20.8181   22.2024   25.3823 H   0  0  0  0  0  0  0  0  0  0  0  0
   20.7698   20.8553   23.6728 C   0  0  0  0  0  0  0  0  0  0  0  0
   21.1246   20.8467   22.6330 H   0  0  0  0  0  0  0  0  0  0  0  0
   21.2750   20.0296   24.1900 H   0  0  0  0  0  0  0  0  0  0  0  0
   19.2371   20.6411   23.6990 C   0  0  0  0  0  0  0  0  0  0  0  0
   18.7483   21.5187   23.2538 H   0  0  0  0  0  0  0  0  0  0  0  0
   18.8870   20.5886   24.7392 H   0  0  0  0  0  0  0  0  0  0  0  0
   18.7701   19.3806   22.9297 C   0  0  0  0  0  0  0  0  0  0  0  0
   17.6739   19.4046   22.8815 H   0  0  0  0  0  0  0  0  0  0  0  0
   19.1271   19.4301   21.8917 H   0  0  0  0  0  0  0  0  0  0  0  0
   19.2326   18.0505   23.5799 C   0  0  0  0  0  0  0  0  0  0  0  0
   18.8669   17.9963   24.6138 H   0  0  0  0  0  0  0  0  0  0  0  0
   20.3278   18.0417   23.6356 H   0  0  0  0  0  0  0  0  0  0  0  0
   18.7860   16.7900   22.8039 C   0  0  2  0  0  0  0  0  0  0  0  0
   19.1084   16.8951   21.7634 H   0  0  0  0  0  0  0  0  0  0  0  0
   17.2582   16.6024   22.8252 C   0  0  0  0  0  0  0  0  0  0  0  0
   16.8779   16.5604   23.8535 H   0  0  0  0  0  0  0  0  0  0  0  0
   16.7474   17.4188   22.3023 H   0  0  0  0  0  0  0  0  0  0  0  0
   16.9768   15.6699   22.3206 H   0  0  0  0  0  0  0  0  0  0  0  0
   19.4655   15.5585   23.3353 N   0  3  0  0  0  0  0  0  0  0  0  0
   20.4854   15.6407   23.2895 H   0  0  0  0  0  0  0  0  0  0  0  0
   19.2029   14.7261   22.7997 H   0  0  0  0  0  0  0  0  0  0  0  0
   19.2142   15.3848   24.3122 H   0  0  0  0  0  0  0  0  0  0  0  0
  1  2  1  0  0  0  0
  1  3  1  0  0  0  0
  1  4  1  0  0  0  0
  1  5  1  0  0  0  0
  5  6  1  0  0  0  0
  5  7  1  0  0  0  0
  5  8  1  0  0  0  0
  8  9  1  0  0  0  0
  8 10  1  0  0  0  0
  8 11  1  0  0  0  0
 11 12  1  0  0  0  0
 11 13  1  0  0  0  0
 11 14  1  0  0  0  0
 14 15  1  0  0  0  0
 14 16  1  0  0  0  0
 14 17  1  0  0  0  0
 17 18  1  0  0  0  0
 17 19  1  0  0  0  0
 17 20  1  0  0  0  0
 20 21  1  0  0  0  0
 20 22  1  0  0  0  0
 22 23  1  0  0  0  0
 22 24  1  0  0  0  0
 22 25  1  0  0  0  0
 20 26  1  0  0  0  0
 26 27  1  0  0  0  0
 26 28  1  0  0  0  0
 26 29  1  0  0  0  0
M  END
> <VConfSearch Rank>
944

> <Conf_Id>
40

> <Delta U+W>
1.128

> <U+W>
-26.698

> <U>
25.442

> <W>
-52.140

> <W(PB)>
-54.658

> <W(SA)>
2.519

> <Valence>
4.343

> <Coulomb>
19.740

> <VdW>
1.360

> <VdW6>
-8.739

> <VdW12>
10.099

> <Bond>
0.251

> <Angle>
1.483

> <Pdih>
2.608

> <Idih>
0.000

> <Tether>
0.000

$$$$
VeraChem MOL file


 29 28  0  0  0  0  0  0  0  0999 V2000     
   23.1847   16.6849   24.7234 C   0  0  0  0  0  0  0  0  0  0  0  0
   23.3378   16.7623   23.6400 H   0  0  0  0  0  0  0  0  0  0  0  0
   23.6983   17.5270   25.2051 H   0  0  0  0  0  0  0  0  0  0  0  0
   23.6704   15.7594   25.0589 H   0  0  0  0  0  0  0  0  0  0  0  0
   21.6825   16.6687   25.0866 C   0  0  0  0  0  0  0  0  0  0  0  0
   21.5824   16.4602   26.1610 H   0  0  0  0  0  0  0  0  0  0  0  0
   21.1843   15.8395   24.5651 H   0  0  0  0  0  0  0  0  0  0  0  0
   20.9555   17.9984   24.7709 C   0  0  0  0  0  0  0  0  0  0  0  0
   19.9427   17.9363   25.1885 H   0  0  0  0  0  0  0  0  0  0  0  0
   21.4574   18.8235   25.2946 H   0  0  0  0  0  0  0  0  0  0  0  0
   20.8749   18.3121   23.2550 C   0  0  0  0  0  0  0  0  0  0  0  0
   20.3680   17.4898   22.7317 H   0  0  0  0  0  0  0  0  0  0  0  0
   21.8898   18.3625   22.8403 H   0  0  0  0  0  0  0  0  0  0  0  0
   20.1629   19.6496   22.9337 C   0  0  0  0  0  0  0  0  0  0  0  0
   20.6587   20.4685   23.4730 H   0  0  0  0  0  0  0  0  0  0  0  0
   20.3002   19.8565   21.8643 H   0  0  0  0  0  0  0  0  0  0  0  0
   18.6486   19.6438   23.2675 C   0  0  0  0  0  0  0  0  0  0  0  0
   18.5133   19.4650   24.3411 H   0  0  0  0  0  0  0  0  0  0  0  0
   18.1559   18.8130   22.7452 H   0  0  0  0  0  0  0  0  0  0  0  0
   17.9478   20.9717   22.9060 C   0  0  2  0  0  0  0  0  0  0  0  0
   18.4781   21.7870   23.4076 H   0  0  0  0  0  0  0  0  0  0  0  0
   16.4943   20.9619   23.4057 C   0  0  0  0  0  0  0  0  0  0  0  0
   16.0007   21.9160   23.1831 H   0  0  0  0  0  0  0  0  0  0  0  0
   15.9166   20.1590   22.9308 H   0  0  0  0  0  0  0  0  0  0  0  0
   16.4562   20.8137   24.4922 H   0  0  0  0  0  0  0  0  0  0  0  0
   17.9940   21.2667   21.4315 N   0  3  0  0  0  0  0  0  0  0  0  0
   17.5175   20.5400   20.8908 H   0  0  0  0  0  0  0  0  0  0  0  0
   18.9576   21.3229   21.0912 H   0  0  0  0  0  0  0  0  0  0  0  0
   17.5399   22.1584   21.2142 H   0  0  0  0  0  0  0  0  0  0  0  0
  1  2  1  0  0  0  0
  1  3  1  0  0  0  0
  1  4  1  0  0  0  0
  1  5  1  0  0  0  0
  5  6  1  0  0  0  0
  5  7  1  0  0  0  0
  5  8  1  0  0  0  0
  8  9  1  0  0  0  0
  8 10  1  0  0  0  0
  8 11  1  0  0  0  0
 11 12  1  0  0  0  0
 11 13  1  0  0  0  0
 11 14  1  0  0  0  0
 14 15  1  0  0  0  0
 14 16  1  0  0  0  0
 14 17  1  0  0  0  0
 17 18  1  0  0  0  0
 17 19  1  0  0  0  0
 17 20  1  0  0  0  0
 20 21  1  0  0  0  0
 20 22  1  0  0  0  0
 22 23  1  0  0  0  0
 22 24  1  0  0  0  0
 22 25  1  0  0  0  0
 20 26  1  0  0  0  0
 26 27  1  0  0  0  0
 26 28  1  0  0  0  0
 26 29  1  0  0  0  0
M  END
> <VConfSearch Rank>
945

> <Conf_Id>
134

> <Delta U+W>
1.228

> <U+W>
-26.598

> <U>
25.451

> <W>
-52.048

> <W(PB)>
-54.539

> <W(SA)>
2.490

> <Valence>
4.319

> <Coulomb>
19.732

> <VdW>
1.400

> <VdW6>
-9.173

> <VdW12>
10.573

> <Bond>
0.281

> <Angle>
1.459

> <Pdih>
2.580

> <Idih>
0.000

> <Tether>
0.000

$$$$
VeraChem MOL file


 29 28  0  0  0  0  0  0  0  0999 V2000     
   16.3661   16.5354   24.2119 C   0  0  0  0  0  0  0  0  0  0  0  0
   16.2771   16.6545   23.1252 H   0  0  0  0  0  0  0  0  0  0  0  0
   17.0191   15.6761   24.4122 H   0  0  0  0  0  0  0  0  0  0  0  0
   15.3675   16.2955   24.5995 H   0  0  0  0  0  0  0  0  0  0  0  0
   16.9122   17.8166   24.8823 C   0  0  0  0  0  0  0  0  0  0  0  0
   16.8606   17.6927   25.9730 H   0  0  0  0  0  0  0  0  0  0  0  0
   16.2616   18.6681   24.6387 H   0  0  0  0  0  0  0  0  0  0  0  0
   18.3732   18.1447   24.4900 C   0  0  0  0  0  0  0  0  0  0  0  0
   18.7115   18.9816   25.1143 H   0  0  0  0  0  0  0  0  0  0  0  0
   19.0196   17.2915   24.7375 H   0  0  0  0  0  0  0  0  0  0  0  0
   18.5422   18.5130   22.9941 C   0  0  0  0  0  0  0  0  0  0  0  0
   17.8969   19.3672   22.7473 H   0  0  0  0  0  0  0  0  0  0  0  0
   18.1997   17.6770   22.3709 H   0  0  0  0  0  0  0  0  0  0  0  0
   20.0046   18.8354   22.5995 C   0  0  0  0  0  0  0  0  0  0  0  0
   20.6382   17.9703   22.8356 H   0  0  0  0  0  0  0  0  0  0  0  0
   20.0496   18.9658   21.5094 H   0  0  0  0  0  0  0  0  0  0  0  0
   20.5629   20.1110   23.2819 C   0  0  0  0  0  0  0  0  0  0  0  0
   20.6634   19.9484   24.3623 H   0  0  0  0  0  0  0  0  0  0  0  0
   19.8364   20.9240   23.1528 H   0  0  0  0  0  0  0  0  0  0  0  0
   21.9220   20.5731   22.7091 C   0  0  2  0  0  0  0  0  0  0  0  0
   21.8141   20.6973   21.6272 H   0  0  0  0  0  0  0  0  0  0  0  0
   23.0396   19.5481   22.9727 C   0  0  0  0  0  0  0  0  0  0  0  0
   23.1468   19.3451   24.0456 H   0  0  0  0  0  0  0  0  0  0  0  0
   22.8388   18.5994   22.4617 H   0  0  0  0  0  0  0  0  0  0  0  0
   24.0014   19.9206   22.5992 H   0  0  0  0  0  0  0  0  0  0  0  0
   22.3111   21.9193   23.2538 N   0  3  0  0  0  0  0  0  0  0  0  0
   21.5998   22.6278   23.0515 H   0  0  0  0  0  0  0  0  0  0  0  0
   23.1917   22.2471   22.8465 H   0  0  0  0  0  0  0  0  0  0  0  0
   22.4364   21.8900   24.2692 H   0  0  0  0  0  0  0  0  0  0  0  0
  1  2  1  0  0  0  0
  1  3  1  0  0  0  0
  1  4  1  0  0  0  0
  1  5  1  0  0  0  0
  5  6  1  0  0  0  0
  5  7  1  0  0  0  0
  5  8  1  0  0  0  0
  8  9  1  0  0  0  0
  8 10  1  0  0  0  0
  8 11  1  0  0  0  0
 11 12  1  0  0  0  0
 11 13  1  0  0  0  0
 11 14  1  0  0  0  0
 14 15  1  0  0  0  0
 14 16  1  0  0  0  0
 14 17  1  0  0  0  0
 17 18  1  0  0  0  0
 17 19  1  0  0  0  0
 17 20  1  0  0  0  0
 20 21  1  0  0  0  0
 20 22  1  0  0  0  0
 22 23  1  0  0  0  0
 22 24  1  0  0  0  0
 22 25  1  0  0  0  0
 20 26  1  0  0  0  0
 26 27  1  0  0  0  0
 26 28  1  0  0  0  0
 26 29  1  0  0  0  0
M  END
> <VConfSearch Rank>
946

> <Conf_Id>
73

> <Delta U+W>
1.580

> <U+W>
-26.246

> <U>
25.821

> <W>
-52.067

> <W(PB)>
-54.581

> <W(SA)>
2.514

> <Valence>
4.779

> <Coulomb>
19.614

> <VdW>
1.428

> <VdW6>
-9.390

> <VdW12>
10.818

> <Bond>
0.283

> <Angle>
1.640

> <Pdih>
2.856

> <Idih>
0.000

> <Tether>
0.000

$$$$
VeraChem MOL file


 29 28  0  0  0  0  0  0  0  0999 V2000     
   20.2824   17.1167   19.5356 C   0  0  0  0  0  0  0  0  0  0  0  0
   19.3053   16.6916   19.7995 H   0  0  0  0  0  0  0  0  0  0  0  0
   20.3373   17.1814   18.4411 H   0  0  0  0  0  0  0  0  0  0  0  0
   21.0609   16.4193   19.8715 H   0  0  0  0  0  0  0  0  0  0  0  0
   20.4724   18.5090   20.1739 C   0  0  0  0  0  0  0  0  0  0  0  0
   19.7001   19.1927   19.7944 H   0  0  0  0  0  0  0  0  0  0  0  0
   21.4423   18.9225   19.8637 H   0  0  0  0  0  0  0  0  0  0  0  0
   20.4005   18.4460   21.7157 C   0  0  0  0  0  0  0  0  0  0  0  0
   19.4318   18.0222   22.0104 H   0  0  0  0  0  0  0  0  0  0  0  0
   21.1759   17.7636   22.0902 H   0  0  0  0  0  0  0  0  0  0  0  0
   20.5861   19.8427   22.3562 C   0  0  0  0  0  0  0  0  0  0  0  0
   19.7775   20.5111   22.0297 H   0  0  0  0  0  0  0  0  0  0  0  0
   21.5203   20.2843   21.9824 H   0  0  0  0  0  0  0  0  0  0  0  0
   20.6441   19.8153   23.9035 C   0  0  0  0  0  0  0  0  0  0  0  0
   21.4550   19.1489   24.2288 H   0  0  0  0  0  0  0  0  0  0  0  0
   20.9132   20.8216   24.2501 H   0  0  0  0  0  0  0  0  0  0  0  0
   19.3116   19.3785   24.5653 C   0  0  0  0  0  0  0  0  0  0  0  0
   19.0592   18.3628   24.2370 H   0  0  0  0  0  0  0  0  0  0  0  0
   18.4964   20.0312   24.2258 H   0  0  0  0  0  0  0  0  0  0  0  0
   19.3749   19.3876   26.1083 C   0  0  2  0  0  0  0  0  0  0  0  0
   20.2158   18.7609   26.4209 H   0  0  0  0  0  0  0  0  0  0  0  0
   18.0856   18.7950   26.6993 C   0  0  0  0  0  0  0  0  0  0  0  0
   17.9311   17.7676   26.3468 H   0  0  0  0  0  0  0  0  0  0  0  0
   18.1380   18.7662   27.7947 H   0  0  0  0  0  0  0  0  0  0  0  0
   17.2085   19.3896   26.4144 H   0  0  0  0  0  0  0  0  0  0  0  0
   19.6261   20.7612   26.6681 N   0  3  0  0  0  0  0  0  0  0  0  0
   19.6820   20.7439   27.6905 H   0  0  0  0  0  0  0  0  0  0  0  0
   18.8773   21.4106   26.4128 H   0  0  0  0  0  0  0  0  0  0  0  0
   20.5057   21.1519   26.3201 H   0  0  0  0  0  0  0  0  0  0  0  0
  1  2  1  0  0  0  0
  1  3  1  0  0  0  0
  1  4  1  0  0  0  0
  1  5  1  0  0  0  0
  5  6  1  0  0  0  0
  5  7  1  0  0  0  0
  5  8  1  0  0  0  0
  8  9  1  0  0  0  0
  8 10  1  0  0  0  0
  8 11  1  0  0  0  0
 11 12  1  0  0  0  0
 11 13  1  0  0  0  0
 11 14  1  0  0  0  0
 14 15  1  0  0  0  0
 14 16  1  0  0  0  0
 14 17  1  0  0  0  0
 17 18  1  0  0  0  0
 17 19  1  0  0  0  0
 17 20  1  0  0  0  0
 20 21  1  0  0  0  0
 20 22  1  0  0  0  0
 22 23  1  0  0  0  0
 22 24  1  0  0  0  0
 22 25  1  0  0  0  0
 20 26  1  0  0  0  0
 26 27  1  0  0  0  0
 26 28  1  0  0  0  0
 26 29  1  0  0  0  0
M  END
> <VConfSearch Rank>
947

> <Conf_Id>
111

> <Delta U+W>
0.580

> <U+W>
-27.246

> <U>
24.710

> <W>
-51.957

> <W(PB)>
-54.511

> <W(SA)>
2.555

> <Valence>
3.735

> <Coulomb>
19.760

> <VdW>
1.216

> <VdW6>
-8.624

> <VdW12>
9.840

> <Bond>
0.236

> <Angle>
1.168

> <Pdih>
2.330

> <Idih>
0.000

> <Tether>
0.000

$$$$
VeraChem MOL file


 29 28  0  0  0  0  0  0  0  0999 V2000     
   15.6435   20.5007   22.7623 C   0  0  0  0  0  0  0  0  0  0  0  0
   15.2851   20.1142   23.7253 H   0  0  0  0  0  0  0  0  0  0  0  0
   16.1182   21.4746   22.9399 H   0  0  0  0  0  0  0  0  0  0  0  0
   14.7696   20.6642   22.1184 H   0  0  0  0  0  0  0  0  0  0  0  0
   16.6302   19.5149   22.1017 C   0  0  0  0  0  0  0  0  0  0  0  0
   16.9454   19.9125   21.1268 H   0  0  0  0  0  0  0  0  0  0  0  0
   16.1172   18.5630   21.9052 H   0  0  0  0  0  0  0  0  0  0  0  0
   17.8703   19.2664   22.9886 C   0  0  0  0  0  0  0  0  0  0  0  0
   18.3680   20.2251   23.1847 H   0  0  0  0  0  0  0  0  0  0  0  0
   17.5505   18.8673   23.9611 H   0  0  0  0  0  0  0  0  0  0  0  0
   18.8623   18.2811   22.3255 C   0  0  0  0  0  0  0  0  0  0  0  0
   19.2239   18.7015   21.3769 H   0  0  0  0  0  0  0  0  0  0  0  0
   18.3296   17.3550   22.0689 H   0  0  0  0  0  0  0  0  0  0  0  0
   20.0685   17.9196   23.2266 C   0  0  0  0  0  0  0  0  0  0  0  0
   19.6978   17.4714   24.1579 H   0  0  0  0  0  0  0  0  0  0  0  0
   20.6607   17.1438   22.7219 H   0  0  0  0  0  0  0  0  0  0  0  0
   20.9856   19.1293   23.5425 C   0  0  0  0  0  0  0  0  0  0  0  0
   20.4504   19.8551   24.1677 H   0  0  0  0  0  0  0  0  0  0  0  0
   21.2253   19.6420   22.6016 H   0  0  0  0  0  0  0  0  0  0  0  0
   22.3090   18.7366   24.2375 C   0  0  2  0  0  0  0  0  0  0  0  0
   22.8123   17.9871   23.6189 H   0  0  0  0  0  0  0  0  0  0  0  0
   22.0727   18.1361   25.6349 C   0  0  0  0  0  0  0  0  0  0  0  0
   21.5163   18.8308   26.2764 H   0  0  0  0  0  0  0  0  0  0  0  0
   21.5100   17.1973   25.5753 H   0  0  0  0  0  0  0  0  0  0  0  0
   23.0279   17.9111   26.1252 H   0  0  0  0  0  0  0  0  0  0  0  0
   23.2443   19.9103   24.3266 N   0  3  0  0  0  0  0  0  0  0  0  0
   23.4500   20.2996   23.4019 H   0  0  0  0  0  0  0  0  0  0  0  0
   24.1378   19.6449   24.7507 H   0  0  0  0  0  0  0  0  0  0  0  0
   22.8474   20.6626   24.8960 H   0  0  0  0  0  0  0  0  0  0  0  0
  1  2  1  0  0  0  0
  1  3  1  0  0  0  0
  1  4  1  0  0  0  0
  1  5  1  0  0  0  0
  5  6  1  0  0  0  0
  5  7  1  0  0  0  0
  5  8  1  0  0  0  0
  8  9  1  0  0  0  0
  8 10  1  0  0  0  0
  8 11  1  0  0  0  0
 11 12  1  0  0  0  0
 11 13  1  0  0  0  0
 11 14  1  0  0  0  0
 14 15  1  0  0  0  0
 14 16  1  0  0  0  0
 14 17  1  0  0  0  0
 17 18  1  0  0  0  0
 17 19  1  0  0  0  0
 17 20  1  0  0  0  0
 20 21  1  0  0  0  0
 20 22  1  0  0  0  0
 22 23  1  0  0  0  0
 22 24  1  0  0  0  0
 22 25  1  0  0  0  0
 20 26  1  0  0  0  0
 26 27  1  0  0  0  0
 26 28  1  0  0  0  0
 26 29  1  0  0  0  0
M  END
> <VConfSearch Rank>
948

> <Conf_Id>
39

> <Delta U+W>
0.965

> <U+W>
-26.861

> <U>
25.129

> <W>
-51.990

> <W(PB)>
-54.526

> <W(SA)>
2.536

> <Valence>
4.206

> <Coulomb>
19.678

> <VdW>
1.245

> <VdW6>
-8.834

> <VdW12>
10.079

> <Bond>
0.240

> <Angle>
1.353

> <Pdih>
2.613

> <Idih>
0.000

> <Tether>
0.000

$$$$
VeraChem MOL file


 29 28  0  0  0  0  0  0  0  0999 V2000     
   16.0328   17.0489   23.8501 C   0  0  0  0  0  0  0  0  0  0  0  0
   15.4945   18.0056   23.8577 H   0  0  0  0  0  0  0  0  0  0  0  0
   16.3308   16.8296   22.8175 H   0  0  0  0  0  0  0  0  0  0  0  0
   15.3299   16.2660   24.1630 H   0  0  0  0  0  0  0  0  0  0  0  0
   17.2527   17.0900   24.7984 C   0  0  0  0  0  0  0  0  0  0  0  0
   17.7943   16.1351   24.7466 H   0  0  0  0  0  0  0  0  0  0  0  0
   16.8919   17.1828   25.8323 H   0  0  0  0  0  0  0  0  0  0  0  0
   18.2237   18.2595   24.5062 C   0  0  0  0  0  0  0  0  0  0  0  0
   17.6777   19.2113   24.5600 H   0  0  0  0  0  0  0  0  0  0  0  0
   18.9724   18.2854   25.3081 H   0  0  0  0  0  0  0  0  0  0  0  0
   18.9363   18.1414   23.1348 C   0  0  0  0  0  0  0  0  0  0  0  0
   18.1849   18.1074   22.3355 H   0  0  0  0  0  0  0  0  0  0  0  0
   19.4859   17.1916   23.0827 H   0  0  0  0  0  0  0  0  0  0  0  0
   19.8994   19.3163   22.8341 C   0  0  0  0  0  0  0  0  0  0  0  0
   20.2437   19.2166   21.7965 H   0  0  0  0  0  0  0  0  0  0  0  0
   19.3407   20.2601   22.8862 H   0  0  0  0  0  0  0  0  0  0  0  0
   21.1274   19.3678   23.7839 C   0  0  0  0  0  0  0  0  0  0  0  0
   21.6084   18.3812   23.8072 H   0  0  0  0  0  0  0  0  0  0  0  0
   20.7943   19.5680   24.8097 H   0  0  0  0  0  0  0  0  0  0  0  0
   22.1938   20.4238   23.4085 C   0  0  2  0  0  0  0  0  0  0  0  0
   22.9991   20.3489   24.1459 H   0  0  0  0  0  0  0  0  0  0  0  0
   21.6355   21.8560   23.4723 C   0  0  0  0  0  0  0  0  0  0  0  0
   20.8833   22.0326   22.6942 H   0  0  0  0  0  0  0  0  0  0  0  0
   21.1736   22.0513   24.4481 H   0  0  0  0  0  0  0  0  0  0  0  0
   22.4403   22.5881   23.3327 H   0  0  0  0  0  0  0  0  0  0  0  0
   22.8275   20.1515   22.0720 N   0  3  0  0  0  0  0  0  0  0  0  0
   23.2397   19.2148   22.0359 H   0  0  0  0  0  0  0  0  0  0  0  0
   23.5738   20.8225   21.8684 H   0  0  0  0  0  0  0  0  0  0  0  0
   22.1418   20.2162   21.3157 H   0  0  0  0  0  0  0  0  0  0  0  0
  1  2  1  0  0  0  0
  1  3  1  0  0  0  0
  1  4  1  0  0  0  0
  1  5  1  0  0  0  0
  5  6  1  0  0  0  0
  5  7  1  0  0  0  0
  5  8  1  0  0  0  0
  8  9  1  0  0  0  0
  8 10  1  0  0  0  0
  8 11  1  0  0  0  0
 11 12  1  0  0  0  0
 11 13  1  0  0  0  0
 11 14  1  0  0  0  0
 14 15  1  0  0  0  0
 14 16  1  0  0  0  0
 14 17  1  0  0  0  0
 17 18  1  0  0  0  0
 17 19  1  0  0  0  0
 17 20  1  0  0  0  0
 20 21  1  0  0  0  0
 20 22  1  0  0  0  0
 22 23  1  0  0  0  0
 22 24  1  0  0  0  0
 22 25  1  0  0  0  0
 20 26  1  0  0  0  0
 26 27  1  0  0  0  0
 26 28  1  0  0  0  0
 26 29  1  0  0  0  0
M  END
> <VConfSearch Rank>
949

> <Conf_Id>
155

> <Delta U+W>
1.624

> <U+W>
-26.202

> <U>
25.894

> <W>
-52.096

> <W(PB)>
-54.602

> <W(SA)>
2.506

> <Valence>
4.779

> <Coulomb>
19.659

> <VdW>
1.456

> <VdW6>
-9.843

> <VdW12>
11.299

> <Bond>
0.315

> <Angle>
1.725

> <Pdih>
2.740

> <Idih>
0.000

> <Tether>
0.000

$$$$
VeraChem MOL file


 29 28  0  0  0  0  0  0  0  0999 V2000     
   21.3189   18.4109   27.2137 C   0  0  0  0  0  0  0  0  0  0  0  0
   21.7080   19.3986   26.9368 H   0  0  0  0  0  0  0  0  0  0  0  0
   20.2557   18.5179   27.4652 H   0  0  0  0  0  0  0  0  0  0  0  0
   21.8479   18.0898   28.1203 H   0  0  0  0  0  0  0  0  0  0  0  0
   21.5202   17.3833   26.0771 C   0  0  0  0  0  0  0  0  0  0  0  0
   21.2241   16.3894   26.4408 H   0  0  0  0  0  0  0  0  0  0  0  0
   22.5880   17.3135   25.8269 H   0  0  0  0  0  0  0  0  0  0  0  0
   20.7041   17.7104   24.8035 C   0  0  0  0  0  0  0  0  0  0  0  0
   20.8254   16.8844   24.0893 H   0  0  0  0  0  0  0  0  0  0  0  0
   19.6378   17.7450   25.0620 H   0  0  0  0  0  0  0  0  0  0  0  0
   21.1334   19.0357   24.1245 C   0  0  0  0  0  0  0  0  0  0  0  0
   22.2249   19.0339   23.9991 H   0  0  0  0  0  0  0  0  0  0  0  0
   20.8980   19.8870   24.7768 H   0  0  0  0  0  0  0  0  0  0  0  0
   20.4823   19.2616   22.7375 C   0  0  0  0  0  0  0  0  0  0  0  0
   20.9514   20.1454   22.2866 H   0  0  0  0  0  0  0  0  0  0  0  0
   20.7184   18.4151   22.0780 H   0  0  0  0  0  0  0  0  0  0  0  0
   18.9458   19.4630   22.8014 C   0  0  0  0  0  0  0  0  0  0  0  0
   18.7105   20.3164   23.4511 H   0  0  0  0  0  0  0  0  0  0  0  0
   18.4893   18.5814   23.2671 H   0  0  0  0  0  0  0  0  0  0  0  0
   18.2864   19.6657   21.4178 C   0  0  2  0  0  0  0  0  0  0  0  0
   18.5843   18.8351   20.7704 H   0  0  0  0  0  0  0  0  0  0  0  0
   18.7207   20.9839   20.7519 C   0  0  0  0  0  0  0  0  0  0  0  0
   18.5038   21.8446   21.3969 H   0  0  0  0  0  0  0  0  0  0  0  0
   19.7932   20.9842   20.5268 H   0  0  0  0  0  0  0  0  0  0  0  0
   18.1915   21.1293   19.8021 H   0  0  0  0  0  0  0  0  0  0  0  0
   16.7874   19.6069   21.5190 N   0  3  0  0  0  0  0  0  0  0  0  0
   16.4707   18.7185   21.9182 H   0  0  0  0  0  0  0  0  0  0  0  0
   16.3466   19.7017   20.5995 H   0  0  0  0  0  0  0  0  0  0  0  0
   16.4229   20.3579   22.1113 H   0  0  0  0  0  0  0  0  0  0  0  0
  1  2  1  0  0  0  0
  1  3  1  0  0  0  0
  1  4  1  0  0  0  0
  1  5  1  0  0  0  0
  5  6  1  0  0  0  0
  5  7  1  0  0  0  0
  5  8  1  0  0  0  0
  8  9  1  0  0  0  0
  8 10  1  0  0  0  0
  8 11  1  0  0  0  0
 11 12  1  0  0  0  0
 11 13  1  0  0  0  0
 11 14  1  0  0  0  0
 14 15  1  0  0  0  0
 14 16  1  0  0  0  0
 14 17  1  0  0  0  0
 17 18  1  0  0  0  0
 17 19  1  0  0  0  0
 17 20  1  0  0  0  0
 20 21  1  0  0  0  0
 20 22  1  0  0  0  0
 22 23  1  0  0  0  0
 22 24  1  0  0  0  0
 22 25  1  0  0  0  0
 20 26  1  0  0  0  0
 26 27  1  0  0  0  0
 26 28  1  0  0  0  0
 26 29  1  0  0  0  0
M  END
> <VConfSearch Rank>
950

> <Conf_Id>
135

> <Delta U+W>
1.581

> <U+W>
-26.245

> <U>
25.974

> <W>
-52.219

> <W(PB)>
-54.709

> <W(SA)>
2.490

> <Valence>
4.811

> <Coulomb>
19.700

> <VdW>
1.463

> <VdW6>
-9.391

> <VdW12>
10.854

> <Bond>
0.285

> <Angle>
1.671

> <Pdih>
2.855

> <Idih>
0.000

> <Tether>
0.000

$$$$
VeraChem MOL file


 29 28  0  0  0  0  0  0  0  0999 V2000     
   16.1476   17.3886   24.2714 C   0  0  0  0  0  0  0  0  0  0  0  0
   16.8297   16.6708   24.7452 H   0  0  0  0  0  0  0  0  0  0  0  0
   16.0890   18.2799   24.9085 H   0  0  0  0  0  0  0  0  0  0  0  0
   15.1482   16.9353   24.2451 H   0  0  0  0  0  0  0  0  0  0  0  0
   16.6187   17.7428   22.8428 C   0  0  0  0  0  0  0  0  0  0  0  0
   15.9353   18.4814   22.4008 H   0  0  0  0  0  0  0  0  0  0  0  0
   16.5493   16.8445   22.2135 H   0  0  0  0  0  0  0  0  0  0  0  0
   18.0707   18.2757   22.7905 C   0  0  0  0  0  0  0  0  0  0  0  0
   18.7463   17.5173   23.2075 H   0  0  0  0  0  0  0  0  0  0  0  0
   18.3580   18.4040   21.7379 H   0  0  0  0  0  0  0  0  0  0  0  0
   18.2572   19.6220   23.5345 C   0  0  0  0  0  0  0  0  0  0  0  0
   18.0887   19.4841   24.6107 H   0  0  0  0  0  0  0  0  0  0  0  0
   17.4926   20.3315   23.1893 H   0  0  0  0  0  0  0  0  0  0  0  0
   19.6523   20.2565   23.3148 C   0  0  0  0  0  0  0  0  0  0  0  0
   19.8015   20.4307   22.2410 H   0  0  0  0  0  0  0  0  0  0  0  0
   19.6663   21.2445   23.7954 H   0  0  0  0  0  0  0  0  0  0  0  0
   20.8125   19.4004   23.8848 C   0  0  0  0  0  0  0  0  0  0  0  0
   20.8988   18.4613   23.3234 H   0  0  0  0  0  0  0  0  0  0  0  0
   20.5692   19.1258   24.9196 H   0  0  0  0  0  0  0  0  0  0  0  0
   22.1773   20.1257   23.8782 C   0  0  2  0  0  0  0  0  0  0  0  0
   22.0639   21.0751   24.4104 H   0  0  0  0  0  0  0  0  0  0  0  0
   22.6676   20.4232   22.4498 C   0  0  0  0  0  0  0  0  0  0  0  0
   22.7405   19.5037   21.8557 H   0  0  0  0  0  0  0  0  0  0  0  0
   21.9922   21.1142   21.9324 H   0  0  0  0  0  0  0  0  0  0  0  0
   23.6584   20.8935   22.4716 H   0  0  0  0  0  0  0  0  0  0  0  0
   23.2138   19.3387   24.6309 N   0  3  0  0  0  0  0  0  0  0  0  0
   24.1092   19.8344   24.6629 H   0  0  0  0  0  0  0  0  0  0  0  0
   23.3836   18.4291   24.1933 H   0  0  0  0  0  0  0  0  0  0  0  0
   22.9267   19.1660   25.5988 H   0  0  0  0  0  0  0  0  0  0  0  0
  1  2  1  0  0  0  0
  1  3  1  0  0  0  0
  1  4  1  0  0  0  0
  1  5  1  0  0  0  0
  5  6  1  0  0  0  0
  5  7  1  0  0  0  0
  5  8  1  0  0  0  0
  8  9  1  0  0  0  0
  8 10  1  0  0  0  0
  8 11  1  0  0  0  0
 11 12  1  0  0  0  0
 11 13  1  0  0  0  0
 11 14  1  0  0  0  0
 14 15  1  0  0  0  0
 14 16  1  0  0  0  0
 14 17  1  0  0  0  0
 17 18  1  0  0  0  0
 17 19  1  0  0  0  0
 17 20  1  0  0  0  0
 20 21  1  0  0  0  0
 20 22  1  0  0  0  0
 22 23  1  0  0  0  0
 22 24  1  0  0  0  0
 22 25  1  0  0  0  0
 20 26  1  0  0  0  0
 26 27  1  0  0  0  0
 26 28  1  0  0  0  0
 26 29  1  0  0  0  0
M  END
> <VConfSearch Rank>
951

> <Conf_Id>
130

> <Delta U+W>
1.359

> <U+W>
-26.467

> <U>
25.687

> <W>
-52.154

> <W(PB)>
-54.643

> <W(SA)>
2.489

> <Valence>
4.682

> <Coulomb>
19.653

> <VdW>
1.352

> <VdW6>
-9.477

> <VdW12>
10.829

> <Bond>
0.274

> <Angle>
1.550

> <Pdih>
2.858

> <Idih>
0.000

> <Tether>
0.000

$$$$
VeraChem MOL file


 29 28  0  0  0  0  0  0  0  0999 V2000     
   17.7505   17.4322   26.6452 C   0  0  0  0  0  0  0  0  0  0  0  0
   16.7571   17.2523   27.0762 H   0  0  0  0  0  0  0  0  0  0  0  0
   18.4424   16.6984   27.0785 H   0  0  0  0  0  0  0  0  0  0  0  0
   18.0692   18.4337   26.9594 H   0  0  0  0  0  0  0  0  0  0  0  0
   17.7019   17.3084   25.1054 C   0  0  0  0  0  0  0  0  0  0  0  0
   17.0294   18.0740   24.6940 H   0  0  0  0  0  0  0  0  0  0  0  0
   17.2592   16.3374   24.8429 H   0  0  0  0  0  0  0  0  0  0  0  0
   19.0920   17.4173   24.4332 C   0  0  0  0  0  0  0  0  0  0  0  0
   19.7540   16.6380   24.8352 H   0  0  0  0  0  0  0  0  0  0  0  0
   18.9730   17.1967   23.3650 H   0  0  0  0  0  0  0  0  0  0  0  0
   19.7550   18.8071   24.6122 C   0  0  0  0  0  0  0  0  0  0  0  0
   19.9299   18.9851   25.6812 H   0  0  0  0  0  0  0  0  0  0  0  0
   19.0644   19.5909   24.2786 H   0  0  0  0  0  0  0  0  0  0  0  0
   21.1150   18.9319   23.8771 C   0  0  0  0  0  0  0  0  0  0  0  0
   21.6674   19.7964   24.2705 H   0  0  0  0  0  0  0  0  0  0  0  0
   21.7267   18.0550   24.1306 H   0  0  0  0  0  0  0  0  0  0  0  0
   21.0114   19.0462   22.3309 C   0  0  0  0  0  0  0  0  0  0  0  0
   20.1030   18.5560   21.9608 H   0  0  0  0  0  0  0  0  0  0  0  0
   21.8504   18.4858   21.8979 H   0  0  0  0  0  0  0  0  0  0  0  0
   21.0856   20.4923   21.7849 C   0  0  2  0  0  0  0  0  0  0  0  0
   22.0195   20.9417   22.1363 H   0  0  0  0  0  0  0  0  0  0  0  0
   19.9185   21.3701   22.2673 C   0  0  0  0  0  0  0  0  0  0  0  0
   19.9625   21.5217   23.3520 H   0  0  0  0  0  0  0  0  0  0  0  0
   19.9616   22.3620   21.8009 H   0  0  0  0  0  0  0  0  0  0  0  0
   18.9509   20.9175   22.0173 H   0  0  0  0  0  0  0  0  0  0  0  0
   21.1536   20.4988   20.2830 N   0  3  0  0  0  0  0  0  0  0  0  0
   21.9526   19.9583   19.9392 H   0  0  0  0  0  0  0  0  0  0  0  0
   21.2497   21.4504   19.9173 H   0  0  0  0  0  0  0  0  0  0  0  0
   20.3085   20.0963   19.8689 H   0  0  0  0  0  0  0  0  0  0  0  0
  1  2  1  0  0  0  0
  1  3  1  0  0  0  0
  1  4  1  0  0  0  0
  1  5  1  0  0  0  0
  5  6  1  0  0  0  0
  5  7  1  0  0  0  0
  5  8  1  0  0  0  0
  8  9  1  0  0  0  0
  8 10  1  0  0  0  0
  8 11  1  0  0  0  0
 11 12  1  0  0  0  0
 11 13  1  0  0  0  0
 11 14  1  0  0  0  0
 14 15  1  0  0  0  0
 14 16  1  0  0  0  0
 14 17  1  0  0  0  0
 17 18  1  0  0  0  0
 17 19  1  0  0  0  0
 17 20  1  0  0  0  0
 20 21  1  0  0  0  0
 20 22  1  0  0  0  0
 22 23  1  0  0  0  0
 22 24  1  0  0  0  0
 22 25  1  0  0  0  0
 20 26  1  0  0  0  0
 26 27  1  0  0  0  0
 26 28  1  0  0  0  0
 26 29  1  0  0  0  0
M  END
> <VConfSearch Rank>
952

> <Conf_Id>
157

> <Delta U+W>
4.354

> <U+W>
-23.472

> <U>
28.780

> <W>
-52.252

> <W(PB)>
-54.715

> <W(SA)>
2.462

> <Valence>
7.566

> <Coulomb>
19.822

> <VdW>
1.392

> <VdW6>
-10.248

> <VdW12>
11.641

> <Bond>
0.340

> <Angle>
2.096

> <Pdih>
5.129

> <Idih>
0.000

> <Tether>
0.000

$$$$
VeraChem MOL file


 29 28  0  0  0  0  0  0  0  0999 V2000     
   21.0957   17.7734   26.7059 C   0  0  0  0  0  0  0  0  0  0  0  0
   22.0220   17.4416   27.1925 H   0  0  0  0  0  0  0  0  0  0  0  0
   21.2748   18.7744   26.2982 H   0  0  0  0  0  0  0  0  0  0  0  0
   20.3241   17.8584   27.4820 H   0  0  0  0  0  0  0  0  0  0  0  0
   20.6688   16.7669   25.6122 C   0  0  0  0  0  0  0  0  0  0  0  0
   20.5257   15.7878   26.0906 H   0  0  0  0  0  0  0  0  0  0  0  0
   21.4778   16.6303   24.8812 H   0  0  0  0  0  0  0  0  0  0  0  0
   19.3533   17.1626   24.8933 C   0  0  0  0  0  0  0  0  0  0  0  0
   18.7919   16.2428   24.6783 H   0  0  0  0  0  0  0  0  0  0  0  0
   18.7132   17.7481   25.5675 H   0  0  0  0  0  0  0  0  0  0  0  0
   19.5440   17.9158   23.5515 C   0  0  0  0  0  0  0  0  0  0  0  0
   18.5506   18.0703   23.1110 H   0  0  0  0  0  0  0  0  0  0  0  0
   20.0936   17.2743   22.8491 H   0  0  0  0  0  0  0  0  0  0  0  0
   20.2733   19.2756   23.6828 C   0  0  0  0  0  0  0  0  0  0  0  0
   19.7804   19.8924   24.4458 H   0  0  0  0  0  0  0  0  0  0  0  0
   21.2965   19.1013   24.0392 H   0  0  0  0  0  0  0  0  0  0  0  0
   20.3646   20.0542   22.3450 C   0  0  0  0  0  0  0  0  0  0  0  0
   20.9326   19.4516   21.6237 H   0  0  0  0  0  0  0  0  0  0  0  0
   20.9486   20.9702   22.5056 H   0  0  0  0  0  0  0  0  0  0  0  0
   18.9980   20.4247   21.7260 C   0  0  2  0  0  0  0  0  0  0  0  0
   18.4400   19.5022   21.5419 H   0  0  0  0  0  0  0  0  0  0  0  0
   19.1971   21.1389   20.3799 C   0  0  0  0  0  0  0  0  0  0  0  0
   19.7480   22.0793   20.5066 H   0  0  0  0  0  0  0  0  0  0  0  0
   19.7588   20.5052   19.6822 H   0  0  0  0  0  0  0  0  0  0  0  0
   18.2301   21.3691   19.9158 H   0  0  0  0  0  0  0  0  0  0  0  0
   18.1575   21.2617   22.6506 N   0  3  0  0  0  0  0  0  0  0  0  0
   17.9869   20.7776   23.5363 H   0  0  0  0  0  0  0  0  0  0  0  0
   17.2462   21.4775   22.2365 H   0  0  0  0  0  0  0  0  0  0  0  0
   18.6151   22.1512   22.8673 H   0  0  0  0  0  0  0  0  0  0  0  0
  1  2  1  0  0  0  0
  1  3  1  0  0  0  0
  1  4  1  0  0  0  0
  1  5  1  0  0  0  0
  5  6  1  0  0  0  0
  5  7  1  0  0  0  0
  5  8  1  0  0  0  0
  8  9  1  0  0  0  0
  8 10  1  0  0  0  0
  8 11  1  0  0  0  0
 11 12  1  0  0  0  0
 11 13  1  0  0  0  0
 11 14  1  0  0  0  0
 14 15  1  0  0  0  0
 14 16  1  0  0  0  0
 14 17  1  0  0  0  0
 17 18  1  0  0  0  0
 17 19  1  0  0  0  0
 17 20  1  0  0  0  0
 20 21  1  0  0  0  0
 20 22  1  0  0  0  0
 22 23  1  0  0  0  0
 22 24  1  0  0  0  0
 22 25  1  0  0  0  0
 20 26  1  0  0  0  0
 26 27  1  0  0  0  0
 26 28  1  0  0  0  0
 26 29  1  0  0  0  0
M  END
> <VConfSearch Rank>
953

> <Conf_Id>
158

> <Delta U+W>
3.648

> <U+W>
-24.178

> <U>
28.057

> <W>
-52.235

> <W(PB)>
-54.696

> <W(SA)>
2.460

> <Valence>
6.543

> <Coulomb>
20.387

> <VdW>
1.127

> <VdW6>
-10.342

> <VdW12>
11.469

> <Bond>
0.308

> <Angle>
1.938

> <Pdih>
4.297

> <Idih>
0.000

> <Tether>
0.000

$$$$
VeraChem MOL file


 29 28  0  0  0  0  0  0  0  0999 V2000     
   20.5916   19.2305   19.9028 C   0  0  0  0  0  0  0  0  0  0  0  0
   19.5970   19.6679   19.7461 H   0  0  0  0  0  0  0  0  0  0  0  0
   21.1204   19.8359   20.6493 H   0  0  0  0  0  0  0  0  0  0  0  0
   21.1466   19.3121   18.9593 H   0  0  0  0  0  0  0  0  0  0  0  0
   20.4857   17.7523   20.3414 C   0  0  0  0  0  0  0  0  0  0  0  0
   21.4912   17.3475   20.5229 H   0  0  0  0  0  0  0  0  0  0  0  0
   20.0636   17.1668   19.5127 H   0  0  0  0  0  0  0  0  0  0  0  0
   19.6032   17.5442   21.5957 C   0  0  0  0  0  0  0  0  0  0  0  0
   18.5943   17.9343   21.4025 H   0  0  0  0  0  0  0  0  0  0  0  0
   19.4897   16.4649   21.7673 H   0  0  0  0  0  0  0  0  0  0  0  0
   20.1810   18.2011   22.8720 C   0  0  0  0  0  0  0  0  0  0  0  0
   20.2478   19.2853   22.7307 H   0  0  0  0  0  0  0  0  0  0  0  0
   21.2065   17.8418   23.0340 H   0  0  0  0  0  0  0  0  0  0  0  0
   19.3221   17.8793   24.1196 C   0  0  0  0  0  0  0  0  0  0  0  0
   18.2742   18.1624   23.9486 H   0  0  0  0  0  0  0  0  0  0  0  0
   19.3217   16.7898   24.2626 H   0  0  0  0  0  0  0  0  0  0  0  0
   19.8486   18.5454   25.4185 C   0  0  0  0  0  0  0  0  0  0  0  0
   20.9329   18.7061   25.3520 H   0  0  0  0  0  0  0  0  0  0  0  0
   19.7022   17.8343   26.2422 H   0  0  0  0  0  0  0  0  0  0  0  0
   19.1357   19.8625   25.8092 C   0  0  2  0  0  0  0  0  0  0  0  0
   18.0669   19.6523   25.9145 H   0  0  0  0  0  0  0  0  0  0  0  0
   19.3047   20.9699   24.7555 C   0  0  0  0  0  0  0  0  0  0  0  0
   20.3642   21.1564   24.5406 H   0  0  0  0  0  0  0  0  0  0  0  0
   18.8000   20.7026   23.8199 H   0  0  0  0  0  0  0  0  0  0  0  0
   18.8577   21.9085   25.1055 H   0  0  0  0  0  0  0  0  0  0  0  0
   19.6035   20.3491   27.1527 N   0  3  0  0  0  0  0  0  0  0  0  0
   19.4559   19.6449   27.8814 H   0  0  0  0  0  0  0  0  0  0  0  0
   19.1016   21.1943   27.4397 H   0  0  0  0  0  0  0  0  0  0  0  0
   20.6017   20.5757   27.1413 H   0  0  0  0  0  0  0  0  0  0  0  0
  1  2  1  0  0  0  0
  1  3  1  0  0  0  0
  1  4  1  0  0  0  0
  1  5  1  0  0  0  0
  5  6  1  0  0  0  0
  5  7  1  0  0  0  0
  5  8  1  0  0  0  0
  8  9  1  0  0  0  0
  8 10  1  0  0  0  0
  8 11  1  0  0  0  0
 11 12  1  0  0  0  0
 11 13  1  0  0  0  0
 11 14  1  0  0  0  0
 14 15  1  0  0  0  0
 14 16  1  0  0  0  0
 14 17  1  0  0  0  0
 17 18  1  0  0  0  0
 17 19  1  0  0  0  0
 17 20  1  0  0  0  0
 20 21  1  0  0  0  0
 20 22  1  0  0  0  0
 22 23  1  0  0  0  0
 22 24  1  0  0  0  0
 22 25  1  0  0  0  0
 20 26  1  0  0  0  0
 26 27  1  0  0  0  0
 26 28  1  0  0  0  0
 26 29  1  0  0  0  0
M  END
> <VConfSearch Rank>
954

> <Conf_Id>
156

> <Delta U+W>
3.393

> <U+W>
-24.433

> <U>
27.713

> <W>
-52.146

> <W(PB)>
-54.603

> <W(SA)>
2.458

> <Valence>
6.758

> <Coulomb>
19.720

> <VdW>
1.235

> <VdW6>
-9.782

> <VdW12>
11.017

> <Bond>
0.287

> <Angle>
1.880

> <Pdih>
4.591

> <Idih>
0.000

> <Tether>
0.000

$$$$
VeraChem MOL file


 29 28  0  0  0  0  0  0  0  0999 V2000     
   19.4470   16.5144   20.6756 C   0  0  0  0  0  0  0  0  0  0  0  0
   18.7999   17.2426   20.1695 H   0  0  0  0  0  0  0  0  0  0  0  0
   20.2472   16.2270   19.9811 H   0  0  0  0  0  0  0  0  0  0  0  0
   18.8471   15.6198   20.8871 H   0  0  0  0  0  0  0  0  0  0  0  0
   20.0279   17.1015   21.9793 C   0  0  0  0  0  0  0  0  0  0  0  0
   20.6461   16.3420   22.4780 H   0  0  0  0  0  0  0  0  0  0  0  0
   19.2012   17.3388   22.6619 H   0  0  0  0  0  0  0  0  0  0  0  0
   20.8744   18.3671   21.7071 C   0  0  0  0  0  0  0  0  0  0  0  0
   21.6469   18.1258   20.9639 H   0  0  0  0  0  0  0  0  0  0  0  0
   20.2474   19.1416   21.2465 H   0  0  0  0  0  0  0  0  0  0  0  0
   21.5748   18.9308   22.9706 C   0  0  0  0  0  0  0  0  0  0  0  0
   22.1693   19.8085   22.6820 H   0  0  0  0  0  0  0  0  0  0  0  0
   22.2965   18.1876   23.3367 H   0  0  0  0  0  0  0  0  0  0  0  0
   20.6326   19.3238   24.1380 C   0  0  0  0  0  0  0  0  0  0  0  0
   20.1221   18.4295   24.5165 H   0  0  0  0  0  0  0  0  0  0  0  0
   21.2577   19.6879   24.9633 H   0  0  0  0  0  0  0  0  0  0  0  0
   19.5943   20.4129   23.7528 C   0  0  0  0  0  0  0  0  0  0  0  0
   18.9509   20.0378   22.9475 H   0  0  0  0  0  0  0  0  0  0  0  0
   20.1185   21.2854   23.3413 H   0  0  0  0  0  0  0  0  0  0  0  0
   18.6810   20.8800   24.9107 C   0  0  2  0  0  0  0  0  0  0  0  0
   17.9704   21.5998   24.4928 H   0  0  0  0  0  0  0  0  0  0  0  0
   19.4694   21.5985   26.0196 C   0  0  0  0  0  0  0  0  0  0  0  0
   18.7830   22.0417   26.7515 H   0  0  0  0  0  0  0  0  0  0  0  0
   20.1329   20.9114   26.5578 H   0  0  0  0  0  0  0  0  0  0  0  0
   20.0788   22.4096   25.6021 H   0  0  0  0  0  0  0  0  0  0  0  0
   17.8541   19.7589   25.4772 N   0  3  0  0  0  0  0  0  0  0  0  0
   17.2893   19.3061   24.7529 H   0  0  0  0  0  0  0  0  0  0  0  0
   17.2121   20.0965   26.2001 H   0  0  0  0  0  0  0  0  0  0  0  0
   18.4456   19.0408   25.9026 H   0  0  0  0  0  0  0  0  0  0  0  0
  1  2  1  0  0  0  0
  1  3  1  0  0  0  0
  1  4  1  0  0  0  0
  1  5  1  0  0  0  0
  5  6  1  0  0  0  0
  5  7  1  0  0  0  0
  5  8  1  0  0  0  0
  8  9  1  0  0  0  0
  8 10  1  0  0  0  0
  8 11  1  0  0  0  0
 11 12  1  0  0  0  0
 11 13  1  0  0  0  0
 11 14  1  0  0  0  0
 14 15  1  0  0  0  0
 14 16  1  0  0  0  0
 14 17  1  0  0  0  0
 17 18  1  0  0  0  0
 17 19  1  0  0  0  0
 17 20  1  0  0  0  0
 20 21  1  0  0  0  0
 20 22  1  0  0  0  0
 22 23  1  0  0  0  0
 22 24  1  0  0  0  0
 22 25  1  0  0  0  0
 20 26  1  0  0  0  0
 26 27  1  0  0  0  0
 26 28  1  0  0  0  0
 26 29  1  0  0  0  0
M  END
> <VConfSearch Rank>
955

> <Conf_Id>
78

> <Delta U+W>
1.477

> <U+W>
-26.349

> <U>
26.385

> <W>
-52.734

> <W(PB)>
-55.179

> <W(SA)>
2.445

> <Valence>
4.726

> <Coulomb>
20.482

> <VdW>
1.177

> <VdW6>
-10.349

> <VdW12>
11.526

> <Bond>
0.319

> <Angle>
1.933

> <Pdih>
2.474

> <Idih>
0.000

> <Tether>
0.000

$$$$
VeraChem MOL file


 29 28  0  0  0  0  0  0  0  0999 V2000     
   17.2081   16.6982   22.2933 C   0  0  0  0  0  0  0  0  0  0  0  0
   17.3686   15.7173   22.7592 H   0  0  0  0  0  0  0  0  0  0  0  0
   17.0829   17.4349   23.0945 H   0  0  0  0  0  0  0  0  0  0  0  0
   16.2647   16.6506   21.7342 H   0  0  0  0  0  0  0  0  0  0  0  0
   18.3789   17.0579   21.3492 C   0  0  0  0  0  0  0  0  0  0  0  0
   18.1736   18.0034   20.8283 H   0  0  0  0  0  0  0  0  0  0  0  0
   18.4319   16.2876   20.5670 H   0  0  0  0  0  0  0  0  0  0  0  0
   19.7499   17.1257   22.0699 C   0  0  0  0  0  0  0  0  0  0  0  0
   19.7559   16.4542   22.9395 H   0  0  0  0  0  0  0  0  0  0  0  0
   20.5147   16.7310   21.3868 H   0  0  0  0  0  0  0  0  0  0  0  0
   20.1945   18.5493   22.4940 C   0  0  0  0  0  0  0  0  0  0  0  0
   20.2893   19.1825   21.6011 H   0  0  0  0  0  0  0  0  0  0  0  0
   21.2021   18.4706   22.9223 H   0  0  0  0  0  0  0  0  0  0  0  0
   19.2499   19.2344   23.5119 C   0  0  0  0  0  0  0  0  0  0  0  0
   18.2677   19.3847   23.0463 H   0  0  0  0  0  0  0  0  0  0  0  0
   19.0848   18.5738   24.3730 H   0  0  0  0  0  0  0  0  0  0  0  0
   19.7624   20.6181   23.9897 C   0  0  0  0  0  0  0  0  0  0  0  0
   19.0219   21.0540   24.6734 H   0  0  0  0  0  0  0  0  0  0  0  0
   19.8072   21.2895   23.1221 H   0  0  0  0  0  0  0  0  0  0  0  0
   21.1466   20.6084   24.6809 C   0  0  2  0  0  0  0  0  0  0  0  0
   21.8788   20.1900   23.9843 H   0  0  0  0  0  0  0  0  0  0  0  0
   21.1492   19.7545   25.9612 C   0  0  0  0  0  0  0  0  0  0  0  0
   22.1254   19.8064   26.4587 H   0  0  0  0  0  0  0  0  0  0  0  0
   20.3866   20.1001   26.6702 H   0  0  0  0  0  0  0  0  0  0  0  0
   20.9561   18.6993   25.7353 H   0  0  0  0  0  0  0  0  0  0  0  0
   21.6085   22.0062   24.9858 N   0  3  0  0  0  0  0  0  0  0  0  0
   20.9767   22.4740   25.6413 H   0  0  0  0  0  0  0  0  0  0  0  0
   21.6548   22.5811   24.1396 H   0  0  0  0  0  0  0  0  0  0  0  0
   22.5419   22.0082   25.4071 H   0  0  0  0  0  0  0  0  0  0  0  0
  1  2  1  0  0  0  0
  1  3  1  0  0  0  0
  1  4  1  0  0  0  0
  1  5  1  0  0  0  0
  5  6  1  0  0  0  0
  5  7  1  0  0  0  0
  5  8  1  0  0  0  0
  8  9  1  0  0  0  0
  8 10  1  0  0  0  0
  8 11  1  0  0  0  0
 11 12  1  0  0  0  0
 11 13  1  0  0  0  0
 11 14  1  0  0  0  0
 14 15  1  0  0  0  0
 14 16  1  0  0  0  0
 14 17  1  0  0  0  0
 17 18  1  0  0  0  0
 17 19  1  0  0  0  0
 17 20  1  0  0  0  0
 20 21  1  0  0  0  0
 20 22  1  0  0  0  0
 22 23  1  0  0  0  0
 22 24  1  0  0  0  0
 22 25  1  0  0  0  0
 20 26  1  0  0  0  0
 26 27  1  0  0  0  0
 26 28  1  0  0  0  0
 26 29  1  0  0  0  0
M  END
> <VConfSearch Rank>
956

> <Conf_Id>
145

> <Delta U+W>
3.784

> <U+W>
-24.042

> <U>
28.220

> <W>
-52.262

> <W(PB)>
-54.724

> <W(SA)>
2.462

> <Valence>
7.040

> <Coulomb>
19.984

> <VdW>
1.197

> <VdW6>
-10.566

> <VdW12>
11.763

> <Bond>
0.320

> <Angle>
2.280

> <Pdih>
4.439

> <Idih>
0.000

> <Tether>
0.000

$$$$
VeraChem MOL file


 29 28  0  0  0  0  0  0  0  0999 V2000     
   22.7623   20.7070   21.4339 C   0  0  0  0  0  0  0  0  0  0  0  0
   23.8172   20.6713   21.7355 H   0  0  0  0  0  0  0  0  0  0  0  0
   22.5511   19.8199   20.8225 H   0  0  0  0  0  0  0  0  0  0  0  0
   22.6224   21.5933   20.8015 H   0  0  0  0  0  0  0  0  0  0  0  0
   21.8345   20.7646   22.6658 C   0  0  0  0  0  0  0  0  0  0  0  0
   20.7939   20.8432   22.3288 H   0  0  0  0  0  0  0  0  0  0  0  0
   22.0472   21.6794   23.2364 H   0  0  0  0  0  0  0  0  0  0  0  0
   22.0229   19.5296   23.5794 C   0  0  0  0  0  0  0  0  0  0  0  0
   21.8809   18.6029   23.0066 H   0  0  0  0  0  0  0  0  0  0  0  0
   23.0666   19.5157   23.9228 H   0  0  0  0  0  0  0  0  0  0  0  0
   21.0966   19.5360   24.8234 C   0  0  0  0  0  0  0  0  0  0  0  0
   20.8479   20.5675   25.1089 H   0  0  0  0  0  0  0  0  0  0  0  0
   21.6607   19.1234   25.6714 H   0  0  0  0  0  0  0  0  0  0  0  0
   19.8012   18.6973   24.6733 C   0  0  0  0  0  0  0  0  0  0  0  0
   20.0734   17.6484   24.4959 H   0  0  0  0  0  0  0  0  0  0  0  0
   19.2755   18.7203   25.6363 H   0  0  0  0  0  0  0  0  0  0  0  0
   18.8524   19.1911   23.5486 C   0  0  0  0  0  0  0  0  0  0  0  0
   19.3537   19.0810   22.5794 H   0  0  0  0  0  0  0  0  0  0  0  0
   18.6601   20.2644   23.6775 H   0  0  0  0  0  0  0  0  0  0  0  0
   17.4981   18.4479   23.4654 C   0  0  2  0  0  0  0  0  0  0  0  0
   16.9667   18.8397   22.5926 H   0  0  0  0  0  0  0  0  0  0  0  0
   16.6153   18.7078   24.6987 C   0  0  0  0  0  0  0  0  0  0  0  0
   15.6129   18.2892   24.5466 H   0  0  0  0  0  0  0  0  0  0  0  0
   17.0338   18.2511   25.6031 H   0  0  0  0  0  0  0  0  0  0  0  0
   16.5019   19.7843   24.8774 H   0  0  0  0  0  0  0  0  0  0  0  0
   17.6663   16.9731   23.2238 N   0  3  0  0  0  0  0  0  0  0  0  0
   18.1490   16.5226   24.0053 H   0  0  0  0  0  0  0  0  0  0  0  0
   18.2126   16.7914   22.3770 H   0  0  0  0  0  0  0  0  0  0  0  0
   16.7616   16.5069   23.1111 H   0  0  0  0  0  0  0  0  0  0  0  0
  1  2  1  0  0  0  0
  1  3  1  0  0  0  0
  1  4  1  0  0  0  0
  1  5  1  0  0  0  0
  5  6  1  0  0  0  0
  5  7  1  0  0  0  0
  5  8  1  0  0  0  0
  8  9  1  0  0  0  0
  8 10  1  0  0  0  0
  8 11  1  0  0  0  0
 11 12  1  0  0  0  0
 11 13  1  0  0  0  0
 11 14  1  0  0  0  0
 14 15  1  0  0  0  0
 14 16  1  0  0  0  0
 14 17  1  0  0  0  0
 17 18  1  0  0  0  0
 17 19  1  0  0  0  0
 17 20  1  0  0  0  0
 20 21  1  0  0  0  0
 20 22  1  0  0  0  0
 22 23  1  0  0  0  0
 22 24  1  0  0  0  0
 22 25  1  0  0  0  0
 20 26  1  0  0  0  0
 26 27  1  0  0  0  0
 26 28  1  0  0  0  0
 26 29  1  0  0  0  0
M  END
> <VConfSearch Rank>
957

> <Conf_Id>
71

> <Delta U+W>
3.542

> <U+W>
-24.284

> <U>
28.217

> <W>
-52.501

> <W(PB)>
-54.947

> <W(SA)>
2.446

> <Valence>
6.821

> <Coulomb>
20.147

> <VdW>
1.249

> <VdW6>
-10.237

> <VdW12>
11.486

> <Bond>
0.317

> <Angle>
1.990

> <Pdih>
4.515

> <Idih>
0.000

> <Tether>
0.000

$$$$
VeraChem MOL file


 29 28  0  0  0  0  0  0  0  0999 V2000     
   18.7962   19.8284   19.7760 C   0  0  0  0  0  0  0  0  0  0  0  0
   17.8455   20.0767   20.2656 H   0  0  0  0  0  0  0  0  0  0  0  0
   19.1201   20.7018   19.1950 H   0  0  0  0  0  0  0  0  0  0  0  0
   18.6087   19.0066   19.0728 H   0  0  0  0  0  0  0  0  0  0  0  0
   19.8649   19.4247   20.8136 C   0  0  0  0  0  0  0  0  0  0  0  0
   20.7915   19.1500   20.2904 H   0  0  0  0  0  0  0  0  0  0  0  0
   19.5286   18.5257   21.3438 H   0  0  0  0  0  0  0  0  0  0  0  0
   20.1542   20.5732   21.8099 C   0  0  0  0  0  0  0  0  0  0  0  0
   20.5171   21.4377   21.2370 H   0  0  0  0  0  0  0  0  0  0  0  0
   19.2257   20.9014   22.2970 H   0  0  0  0  0  0  0  0  0  0  0  0
   21.2186   20.2114   22.8785 C   0  0  0  0  0  0  0  0  0  0  0  0
   21.8196   21.1093   23.0789 H   0  0  0  0  0  0  0  0  0  0  0  0
   21.9227   19.4681   22.4801 H   0  0  0  0  0  0  0  0  0  0  0  0
   20.6397   19.7271   24.2330 C   0  0  0  0  0  0  0  0  0  0  0  0
   21.4781   19.5836   24.9269 H   0  0  0  0  0  0  0  0  0  0  0  0
   20.0199   20.5264   24.6605 H   0  0  0  0  0  0  0  0  0  0  0  0
   19.8148   18.4162   24.1380 C   0  0  0  0  0  0  0  0  0  0  0  0
   20.3921   17.6635   23.5855 H   0  0  0  0  0  0  0  0  0  0  0  0
   18.9054   18.6005   23.5528 H   0  0  0  0  0  0  0  0  0  0  0  0
   19.3965   17.8120   25.4992 C   0  0  2  0  0  0  0  0  0  0  0  0
   18.8276   16.9009   25.2894 H   0  0  0  0  0  0  0  0  0  0  0  0
   18.4821   18.7595   26.2949 C   0  0  0  0  0  0  0  0  0  0  0  0
   17.6213   19.0699   25.6896 H   0  0  0  0  0  0  0  0  0  0  0  0
   18.0955   18.2576   27.1903 H   0  0  0  0  0  0  0  0  0  0  0  0
   19.0167   19.6601   26.6199 H   0  0  0  0  0  0  0  0  0  0  0  0
   20.5777   17.3831   26.3255 N   0  3  0  0  0  0  0  0  0  0  0  0
   21.1691   16.7184   25.8184 H   0  0  0  0  0  0  0  0  0  0  0  0
   20.2813   16.9287   27.1940 H   0  0  0  0  0  0  0  0  0  0  0  0
   21.1620   18.1828   26.5814 H   0  0  0  0  0  0  0  0  0  0  0  0
  1  2  1  0  0  0  0
  1  3  1  0  0  0  0
  1  4  1  0  0  0  0
  1  5  1  0  0  0  0
  5  6  1  0  0  0  0
  5  7  1  0  0  0  0
  5  8  1  0  0  0  0
  8  9  1  0  0  0  0
  8 10  1  0  0  0  0
  8 11  1  0  0  0  0
 11 12  1  0  0  0  0
 11 13  1  0  0  0  0
 11 14  1  0  0  0  0
 14 15  1  0  0  0  0
 14 16  1  0  0  0  0
 14 17  1  0  0  0  0
 17 18  1  0  0  0  0
 17 19  1  0  0  0  0
 17 20  1  0  0  0  0
 20 21  1  0  0  0  0
 20 22  1  0  0  0  0
 22 23  1  0  0  0  0
 22 24  1  0  0  0  0
 22 25  1  0  0  0  0
 20 26  1  0  0  0  0
 26 27  1  0  0  0  0
 26 28  1  0  0  0  0
 26 29  1  0  0  0  0
M  END
> <VConfSearch Rank>
958

> <Conf_Id>
163

> <Delta U+W>
3.309

> <U+W>
-24.517

> <U>
27.916

> <W>
-52.433

> <W(PB)>
-54.866

> <W(SA)>
2.433

> <Valence>
6.693

> <Coulomb>
20.015

> <VdW>
1.208

> <VdW6>
-10.294

> <VdW12>
11.503

> <Bond>
0.312

> <Angle>
1.939

> <Pdih>
4.441

> <Idih>
0.000

> <Tether>
0.000

$$$$
VeraChem MOL file


 29 28  0  0  0  0  0  0  0  0999 V2000     
   17.9964   17.7865   20.2455 C   0  0  0  0  0  0  0  0  0  0  0  0
   16.9354   17.9923   20.4371 H   0  0  0  0  0  0  0  0  0  0  0  0
   18.4626   18.7045   19.8672 H   0  0  0  0  0  0  0  0  0  0  0  0
   18.0536   17.0354   19.4470 H   0  0  0  0  0  0  0  0  0  0  0  0
   18.7022   17.2734   21.5212 C   0  0  0  0  0  0  0  0  0  0  0  0
   19.7687   17.1086   21.3134 H   0  0  0  0  0  0  0  0  0  0  0  0
   18.2850   16.2912   21.7837 H   0  0  0  0  0  0  0  0  0  0  0  0
   18.5453   18.2186   22.7368 C   0  0  0  0  0  0  0  0  0  0  0  0
   17.4779   18.3771   22.9432 H   0  0  0  0  0  0  0  0  0  0  0  0
   18.9594   17.7092   23.6165 H   0  0  0  0  0  0  0  0  0  0  0  0
   19.2507   19.5857   22.5498 C   0  0  0  0  0  0  0  0  0  0  0  0
   18.8358   20.0926   21.6691 H   0  0  0  0  0  0  0  0  0  0  0  0
   20.3151   19.4255   22.3337 H   0  0  0  0  0  0  0  0  0  0  0  0
   19.0898   20.5367   23.7644 C   0  0  0  0  0  0  0  0  0  0  0  0
   19.5660   21.4974   23.5271 H   0  0  0  0  0  0  0  0  0  0  0  0
   18.0234   20.7621   23.9028 H   0  0  0  0  0  0  0  0  0  0  0  0
   19.6627   19.9973   25.1024 C   0  0  0  0  0  0  0  0  0  0  0  0
   19.0527   19.1501   25.4408 H   0  0  0  0  0  0  0  0  0  0  0  0
   19.5533   20.7709   25.8740 H   0  0  0  0  0  0  0  0  0  0  0  0
   21.1418   19.5591   25.0248 C   0  0  2  0  0  0  0  0  0  0  0  0
   21.2318   18.7870   24.2549 H   0  0  0  0  0  0  0  0  0  0  0  0
   21.5932   18.9560   26.3641 C   0  0  0  0  0  0  0  0  0  0  0  0
   22.6320   18.6088   26.3030 H   0  0  0  0  0  0  0  0  0  0  0  0
   21.5260   19.6929   27.1743 H   0  0  0  0  0  0  0  0  0  0  0  0
   20.9696   18.0943   26.6332 H   0  0  0  0  0  0  0  0  0  0  0  0
   22.0502   20.6864   24.6174 N   0  3  0  0  0  0  0  0  0  0  0  0
   21.7750   21.0750   23.7112 H   0  0  0  0  0  0  0  0  0  0  0  0
   23.0224   20.3748   24.5377 H   0  0  0  0  0  0  0  0  0  0  0  0
   22.0267   21.4486   25.3000 H   0  0  0  0  0  0  0  0  0  0  0  0
  1  2  1  0  0  0  0
  1  3  1  0  0  0  0
  1  4  1  0  0  0  0
  1  5  1  0  0  0  0
  5  6  1  0  0  0  0
  5  7  1  0  0  0  0
  5  8  1  0  0  0  0
  8  9  1  0  0  0  0
  8 10  1  0  0  0  0
  8 11  1  0  0  0  0
 11 12  1  0  0  0  0
 11 13  1  0  0  0  0
 11 14  1  0  0  0  0
 14 15  1  0  0  0  0
 14 16  1  0  0  0  0
 14 17  1  0  0  0  0
 17 18  1  0  0  0  0
 17 19  1  0  0  0  0
 17 20  1  0  0  0  0
 20 21  1  0  0  0  0
 20 22  1  0  0  0  0
 22 23  1  0  0  0  0
 22 24  1  0  0  0  0
 22 25  1  0  0  0  0
 20 26  1  0  0  0  0
 26 27  1  0  0  0  0
 26 28  1  0  0  0  0
 26 29  1  0  0  0  0
M  END
> <VConfSearch Rank>
959

> <Conf_Id>
173

> <Delta U+W>
1.363

> <U+W>
-26.462

> <U>
25.816

> <W>
-52.279

> <W(PB)>
-54.727

> <W(SA)>
2.449

> <Valence>
4.504

> <Coulomb>
20.342

> <VdW>
0.971

> <VdW6>
-10.532

> <VdW12>
11.503

> <Bond>
0.307

> <Angle>
1.715

> <Pdih>
2.481

> <Idih>
0.000

> <Tether>
0.000

$$$$
VeraChem MOL file


 29 28  0  0  0  0  0  0  0  0999 V2000     
   17.8694   22.3805   23.7704 C   0  0  0  0  0  0  0  0  0  0  0  0
   18.7064   23.0711   23.6039 H   0  0  0  0  0  0  0  0  0  0  0  0
   17.0476   22.6717   23.1032 H   0  0  0  0  0  0  0  0  0  0  0  0
   17.5255   22.5107   24.8047 H   0  0  0  0  0  0  0  0  0  0  0  0
   18.2979   20.9194   23.5186 C   0  0  0  0  0  0  0  0  0  0  0  0
   17.4490   20.2510   23.7186 H   0  0  0  0  0  0  0  0  0  0  0  0
   19.0930   20.6569   24.2289 H   0  0  0  0  0  0  0  0  0  0  0  0
   18.7968   20.7132   22.0702 C   0  0  0  0  0  0  0  0  0  0  0  0
   18.0363   21.0922   21.3736 H   0  0  0  0  0  0  0  0  0  0  0  0
   19.6946   21.3245   21.9038 H   0  0  0  0  0  0  0  0  0  0  0  0
   19.1027   19.2386   21.7009 C   0  0  0  0  0  0  0  0  0  0  0  0
   19.4072   19.2192   20.6453 H   0  0  0  0  0  0  0  0  0  0  0  0
   18.1844   18.6378   21.7542 H   0  0  0  0  0  0  0  0  0  0  0  0
   20.2283   18.5810   22.5413 C   0  0  0  0  0  0  0  0  0  0  0  0
   20.8053   17.9197   21.8815 H   0  0  0  0  0  0  0  0  0  0  0  0
   20.9275   19.3536   22.8859 H   0  0  0  0  0  0  0  0  0  0  0  0
   19.6890   17.7425   23.7334 C   0  0  0  0  0  0  0  0  0  0  0  0
   19.0378   16.9491   23.3439 H   0  0  0  0  0  0  0  0  0  0  0  0
   19.0507   18.3599   24.3751 H   0  0  0  0  0  0  0  0  0  0  0  0
   20.7795   17.0871   24.6131 C   0  0  2  0  0  0  0  0  0  0  0  0
   20.2677   16.4818   25.3676 H   0  0  0  0  0  0  0  0  0  0  0  0
   21.6276   18.1342   25.3561 C   0  0  0  0  0  0  0  0  0  0  0  0
   20.9882   18.8278   25.9163 H   0  0  0  0  0  0  0  0  0  0  0  0
   22.2966   17.6452   26.0748 H   0  0  0  0  0  0  0  0  0  0  0  0
   22.2478   18.7189   24.6667 H   0  0  0  0  0  0  0  0  0  0  0  0
   21.6513   16.1377   23.8385 N   0  3  0  0  0  0  0  0  0  0  0  0
   21.0971   15.4105   23.3773 H   0  0  0  0  0  0  0  0  0  0  0  0
   22.3267   15.6678   24.4481 H   0  0  0  0  0  0  0  0  0  0  0  0
   22.1810   16.6283   23.1137 H   0  0  0  0  0  0  0  0  0  0  0  0
  1  2  1  0  0  0  0
  1  3  1  0  0  0  0
  1  4  1  0  0  0  0
  1  5  1  0  0  0  0
  5  6  1  0  0  0  0
  5  7  1  0  0  0  0
  5  8  1  0  0  0  0
  8  9  1  0  0  0  0
  8 10  1  0  0  0  0
  8 11  1  0  0  0  0
 11 12  1  0  0  0  0
 11 13  1  0  0  0  0
 11 14  1  0  0  0  0
 14 15  1  0  0  0  0
 14 16  1  0  0  0  0
 14 17  1  0  0  0  0
 17 18  1  0  0  0  0
 17 19  1  0  0  0  0
 17 20  1  0  0  0  0
 20 21  1  0  0  0  0
 20 22  1  0  0  0  0
 22 23  1  0  0  0  0
 22 24  1  0  0  0  0
 22 25  1  0  0  0  0
 20 26  1  0  0  0  0
 26 27  1  0  0  0  0
 26 28  1  0  0  0  0
 26 29  1  0  0  0  0
M  END
> <VConfSearch Rank>
960

> <Conf_Id>
117

> <Delta U+W>
3.377

> <U+W>
-24.449

> <U>
27.947

> <W>
-52.396

> <W(PB)>
-54.842

> <W(SA)>
2.447

> <Valence>
6.731

> <Coulomb>
20.067

> <VdW>
1.149

> <VdW6>
-10.427

> <VdW12>
11.575

> <Bond>
0.324

> <Angle>
1.943

> <Pdih>
4.465

> <Idih>
0.000

> <Tether>
0.000

$$$$
VeraChem MOL file


 29 28  0  0  0  0  0  0  0  0999 V2000     
   17.4801   14.9504   22.6959 C   0  0  0  0  0  0  0  0  0  0  0  0
   17.1001   14.8915   23.7242 H   0  0  0  0  0  0  0  0  0  0  0  0
   16.6952   15.3888   22.0658 H   0  0  0  0  0  0  0  0  0  0  0  0
   17.6617   13.9264   22.3445 H   0  0  0  0  0  0  0  0  0  0  0  0
   18.7755   15.7867   22.6303 C   0  0  0  0  0  0  0  0  0  0  0  0
   19.1495   15.7993   21.5969 H   0  0  0  0  0  0  0  0  0  0  0  0
   19.5513   15.3059   23.2426 H   0  0  0  0  0  0  0  0  0  0  0  0
   18.5473   17.2339   23.1199 C   0  0  0  0  0  0  0  0  0  0  0  0
   17.7695   17.7096   22.5065 H   0  0  0  0  0  0  0  0  0  0  0  0
   18.1714   17.2160   24.1523 H   0  0  0  0  0  0  0  0  0  0  0  0
   19.8424   18.0745   23.0557 C   0  0  0  0  0  0  0  0  0  0  0  0
   20.2178   18.0903   22.0231 H   0  0  0  0  0  0  0  0  0  0  0  0
   20.6195   17.5983   23.6695 H   0  0  0  0  0  0  0  0  0  0  0  0
   19.6134   19.5224   23.5448 C   0  0  0  0  0  0  0  0  0  0  0  0
   18.8387   19.9991   22.9282 H   0  0  0  0  0  0  0  0  0  0  0  0
   19.2324   19.4980   24.5745 H   0  0  0  0  0  0  0  0  0  0  0  0
   20.9125   20.3619   23.4806 C   0  0  0  0  0  0  0  0  0  0  0  0
   21.3062   20.3285   22.4559 H   0  0  0  0  0  0  0  0  0  0  0  0
   21.6785   19.9110   24.1256 H   0  0  0  0  0  0  0  0  0  0  0  0
   20.6972   21.8369   23.8830 C   0  0  2  0  0  0  0  0  0  0  0  0
   19.9143   22.2562   23.2435 H   0  0  0  0  0  0  0  0  0  0  0  0
   21.9858   22.6449   23.6613 C   0  0  0  0  0  0  0  0  0  0  0  0
   21.8293   23.7016   23.9107 H   0  0  0  0  0  0  0  0  0  0  0  0
   22.8051   22.2642   24.2839 H   0  0  0  0  0  0  0  0  0  0  0  0
   22.3020   22.5942   22.6119 H   0  0  0  0  0  0  0  0  0  0  0  0
   20.2214   21.9829   25.3026 N   0  3  0  0  0  0  0  0  0  0  0  0
   19.3395   21.4859   25.4541 H   0  0  0  0  0  0  0  0  0  0  0  0
   20.0653   22.9653   25.5456 H   0  0  0  0  0  0  0  0  0  0  0  0
   20.9051   21.6078   25.9655 H   0  0  0  0  0  0  0  0  0  0  0  0
  1  2  1  0  0  0  0
  1  3  1  0  0  0  0
  1  4  1  0  0  0  0
  1  5  1  0  0  0  0
  5  6  1  0  0  0  0
  5  7  1  0  0  0  0
  5  8  1  0  0  0  0
  8  9  1  0  0  0  0
  8 10  1  0  0  0  0
  8 11  1  0  0  0  0
 11 12  1  0  0  0  0
 11 13  1  0  0  0  0
 11 14  1  0  0  0  0
 14 15  1  0  0  0  0
 14 16  1  0  0  0  0
 14 17  1  0  0  0  0
 17 18  1  0  0  0  0
 17 19  1  0  0  0  0
 17 20  1  0  0  0  0
 20 21  1  0  0  0  0
 20 22  1  0  0  0  0
 22 23  1  0  0  0  0
 22 24  1  0  0  0  0
 22 25  1  0  0  0  0
 20 26  1  0  0  0  0
 26 27  1  0  0  0  0
 26 28  1  0  0  0  0
 26 29  1  0  0  0  0
M  END
> <VConfSearch Rank>
961

> <Conf_Id>
164

> <Delta U+W>
0.000

> <U+W>
-27.826

> <U>
23.963

> <W>
-51.789

> <W(PB)>
-54.342

> <W(SA)>
2.554

> <Valence>
3.166

> <Coulomb>
19.734

> <VdW>
1.062

> <VdW6>
-7.938

> <VdW12>
9.001

> <Bond>
0.188

> <Angle>
0.880

> <Pdih>
2.098

> <Idih>
0.000

> <Tether>
0.000

$$$$
VeraChem MOL file


 29 28  0  0  0  0  0  0  0  0999 V2000     
   18.8791   19.1982   18.7541 C   0  0  0  0  0  0  0  0  0  0  0  0
   18.1387   18.3883   18.7871 H   0  0  0  0  0  0  0  0  0  0  0  0
   18.3431   20.1543   18.8173 H   0  0  0  0  0  0  0  0  0  0  0  0
   19.3808   19.1569   17.7787 H   0  0  0  0  0  0  0  0  0  0  0  0
   19.9036   19.0601   19.9001 C   0  0  0  0  0  0  0  0  0  0  0  0
   20.6495   19.8634   19.8211 H   0  0  0  0  0  0  0  0  0  0  0  0
   20.4468   18.1110   19.7911 H   0  0  0  0  0  0  0  0  0  0  0  0
   19.2227   19.1152   21.2855 C   0  0  0  0  0  0  0  0  0  0  0  0
   18.6791   20.0645   21.3888 H   0  0  0  0  0  0  0  0  0  0  0  0
   18.4765   18.3119   21.3590 H   0  0  0  0  0  0  0  0  0  0  0  0
   20.2455   18.9772   22.4357 C   0  0  0  0  0  0  0  0  0  0  0  0
   20.9912   19.7810   22.3618 H   0  0  0  0  0  0  0  0  0  0  0  0
   20.7892   18.0281   22.3302 H   0  0  0  0  0  0  0  0  0  0  0  0
   19.5638   19.0318   23.8217 C   0  0  0  0  0  0  0  0  0  0  0  0
   19.0169   19.9794   23.9132 H   0  0  0  0  0  0  0  0  0  0  0  0
   18.8218   18.2249   23.8973 H   0  0  0  0  0  0  0  0  0  0  0  0
   20.5914   18.8981   24.9723 C   0  0  0  0  0  0  0  0  0  0  0  0
   21.2961   19.7397   24.9393 H   0  0  0  0  0  0  0  0  0  0  0  0
   21.1845   17.9889   24.8071 H   0  0  0  0  0  0  0  0  0  0  0  0
   19.9480   18.8134   26.3753 C   0  0  2  0  0  0  0  0  0  0  0  0
   19.2207   17.9957   26.3706 H   0  0  0  0  0  0  0  0  0  0  0  0
   19.2179   20.1130   26.7589 C   0  0  0  0  0  0  0  0  0  0  0  0
   19.8944   20.9757   26.7158 H   0  0  0  0  0  0  0  0  0  0  0  0
   18.3704   20.3065   26.0913 H   0  0  0  0  0  0  0  0  0  0  0  0
   18.8181   20.0450   27.7782 H   0  0  0  0  0  0  0  0  0  0  0  0
   20.9712   18.4646   27.4202 N   0  3  0  0  0  0  0  0  0  0  0  0
   20.5430   18.3683   28.3455 H   0  0  0  0  0  0  0  0  0  0  0  0
   21.6938   19.1860   27.4917 H   0  0  0  0  0  0  0  0  0  0  0  0
   21.4401   17.5791   27.2082 H   0  0  0  0  0  0  0  0  0  0  0  0
  1  2  1  0  0  0  0
  1  3  1  0  0  0  0
  1  4  1  0  0  0  0
  1  5  1  0  0  0  0
  5  6  1  0  0  0  0
  5  7  1  0  0  0  0
  5  8  1  0  0  0  0
  8  9  1  0  0  0  0
  8 10  1  0  0  0  0
  8 11  1  0  0  0  0
 11 12  1  0  0  0  0
 11 13  1  0  0  0  0
 11 14  1  0  0  0  0
 14 15  1  0  0  0  0
 14 16  1  0  0  0  0
 14 17  1  0  0  0  0
 17 18  1  0  0  0  0
 17 19  1  0  0  0  0
 17 20  1  0  0  0  0
 20 21  1  0  0  0  0
 20 22  1  0  0  0  0
 22 23  1  0  0  0  0
 22 24  1  0  0  0  0
 22 25  1  0  0  0  0
 20 26  1  0  0  0  0
 26 27  1  0  0  0  0
 26 28  1  0  0  0  0
 26 29  1  0  0  0  0
M  END
> <VConfSearch Rank>
962

> <Conf_Id>
58

> <Delta U+W>
0.412

> <U+W>
-27.414

> <U>
24.279

> <W>
-51.694

> <W(PB)>
-54.271

> <W(SA)>
2.577

> <Valence>
3.709

> <Coulomb>
19.380

> <VdW>
1.191

> <VdW6>
-8.093

> <VdW12>
9.284

> <Bond>
0.200

> <Angle>
1.161

> <Pdih>
2.348

> <Idih>
0.000

> <Tether>
0.000

$$$$
VeraChem MOL file


 29 28  0  0  0  0  0  0  0  0999 V2000     
   23.1454   19.7071   26.6560 C   0  0  0  0  0  0  0  0  0  0  0  0
   23.1163   18.6535   26.9630 H   0  0  0  0  0  0  0  0  0  0  0  0
   23.9123   19.8156   25.8780 H   0  0  0  0  0  0  0  0  0  0  0  0
   23.4586   20.3025   27.5234 H   0  0  0  0  0  0  0  0  0  0  0  0
   21.7663   20.1738   26.1441 C   0  0  0  0  0  0  0  0  0  0  0  0
   21.8178   21.2386   25.8768 H   0  0  0  0  0  0  0  0  0  0  0  0
   21.0280   20.0854   26.9534 H   0  0  0  0  0  0  0  0  0  0  0  0
   21.3015   19.3513   24.9221 C   0  0  0  0  0  0  0  0  0  0  0  0
   22.0436   19.4411   24.1166 H   0  0  0  0  0  0  0  0  0  0  0  0
   21.2540   18.2876   25.1934 H   0  0  0  0  0  0  0  0  0  0  0  0
   19.9206   19.8157   24.4068 C   0  0  0  0  0  0  0  0  0  0  0  0
   19.9693   20.8796   24.1365 H   0  0  0  0  0  0  0  0  0  0  0  0
   19.1795   19.7259   25.2131 H   0  0  0  0  0  0  0  0  0  0  0  0
   19.4558   18.9925   23.1843 C   0  0  0  0  0  0  0  0  0  0  0  0
   20.2010   19.0853   22.3833 H   0  0  0  0  0  0  0  0  0  0  0  0
   19.4150   17.9313   23.4629 H   0  0  0  0  0  0  0  0  0  0  0  0
   18.0681   19.4610   22.6742 C   0  0  0  0  0  0  0  0  0  0  0  0
   18.1111   20.5343   22.4469 H   0  0  0  0  0  0  0  0  0  0  0  0
   17.3298   19.3524   23.4798 H   0  0  0  0  0  0  0  0  0  0  0  0
   17.5491   18.7170   21.4211 C   0  0  2  0  0  0  0  0  0  0  0  0
   16.5862   19.1631   21.1537 H   0  0  0  0  0  0  0  0  0  0  0  0
   17.3092   17.2218   21.6935 C   0  0  0  0  0  0  0  0  0  0  0  0
   16.8154   16.7502   20.8351 H   0  0  0  0  0  0  0  0  0  0  0  0
   18.2488   16.6864   21.8746 H   0  0  0  0  0  0  0  0  0  0  0  0
   16.6604   17.0838   22.5674 H   0  0  0  0  0  0  0  0  0  0  0  0
   18.4435   18.9101   20.2276 N   0  3  0  0  0  0  0  0  0  0  0  0
   18.5726   19.9029   20.0120 H   0  0  0  0  0  0  0  0  0  0  0  0
   18.0542   18.4635   19.3923 H   0  0  0  0  0  0  0  0  0  0  0  0
   19.3695   18.5062   20.3886 H   0  0  0  0  0  0  0  0  0  0  0  0
  1  2  1  0  0  0  0
  1  3  1  0  0  0  0
  1  4  1  0  0  0  0
  1  5  1  0  0  0  0
  5  6  1  0  0  0  0
  5  7  1  0  0  0  0
  5  8  1  0  0  0  0
  8  9  1  0  0  0  0
  8 10  1  0  0  0  0
  8 11  1  0  0  0  0
 11 12  1  0  0  0  0
 11 13  1  0  0  0  0
 11 14  1  0  0  0  0
 14 15  1  0  0  0  0
 14 16  1  0  0  0  0
 14 17  1  0  0  0  0
 17 18  1  0  0  0  0
 17 19  1  0  0  0  0
 17 20  1  0  0  0  0
 20 21  1  0  0  0  0
 20 22  1  0  0  0  0
 22 23  1  0  0  0  0
 22 24  1  0  0  0  0
 22 25  1  0  0  0  0
 20 26  1  0  0  0  0
 26 27  1  0  0  0  0
 26 28  1  0  0  0  0
 26 29  1  0  0  0  0
M  END
> <VConfSearch Rank>
963

> <Conf_Id>
137

> <Delta U+W>
0.280

> <U+W>
-27.546

> <U>
24.513

> <W>
-52.059

> <W(PB)>
-54.556

> <W(SA)>
2.497

> <Valence>
3.677

> <Coulomb>
19.662

> <VdW>
1.174

> <VdW6>
-8.569

> <VdW12>
9.743

> <Bond>
0.224

> <Angle>
1.211

> <Pdih>
2.243

> <Idih>
0.000

> <Tether>
0.000

$$$$
VeraChem MOL file


 29 28  0  0  0  0  0  0  0  0999 V2000     
   22.0799   15.3950   24.1864 C   0  0  0  0  0  0  0  0  0  0  0  0
   21.7808   15.5709   25.2279 H   0  0  0  0  0  0  0  0  0  0  0  0
   21.3277   14.7458   23.7195 H   0  0  0  0  0  0  0  0  0  0  0  0
   23.0340   14.8522   24.1967 H   0  0  0  0  0  0  0  0  0  0  0  0
   22.2184   16.7256   23.4168 C   0  0  0  0  0  0  0  0  0  0  0  0
   22.5519   16.5193   22.3900 H   0  0  0  0  0  0  0  0  0  0  0  0
   22.9998   17.3392   23.8868 H   0  0  0  0  0  0  0  0  0  0  0  0
   20.8880   17.5100   23.3862 C   0  0  0  0  0  0  0  0  0  0  0  0
   20.1111   16.8935   22.9133 H   0  0  0  0  0  0  0  0  0  0  0  0
   20.5625   17.6995   24.4171 H   0  0  0  0  0  0  0  0  0  0  0  0
   21.0277   18.8465   22.6181 C   0  0  0  0  0  0  0  0  0  0  0  0
   21.4361   18.6408   21.6190 H   0  0  0  0  0  0  0  0  0  0  0  0
   21.7606   19.4906   23.1234 H   0  0  0  0  0  0  0  0  0  0  0  0
   19.6919   19.6122   22.4503 C   0  0  0  0  0  0  0  0  0  0  0  0
   19.8721   20.4555   21.7715 H   0  0  0  0  0  0  0  0  0  0  0  0
   18.9571   18.9648   21.9519 H   0  0  0  0  0  0  0  0  0  0  0  0
   19.1059   20.1371   23.7870 C   0  0  0  0  0  0  0  0  0  0  0  0
   19.8361   20.7926   24.2800 H   0  0  0  0  0  0  0  0  0  0  0  0
   18.9417   19.2893   24.4628 H   0  0  0  0  0  0  0  0  0  0  0  0
   17.7619   20.8844   23.6267 C   0  0  2  0  0  0  0  0  0  0  0  0
   17.0712   20.2353   23.0798 H   0  0  0  0  0  0  0  0  0  0  0  0
   17.9163   22.2018   22.8454 C   0  0  0  0  0  0  0  0  0  0  0  0
   18.6540   22.8607   23.3202 H   0  0  0  0  0  0  0  0  0  0  0  0
   18.2323   22.0196   21.8120 H   0  0  0  0  0  0  0  0  0  0  0  0
   16.9606   22.7384   22.8008 H   0  0  0  0  0  0  0  0  0  0  0  0
   17.1265   21.1478   24.9637 N   0  3  0  0  0  0  0  0  0  0  0  0
   16.9713   20.2802   25.4853 H   0  0  0  0  0  0  0  0  0  0  0  0
   16.2174   21.6080   24.8613 H   0  0  0  0  0  0  0  0  0  0  0  0
   17.7125   21.7548   25.5432 H   0  0  0  0  0  0  0  0  0  0  0  0
  1  2  1  0  0  0  0
  1  3  1  0  0  0  0
  1  4  1  0  0  0  0
  1  5  1  0  0  0  0
  5  6  1  0  0  0  0
  5  7  1  0  0  0  0
  5  8  1  0  0  0  0
  8  9  1  0  0  0  0
  8 10  1  0  0  0  0
  8 11  1  0  0  0  0
 11 12  1  0  0  0  0
 11 13  1  0  0  0  0
 11 14  1  0  0  0  0
 14 15  1  0  0  0  0
 14 16  1  0  0  0  0
 14 17  1  0  0  0  0
 17 18  1  0  0  0  0
 17 19  1  0  0  0  0
 17 20  1  0  0  0  0
 20 21  1  0  0  0  0
 20 22  1  0  0  0  0
 22 23  1  0  0  0  0
 22 24  1  0  0  0  0
 22 25  1  0  0  0  0
 20 26  1  0  0  0  0
 26 27  1  0  0  0  0
 26 28  1  0  0  0  0
 26 29  1  0  0  0  0
M  END
> <VConfSearch Rank>
964

> <Conf_Id>
40

> <Delta U+W>
1.128

> <U+W>
-26.698

> <U>
25.442

> <W>
-52.140

> <W(PB)>
-54.658

> <W(SA)>
2.519

> <Valence>
4.343

> <Coulomb>
19.740

> <VdW>
1.360

> <VdW6>
-8.739

> <VdW12>
10.099

> <Bond>
0.251

> <Angle>
1.483

> <Pdih>
2.608

> <Idih>
0.000

> <Tether>
0.000

$$$$
VeraChem MOL file


 29 28  0  0  0  0  0  0  0  0999 V2000     
   20.1133   16.2493   20.2605 C   0  0  0  0  0  0  0  0  0  0  0  0
   21.0993   16.7292   20.2370 H   0  0  0  0  0  0  0  0  0  0  0  0
   20.1654   15.3874   20.9383 H   0  0  0  0  0  0  0  0  0  0  0  0
   19.9078   15.8702   19.2510 H   0  0  0  0  0  0  0  0  0  0  0  0
   19.0093   17.2372   20.7014 C   0  0  0  0  0  0  0  0  0  0  0  0
   18.0321   16.7483   20.5838 H   0  0  0  0  0  0  0  0  0  0  0  0
   19.0006   18.1068   20.0295 H   0  0  0  0  0  0  0  0  0  0  0  0
   19.1525   17.7101   22.1684 C   0  0  0  0  0  0  0  0  0  0  0  0
   18.2562   18.2885   22.4252 H   0  0  0  0  0  0  0  0  0  0  0  0
   19.1606   16.8372   22.8355 H   0  0  0  0  0  0  0  0  0  0  0  0
   20.4168   18.5715   22.4179 C   0  0  0  0  0  0  0  0  0  0  0  0
   20.4063   19.4476   21.7550 H   0  0  0  0  0  0  0  0  0  0  0  0
   21.3095   17.9922   22.1495 H   0  0  0  0  0  0  0  0  0  0  0  0
   20.5742   19.0341   23.8876 C   0  0  0  0  0  0  0  0  0  0  0  0
   20.5649   18.1584   24.5514 H   0  0  0  0  0  0  0  0  0  0  0  0
   21.5669   19.4909   23.9931 H   0  0  0  0  0  0  0  0  0  0  0  0
   19.4901   20.0461   24.3406 C   0  0  0  0  0  0  0  0  0  0  0  0
   18.5008   19.5793   24.2615 H   0  0  0  0  0  0  0  0  0  0  0  0
   19.4847   20.9121   23.6655 H   0  0  0  0  0  0  0  0  0  0  0  0
   19.6845   20.5247   25.7960 C   0  0  2  0  0  0  0  0  0  0  0  0
   19.7238   19.6439   26.4443 H   0  0  0  0  0  0  0  0  0  0  0  0
   18.4960   21.3947   26.2355 C   0  0  0  0  0  0  0  0  0  0  0  0
   18.6106   21.7096   27.2801 H   0  0  0  0  0  0  0  0  0  0  0  0
   18.4120   22.2952   25.6141 H   0  0  0  0  0  0  0  0  0  0  0  0
   17.5544   20.8370   26.1579 H   0  0  0  0  0  0  0  0  0  0  0  0
   20.9787   21.2660   25.9925 N   0  3  0  0  0  0  0  0  0  0  0  0
   21.0184   22.1075   25.4112 H   0  0  0  0  0  0  0  0  0  0  0  0
   21.7842   20.6837   25.7483 H   0  0  0  0  0  0  0  0  0  0  0  0
   21.0973   21.5598   26.9663 H   0  0  0  0  0  0  0  0  0  0  0  0
  1  2  1  0  0  0  0
  1  3  1  0  0  0  0
  1  4  1  0  0  0  0
  1  5  1  0  0  0  0
  5  6  1  0  0  0  0
  5  7  1  0  0  0  0
  5  8  1  0  0  0  0
  8  9  1  0  0  0  0
  8 10  1  0  0  0  0
  8 11  1  0  0  0  0
 11 12  1  0  0  0  0
 11 13  1  0  0  0  0
 11 14  1  0  0  0  0
 14 15  1  0  0  0  0
 14 16  1  0  0  0  0
 14 17  1  0  0  0  0
 17 18  1  0  0  0  0
 17 19  1  0  0  0  0
 17 20  1  0  0  0  0
 20 21  1  0  0  0  0
 20 22  1  0  0  0  0
 22 23  1  0  0  0  0
 22 24  1  0  0  0  0
 22 25  1  0  0  0  0
 20 26  1  0  0  0  0
 26 27  1  0  0  0  0
 26 28  1  0  0  0  0
 26 29  1  0  0  0  0
M  END
> <VConfSearch Rank>
965

> <Conf_Id>
134

> <Delta U+W>
1.228

> <U+W>
-26.598

> <U>
25.451

> <W>
-52.048

> <W(PB)>
-54.539

> <W(SA)>
2.490

> <Valence>
4.319

> <Coulomb>
19.732

> <VdW>
1.400

> <VdW6>
-9.173

> <VdW12>
10.573

> <Bond>
0.281

> <Angle>
1.459

> <Pdih>
2.580

> <Idih>
0.000

> <Tether>
0.000

$$$$
VeraChem MOL file


 29 28  0  0  0  0  0  0  0  0999 V2000     
   21.9485   16.0068   25.6485 C   0  0  0  0  0  0  0  0  0  0  0  0
   22.6365   16.1520   24.8067 H   0  0  0  0  0  0  0  0  0  0  0  0
   22.2193   16.7161   26.4413 H   0  0  0  0  0  0  0  0  0  0  0  0
   22.1117   14.9927   26.0356 H   0  0  0  0  0  0  0  0  0  0  0  0
   20.4754   16.1901   25.2180 C   0  0  0  0  0  0  0  0  0  0  0  0
   19.8254   15.9093   26.0585 H   0  0  0  0  0  0  0  0  0  0  0  0
   20.2390   15.4942   24.4010 H   0  0  0  0  0  0  0  0  0  0  0  0
   20.1324   17.6373   24.7891 C   0  0  0  0  0  0  0  0  0  0  0  0
   19.0473   17.6968   24.6358 H   0  0  0  0  0  0  0  0  0  0  0  0
   20.3684   18.3285   25.6097 H   0  0  0  0  0  0  0  0  0  0  0  0
   20.8632   18.0876   23.4987 C   0  0  0  0  0  0  0  0  0  0  0  0
   20.6258   17.3971   22.6778 H   0  0  0  0  0  0  0  0  0  0  0  0
   21.9482   18.0238   23.6520 H   0  0  0  0  0  0  0  0  0  0  0  0
   20.5253   19.5375   23.0723 C   0  0  0  0  0  0  0  0  0  0  0  0
   20.7806   20.2209   23.8930 H   0  0  0  0  0  0  0  0  0  0  0  0
   21.1723   19.8109   22.2272 H   0  0  0  0  0  0  0  0  0  0  0  0
   19.0445   19.7307   22.6548 C   0  0  0  0  0  0  0  0  0  0  0  0
   18.3872   19.6043   23.5243 H   0  0  0  0  0  0  0  0  0  0  0  0
   18.7759   18.9412   21.9407 H   0  0  0  0  0  0  0  0  0  0  0  0
   18.7616   21.1013   21.9990 C   0  0  2  0  0  0  0  0  0  0  0  0
   19.4479   21.2265   21.1558 H   0  0  0  0  0  0  0  0  0  0  0  0
   18.9773   22.2676   22.9800 C   0  0  0  0  0  0  0  0  0  0  0  0
   18.3508   22.1554   23.8737 H   0  0  0  0  0  0  0  0  0  0  0  0
   20.0239   22.3311   23.2996 H   0  0  0  0  0  0  0  0  0  0  0  0
   18.7245   23.2236   22.5052 H   0  0  0  0  0  0  0  0  0  0  0  0
   17.3725   21.1527   21.4264 N   0  3  0  0  0  0  0  0  0  0  0  0
   17.2208   20.4100   20.7377 H   0  0  0  0  0  0  0  0  0  0  0  0
   17.1948   22.0449   20.9561 H   0  0  0  0  0  0  0  0  0  0  0  0
   16.6628   21.0454   22.1562 H   0  0  0  0  0  0  0  0  0  0  0  0
  1  2  1  0  0  0  0
  1  3  1  0  0  0  0
  1  4  1  0  0  0  0
  1  5  1  0  0  0  0
  5  6  1  0  0  0  0
  5  7  1  0  0  0  0
  5  8  1  0  0  0  0
  8  9  1  0  0  0  0
  8 10  1  0  0  0  0
  8 11  1  0  0  0  0
 11 12  1  0  0  0  0
 11 13  1  0  0  0  0
 11 14  1  0  0  0  0
 14 15  1  0  0  0  0
 14 16  1  0  0  0  0
 14 17  1  0  0  0  0
 17 18  1  0  0  0  0
 17 19  1  0  0  0  0
 17 20  1  0  0  0  0
 20 21  1  0  0  0  0
 20 22  1  0  0  0  0
 22 23  1  0  0  0  0
 22 24  1  0  0  0  0
 22 25  1  0  0  0  0
 20 26  1  0  0  0  0
 26 27  1  0  0  0  0
 26 28  1  0  0  0  0
 26 29  1  0  0  0  0
M  END
> <VConfSearch Rank>
966

> <Conf_Id>
73

> <Delta U+W>
1.580

> <U+W>
-26.246

> <U>
25.821

> <W>
-52.067

> <W(PB)>
-54.581

> <W(SA)>
2.514

> <Valence>
4.779

> <Coulomb>
19.614

> <VdW>
1.428

> <VdW6>
-9.390

> <VdW12>
10.818

> <Bond>
0.283

> <Angle>
1.640

> <Pdih>
2.856

> <Idih>
0.000

> <Tether>
0.000

$$$$
VeraChem MOL file


 29 28  0  0  0  0  0  0  0  0999 V2000     
   15.9956   21.1720   24.4415 C   0  0  0  0  0  0  0  0  0  0  0  0
   15.7048   20.1708   24.7853 H   0  0  0  0  0  0  0  0  0  0  0  0
   15.4280   21.9073   25.0263 H   0  0  0  0  0  0  0  0  0  0  0  0
   15.6956   21.2732   23.3903 H   0  0  0  0  0  0  0  0  0  0  0  0
   17.5133   21.3969   24.6091 C   0  0  0  0  0  0  0  0  0  0  0  0
   17.7778   21.3222   25.6732 H   0  0  0  0  0  0  0  0  0  0  0  0
   17.7676   22.4174   24.2900 H   0  0  0  0  0  0  0  0  0  0  0  0
   18.3365   20.3746   23.7946 C   0  0  0  0  0  0  0  0  0  0  0  0
   18.0651   19.3609   24.1164 H   0  0  0  0  0  0  0  0  0  0  0  0
   18.0705   20.4551   22.7316 H   0  0  0  0  0  0  0  0  0  0  0  0
   19.8586   20.5967   23.9661 C   0  0  0  0  0  0  0  0  0  0  0  0
   20.1373   20.4582   25.0199 H   0  0  0  0  0  0  0  0  0  0  0  0
   20.0958   21.6408   23.7195 H   0  0  0  0  0  0  0  0  0  0  0  0
   20.7266   19.6751   23.0742 C   0  0  0  0  0  0  0  0  0  0  0  0
   20.4490   19.8166   22.0204 H   0  0  0  0  0  0  0  0  0  0  0  0
   21.7708   20.0016   23.1652 H   0  0  0  0  0  0  0  0  0  0  0  0
   20.6190   18.1736   23.4458 C   0  0  0  0  0  0  0  0  0  0  0  0
   19.5792   17.8445   23.3288 H   0  0  0  0  0  0  0  0  0  0  0  0
   20.8768   18.0331   24.5038 H   0  0  0  0  0  0  0  0  0  0  0  0
   21.5147   17.2712   22.5694 C   0  0  2  0  0  0  0  0  0  0  0  0
   21.2651   17.4555   21.5199 H   0  0  0  0  0  0  0  0  0  0  0  0
   21.2439   15.7897   22.8768 C   0  0  0  0  0  0  0  0  0  0  0  0
   20.1904   15.5406   22.6989 H   0  0  0  0  0  0  0  0  0  0  0  0
   21.8518   15.1421   22.2330 H   0  0  0  0  0  0  0  0  0  0  0  0
   21.4796   15.5516   23.9216 H   0  0  0  0  0  0  0  0  0  0  0  0
   22.9783   17.5813   22.7280 N   0  3  0  0  0  0  0  0  0  0  0  0
   23.5542   16.9851   22.1267 H   0  0  0  0  0  0  0  0  0  0  0  0
   23.2881   17.4348   23.6924 H   0  0  0  0  0  0  0  0  0  0  0  0
   23.1835   18.5534   22.4820 H   0  0  0  0  0  0  0  0  0  0  0  0
  1  2  1  0  0  0  0
  1  3  1  0  0  0  0
  1  4  1  0  0  0  0
  1  5  1  0  0  0  0
  5  6  1  0  0  0  0
  5  7  1  0  0  0  0
  5  8  1  0  0  0  0
  8  9  1  0  0  0  0
  8 10  1  0  0  0  0
  8 11  1  0  0  0  0
 11 12  1  0  0  0  0
 11 13  1  0  0  0  0
 11 14  1  0  0  0  0
 14 15  1  0  0  0  0
 14 16  1  0  0  0  0
 14 17  1  0  0  0  0
 17 18  1  0  0  0  0
 17 19  1  0  0  0  0
 17 20  1  0  0  0  0
 20 21  1  0  0  0  0
 20 22  1  0  0  0  0
 22 23  1  0  0  0  0
 22 24  1  0  0  0  0
 22 25  1  0  0  0  0
 20 26  1  0  0  0  0
 26 27  1  0  0  0  0
 26 28  1  0  0  0  0
 26 29  1  0  0  0  0
M  END
> <VConfSearch Rank>
967

> <Conf_Id>
111

> <Delta U+W>
0.580

> <U+W>
-27.246

> <U>
24.710

> <W>
-51.957

> <W(PB)>
-54.511

> <W(SA)>
2.555

> <Valence>
3.735

> <Coulomb>
19.760

> <VdW>
1.216

> <VdW6>
-8.624

> <VdW12>
9.840

> <Bond>
0.236

> <Angle>
1.168

> <Pdih>
2.330

> <Idih>
0.000

> <Tether>
0.000

$$$$
VeraChem MOL file


 29 28  0  0  0  0  0  0  0  0999 V2000     
   23.0281   21.5595   24.9521 C   0  0  0  0  0  0  0  0  0  0  0  0
   23.4689   21.6326   23.9493 H   0  0  0  0  0  0  0  0  0  0  0  0
   22.2278   22.3071   25.0292 H   0  0  0  0  0  0  0  0  0  0  0  0
   23.8053   21.8212   25.6819 H   0  0  0  0  0  0  0  0  0  0  0  0
   22.4874   20.1386   25.2179 C   0  0  0  0  0  0  0  0  0  0  0  0
   22.0833   20.0872   26.2387 H   0  0  0  0  0  0  0  0  0  0  0  0
   23.3161   19.4184   25.1682 H   0  0  0  0  0  0  0  0  0  0  0  0
   21.3915   19.7446   24.2032 C   0  0  0  0  0  0  0  0  0  0  0  0
   20.5746   20.4761   24.2565 H   0  0  0  0  0  0  0  0  0  0  0  0
   21.8006   19.7957   23.1847 H   0  0  0  0  0  0  0  0  0  0  0  0
   20.8457   18.3215   24.4712 C   0  0  0  0  0  0  0  0  0  0  0  0
   20.3892   18.2817   25.4699 H   0  0  0  0  0  0  0  0  0  0  0  0
   21.6855   17.6132   24.4879 H   0  0  0  0  0  0  0  0  0  0  0  0
   19.8218   17.8437   23.4126 C   0  0  0  0  0  0  0  0  0  0  0  0
   20.2974   17.8570   22.4230 H   0  0  0  0  0  0  0  0  0  0  0  0
   19.5675   16.7953   23.6218 H   0  0  0  0  0  0  0  0  0  0  0  0
   18.5193   18.6847   23.3921 C   0  0  0  0  0  0  0  0  0  0  0  0
   18.7344   19.7046   23.0490 H   0  0  0  0  0  0  0  0  0  0  0  0
   18.1427   18.7721   24.4197 H   0  0  0  0  0  0  0  0  0  0  0  0
   17.4044   18.0758   22.5117 C   0  0  2  0  0  0  0  0  0  0  0  0
   17.2273   17.0483   22.8441 H   0  0  0  0  0  0  0  0  0  0  0  0
   17.7939   18.0462   21.0229 C   0  0  0  0  0  0  0  0  0  0  0  0
   18.0395   19.0509   20.6570 H   0  0  0  0  0  0  0  0  0  0  0  0
   18.6595   17.3962   20.8504 H   0  0  0  0  0  0  0  0  0  0  0  0
   16.9685   17.6552   20.4154 H   0  0  0  0  0  0  0  0  0  0  0  0
   16.1057   18.8107   22.6955 N   0  3  0  0  0  0  0  0  0  0  0  0
   15.8049   18.8057   23.6745 H   0  0  0  0  0  0  0  0  0  0  0  0
   15.3546   18.3859   22.1441 H   0  0  0  0  0  0  0  0  0  0  0  0
   16.1843   19.7883   22.4026 H   0  0  0  0  0  0  0  0  0  0  0  0
  1  2  1  0  0  0  0
  1  3  1  0  0  0  0
  1  4  1  0  0  0  0
  1  5  1  0  0  0  0
  5  6  1  0  0  0  0
  5  7  1  0  0  0  0
  5  8  1  0  0  0  0
  8  9  1  0  0  0  0
  8 10  1  0  0  0  0
  8 11  1  0  0  0  0
 11 12  1  0  0  0  0
 11 13  1  0  0  0  0
 11 14  1  0  0  0  0
 14 15  1  0  0  0  0
 14 16  1  0  0  0  0
 14 17  1  0  0  0  0
 17 18  1  0  0  0  0
 17 19  1  0  0  0  0
 17 20  1  0  0  0  0
 20 21  1  0  0  0  0
 20 22  1  0  0  0  0
 22 23  1  0  0  0  0
 22 24  1  0  0  0  0
 22 25  1  0  0  0  0
 20 26  1  0  0  0  0
 26 27  1  0  0  0  0
 26 28  1  0  0  0  0
 26 29  1  0  0  0  0
M  END
> <VConfSearch Rank>
968

> <Conf_Id>
39

> <Delta U+W>
0.965

> <U+W>
-26.861

> <U>
25.129

> <W>
-51.990

> <W(PB)>
-54.526

> <W(SA)>
2.536

> <Valence>
4.206

> <Coulomb>
19.678

> <VdW>
1.245

> <VdW6>
-8.834

> <VdW12>
10.079

> <Bond>
0.240

> <Angle>
1.353

> <Pdih>
2.613

> <Idih>
0.000

> <Tether>
0.000

$$$$
VeraChem MOL file


 29 28  0  0  0  0  0  0  0  0999 V2000     
   19.4784   14.8532   23.2266 C   0  0  0  0  0  0  0  0  0  0  0  0
   18.6800   14.9416   22.4785 H   0  0  0  0  0  0  0  0  0  0  0  0
   20.4361   15.0640   22.7350 H   0  0  0  0  0  0  0  0  0  0  0  0
   19.5058   13.8098   23.5665 H   0  0  0  0  0  0  0  0  0  0  0  0
   19.2296   15.8035   24.4199 C   0  0  0  0  0  0  0  0  0  0  0  0
   20.0586   15.7227   25.1369 H   0  0  0  0  0  0  0  0  0  0  0  0
   18.3285   15.4703   24.9534 H   0  0  0  0  0  0  0  0  0  0  0  0
   19.0396   17.2822   24.0035 C   0  0  0  0  0  0  0  0  0  0  0  0
   18.2096   17.3576   23.2877 H   0  0  0  0  0  0  0  0  0  0  0  0
   18.7344   17.8473   24.8933 H   0  0  0  0  0  0  0  0  0  0  0  0
   20.3147   17.9204   23.3958 C   0  0  0  0  0  0  0  0  0  0  0  0
   20.6223   17.3483   22.5110 H   0  0  0  0  0  0  0  0  0  0  0  0
   21.1436   17.8490   24.1133 H   0  0  0  0  0  0  0  0  0  0  0  0
   20.1244   19.3963   22.9668 C   0  0  0  0  0  0  0  0  0  0  0  0
   21.0266   19.7124   22.4272 H   0  0  0  0  0  0  0  0  0  0  0  0
   19.2961   19.4568   22.2486 H   0  0  0  0  0  0  0  0  0  0  0  0
   19.8708   20.3590   24.1591 C   0  0  0  0  0  0  0  0  0  0  0  0
   20.6464   20.2040   24.9205 H   0  0  0  0  0  0  0  0  0  0  0  0
   18.9175   20.1090   24.6409 H   0  0  0  0  0  0  0  0  0  0  0  0
   19.8436   21.8601   23.7862 C   0  0  2  0  0  0  0  0  0  0  0  0
   19.6666   22.4212   24.7091 H   0  0  0  0  0  0  0  0  0  0  0  0
   18.6999   22.1924   22.8123 C   0  0  0  0  0  0  0  0  0  0  0  0
   18.8599   21.7353   21.8285 H   0  0  0  0  0  0  0  0  0  0  0  0
   17.7386   21.8376   23.2043 H   0  0  0  0  0  0  0  0  0  0  0  0
   18.6209   23.2770   22.6691 H   0  0  0  0  0  0  0  0  0  0  0  0
   21.1637   22.3443   23.2523 N   0  3  0  0  0  0  0  0  0  0  0  0
   21.9245   22.1652   23.9140 H   0  0  0  0  0  0  0  0  0  0  0  0
   21.1467   23.3519   23.0706 H   0  0  0  0  0  0  0  0  0  0  0  0
   21.4026   21.8778   22.3738 H   0  0  0  0  0  0  0  0  0  0  0  0
  1  2  1  0  0  0  0
  1  3  1  0  0  0  0
  1  4  1  0  0  0  0
  1  5  1  0  0  0  0
  5  6  1  0  0  0  0
  5  7  1  0  0  0  0
  5  8  1  0  0  0  0
  8  9  1  0  0  0  0
  8 10  1  0  0  0  0
  8 11  1  0  0  0  0
 11 12  1  0  0  0  0
 11 13  1  0  0  0  0
 11 14  1  0  0  0  0
 14 15  1  0  0  0  0
 14 16  1  0  0  0  0
 14 17  1  0  0  0  0
 17 18  1  0  0  0  0
 17 19  1  0  0  0  0
 17 20  1  0  0  0  0
 20 21  1  0  0  0  0
 20 22  1  0  0  0  0
 22 23  1  0  0  0  0
 22 24  1  0  0  0  0
 22 25  1  0  0  0  0
 20 26  1  0  0  0  0
 26 27  1  0  0  0  0
 26 28  1  0  0  0  0
 26 29  1  0  0  0  0
M  END
> <VConfSearch Rank>
969

> <Conf_Id>
155

> <Delta U+W>
1.624

> <U+W>
-26.202

> <U>
25.894

> <W>
-52.096

> <W(PB)>
-54.602

> <W(SA)>
2.506

> <Valence>
4.779

> <Coulomb>
19.659

> <VdW>
1.456

> <VdW6>
-9.843

> <VdW12>
11.299

> <Bond>
0.315

> <Angle>
1.725

> <Pdih>
2.740

> <Idih>
0.000

> <Tether>
0.000

$$$$
VeraChem MOL file


 29 28  0  0  0  0  0  0  0  0999 V2000     
   17.4895   22.3123   24.6133 C   0  0  0  0  0  0  0  0  0  0  0  0
   17.5387   21.7035   25.5246 H   0  0  0  0  0  0  0  0  0  0  0  0
   18.4678   22.7872   24.4632 H   0  0  0  0  0  0  0  0  0  0  0  0
   16.7531   23.1076   24.7868 H   0  0  0  0  0  0  0  0  0  0  0  0
   17.0898   21.4634   23.3853 C   0  0  0  0  0  0  0  0  0  0  0  0
   16.9403   22.1314   22.5256 H   0  0  0  0  0  0  0  0  0  0  0  0
   16.1208   20.9791   23.5705 H   0  0  0  0  0  0  0  0  0  0  0  0
   18.1453   20.3961   23.0083 C   0  0  0  0  0  0  0  0  0  0  0  0
   17.8321   19.9101   22.0741 H   0  0  0  0  0  0  0  0  0  0  0  0
   19.0986   20.8968   22.7950 H   0  0  0  0  0  0  0  0  0  0  0  0
   18.3413   19.3155   24.1018 C   0  0  0  0  0  0  0  0  0  0  0  0
   17.3576   18.9245   24.3959 H   0  0  0  0  0  0  0  0  0  0  0  0
   18.7775   19.7661   25.0032 H   0  0  0  0  0  0  0  0  0  0  0  0
   19.2244   18.1268   23.6483 C   0  0  0  0  0  0  0  0  0  0  0  0
   19.1872   17.3621   24.4345 H   0  0  0  0  0  0  0  0  0  0  0  0
   18.7904   17.6682   22.7490 H   0  0  0  0  0  0  0  0  0  0  0  0
   20.6992   18.5214   23.3751 C   0  0  0  0  0  0  0  0  0  0  0  0
   21.1365   18.9689   24.2774 H   0  0  0  0  0  0  0  0  0  0  0  0
   20.7236   19.2964   22.5995 H   0  0  0  0  0  0  0  0  0  0  0  0
   21.5809   17.3439   22.8992 C   0  0  2  0  0  0  0  0  0  0  0  0
   21.0943   16.8769   22.0373 H   0  0  0  0  0  0  0  0  0  0  0  0
   21.7678   16.2761   23.9923 C   0  0  0  0  0  0  0  0  0  0  0  0
   22.1915   16.7127   24.9052 H   0  0  0  0  0  0  0  0  0  0  0  0
   20.8168   15.7961   24.2496 H   0  0  0  0  0  0  0  0  0  0  0  0
   22.4455   15.4855   23.6476 H   0  0  0  0  0  0  0  0  0  0  0  0
   22.9195   17.8305   22.4174 N   0  3  0  0  0  0  0  0  0  0  0  0
   22.8227   18.5098   21.6572 H   0  0  0  0  0  0  0  0  0  0  0  0
   23.4930   17.0587   22.0648 H   0  0  0  0  0  0  0  0  0  0  0  0
   23.4457   18.2831   23.1697 H   0  0  0  0  0  0  0  0  0  0  0  0
  1  2  1  0  0  0  0
  1  3  1  0  0  0  0
  1  4  1  0  0  0  0
  1  5  1  0  0  0  0
  5  6  1  0  0  0  0
  5  7  1  0  0  0  0
  5  8  1  0  0  0  0
  8  9  1  0  0  0  0
  8 10  1  0  0  0  0
  8 11  1  0  0  0  0
 11 12  1  0  0  0  0
 11 13  1  0  0  0  0
 11 14  1  0  0  0  0
 14 15  1  0  0  0  0
 14 16  1  0  0  0  0
 14 17  1  0  0  0  0
 17 18  1  0  0  0  0
 17 19  1  0  0  0  0
 17 20  1  0  0  0  0
 20 21  1  0  0  0  0
 20 22  1  0  0  0  0
 22 23  1  0  0  0  0
 22 24  1  0  0  0  0
 22 25  1  0  0  0  0
 20 26  1  0  0  0  0
 26 27  1  0  0  0  0
 26 28  1  0  0  0  0
 26 29  1  0  0  0  0
M  END
> <VConfSearch Rank>
970

> <Conf_Id>
135

> <Delta U+W>
1.581

> <U+W>
-26.245

> <U>
25.974

> <W>
-52.219

> <W(PB)>
-54.709

> <W(SA)>
2.490

> <Valence>
4.811

> <Coulomb>
19.700

> <VdW>
1.463

> <VdW6>
-9.391

> <VdW12>
10.854

> <Bond>
0.285

> <Angle>
1.671

> <Pdih>
2.855

> <Idih>
0.000

> <Tether>
0.000

$$$$
VeraChem MOL file


 29 28  0  0  0  0  0  0  0  0999 V2000     
   19.1921   22.8991   22.0972 C   0  0  0  0  0  0  0  0  0  0  0  0
   19.4340   23.1070   23.1476 H   0  0  0  0  0  0  0  0  0  0  0  0
   20.1165   22.6096   21.5820 H   0  0  0  0  0  0  0  0  0  0  0  0
   18.8394   23.8337   21.6423 H   0  0  0  0  0  0  0  0  0  0  0  0
   18.1114   21.8002   21.9831 C   0  0  0  0  0  0  0  0  0  0  0  0
   17.9065   21.5921   20.9236 H   0  0  0  0  0  0  0  0  0  0  0  0
   17.1725   22.1806   22.4090 H   0  0  0  0  0  0  0  0  0  0  0  0
   18.4918   20.4883   22.7105 C   0  0  0  0  0  0  0  0  0  0  0  0
   18.6651   20.7045   23.7729 H   0  0  0  0  0  0  0  0  0  0  0  0
   17.6335   19.8037   22.6678 H   0  0  0  0  0  0  0  0  0  0  0  0
   19.7312   19.7860   22.1009 C   0  0  0  0  0  0  0  0  0  0  0  0
   20.6244   20.4088   22.2422 H   0  0  0  0  0  0  0  0  0  0  0  0
   19.5901   19.6877   21.0157 H   0  0  0  0  0  0  0  0  0  0  0  0
   19.9924   18.3793   22.6926 C   0  0  0  0  0  0  0  0  0  0  0  0
   19.1130   17.7466   22.5138 H   0  0  0  0  0  0  0  0  0  0  0  0
   20.8247   17.9183   22.1429 H   0  0  0  0  0  0  0  0  0  0  0  0
   20.3364   18.4036   24.2042 C   0  0  0  0  0  0  0  0  0  0  0  0
   19.4656   18.7358   24.7835 H   0  0  0  0  0  0  0  0  0  0  0  0
   21.1265   19.1474   24.3714 H   0  0  0  0  0  0  0  0  0  0  0  0
   20.8222   17.0415   24.7497 C   0  0  2  0  0  0  0  0  0  0  0  0
   21.6670   16.7087   24.1387 H   0  0  0  0  0  0  0  0  0  0  0  0
   19.7219   15.9671   24.6866 C   0  0  0  0  0  0  0  0  0  0  0  0
   18.8273   16.2825   25.2378 H   0  0  0  0  0  0  0  0  0  0  0  0
   19.4309   15.7550   23.6513 H   0  0  0  0  0  0  0  0  0  0  0  0
   20.0762   15.0253   25.1234 H   0  0  0  0  0  0  0  0  0  0  0  0
   21.3410   17.1734   26.1546 N   0  3  0  0  0  0  0  0  0  0  0  0
   21.7005   16.2811   26.5057 H   0  0  0  0  0  0  0  0  0  0  0  0
   20.6062   17.4808   26.7974 H   0  0  0  0  0  0  0  0  0  0  0  0
   22.1048   17.8532   26.2123 H   0  0  0  0  0  0  0  0  0  0  0  0
  1  2  1  0  0  0  0
  1  3  1  0  0  0  0
  1  4  1  0  0  0  0
  1  5  1  0  0  0  0
  5  6  1  0  0  0  0
  5  7  1  0  0  0  0
  5  8  1  0  0  0  0
  8  9  1  0  0  0  0
  8 10  1  0  0  0  0
  8 11  1  0  0  0  0
 11 12  1  0  0  0  0
 11 13  1  0  0  0  0
 11 14  1  0  0  0  0
 14 15  1  0  0  0  0
 14 16  1  0  0  0  0
 14 17  1  0  0  0  0
 17 18  1  0  0  0  0
 17 19  1  0  0  0  0
 17 20  1  0  0  0  0
 20 21  1  0  0  0  0
 20 22  1  0  0  0  0
 22 23  1  0  0  0  0
 22 24  1  0  0  0  0
 22 25  1  0  0  0  0
 20 26  1  0  0  0  0
 26 27  1  0  0  0  0
 26 28  1  0  0  0  0
 26 29  1  0  0  0  0
M  END
> <VConfSearch Rank>
971

> <Conf_Id>
130

> <Delta U+W>
1.359

> <U+W>
-26.467

> <U>
25.687

> <W>
-52.154

> <W(PB)>
-54.643

> <W(SA)>
2.489

> <Valence>
4.682

> <Coulomb>
19.653

> <VdW>
1.352

> <VdW6>
-9.477

> <VdW12>
10.829

> <Bond>
0.274

> <Angle>
1.550

> <Pdih>
2.858

> <Idih>
0.000

> <Tether>
0.000

$$$$
VeraChem MOL file


 29 28  0  0  0  0  0  0  0  0999 V2000     
   18.0990   21.8076   26.0022 C   0  0  0  0  0  0  0  0  0  0  0  0
   18.3048   22.6114   26.7209 H   0  0  0  0  0  0  0  0  0  0  0  0
   17.0801   21.9518   25.6200 H   0  0  0  0  0  0  0  0  0  0  0  0
   18.1297   20.8588   26.5519 H   0  0  0  0  0  0  0  0  0  0  0  0
   19.1323   21.8324   24.8532 C   0  0  0  0  0  0  0  0  0  0  0  0
   20.1385   21.6529   25.2569 H   0  0  0  0  0  0  0  0  0  0  0  0
   19.1516   22.8410   24.4172 H   0  0  0  0  0  0  0  0  0  0  0  0
   18.8299   20.8122   23.7291 C   0  0  0  0  0  0  0  0  0  0  0  0
   17.8305   21.0082   23.3172 H   0  0  0  0  0  0  0  0  0  0  0  0
   19.5384   20.9869   22.9097 H   0  0  0  0  0  0  0  0  0  0  0  0
   18.9204   19.3368   24.1963 C   0  0  0  0  0  0  0  0  0  0  0  0
   18.1604   19.1586   24.9681 H   0  0  0  0  0  0  0  0  0  0  0  0
   19.8916   19.1601   24.6740 H   0  0  0  0  0  0  0  0  0  0  0  0
   18.6858   18.3196   23.0493 C   0  0  0  0  0  0  0  0  0  0  0  0
   18.4665   17.3304   23.4745 H   0  0  0  0  0  0  0  0  0  0  0  0
   17.7756   18.6127   22.5081 H   0  0  0  0  0  0  0  0  0  0  0  0
   19.8586   18.1974   22.0372 C   0  0  0  0  0  0  0  0  0  0  0  0
   20.4314   19.1310   21.9852 H   0  0  0  0  0  0  0  0  0  0  0  0
   19.4242   18.0579   21.0385 H   0  0  0  0  0  0  0  0  0  0  0  0
   20.8154   17.0098   22.2994 C   0  0  2  0  0  0  0  0  0  0  0  0
   20.2229   16.0898   22.3055 H   0  0  0  0  0  0  0  0  0  0  0  0
   21.5444   17.1210   23.6491 C   0  0  0  0  0  0  0  0  0  0  0  0
   20.8386   17.0481   24.4845 H   0  0  0  0  0  0  0  0  0  0  0  0
   22.2684   16.3054   23.7663 H   0  0  0  0  0  0  0  0  0  0  0  0
   22.0855   18.0718   23.7314 H   0  0  0  0  0  0  0  0  0  0  0  0
   21.8109   16.8627   21.1824 N   0  3  0  0  0  0  0  0  0  0  0  0
   21.3473   16.7395   20.2776 H   0  0  0  0  0  0  0  0  0  0  0  0
   22.4174   16.0503   21.3269 H   0  0  0  0  0  0  0  0  0  0  0  0
   22.4150   17.6858   21.1093 H   0  0  0  0  0  0  0  0  0  0  0  0
  1  2  1  0  0  0  0
  1  3  1  0  0  0  0
  1  4  1  0  0  0  0
  1  5  1  0  0  0  0
  5  6  1  0  0  0  0
  5  7  1  0  0  0  0
  5  8  1  0  0  0  0
  8  9  1  0  0  0  0
  8 10  1  0  0  0  0
  8 11  1  0  0  0  0
 11 12  1  0  0  0  0
 11 13  1  0  0  0  0
 11 14  1  0  0  0  0
 14 15  1  0  0  0  0
 14 16  1  0  0  0  0
 14 17  1  0  0  0  0
 17 18  1  0  0  0  0
 17 19  1  0  0  0  0
 17 20  1  0  0  0  0
 20 21  1  0  0  0  0
 20 22  1  0  0  0  0
 22 23  1  0  0  0  0
 22 24  1  0  0  0  0
 22 25  1  0  0  0  0
 20 26  1  0  0  0  0
 26 27  1  0  0  0  0
 26 28  1  0  0  0  0
 26 29  1  0  0  0  0
M  END
> <VConfSearch Rank>
972

> <Conf_Id>
157

> <Delta U+W>
4.354

> <U+W>
-23.472

> <U>
28.780

> <W>
-52.252

> <W(PB)>
-54.715

> <W(SA)>
2.462

> <Valence>
7.566

> <Coulomb>
19.822

> <VdW>
1.392

> <VdW6>
-10.248

> <VdW12>
11.641

> <Bond>
0.340

> <Angle>
2.096

> <Pdih>
5.129

> <Idih>
0.000

> <Tether>
0.000

$$$$
VeraChem MOL file


 29 28  0  0  0  0  0  0  0  0999 V2000     
   19.4911   15.9474   25.4128 C   0  0  0  0  0  0  0  0  0  0  0  0
   18.7990   15.1386   25.6806 H   0  0  0  0  0  0  0  0  0  0  0  0
   19.4584   16.0658   24.3241 H   0  0  0  0  0  0  0  0  0  0  0  0
   20.5036   15.6233   25.6866 H   0  0  0  0  0  0  0  0  0  0  0  0
   19.1111   17.2514   26.1521 C   0  0  0  0  0  0  0  0  0  0  0  0
   19.1486   17.0513   27.2321 H   0  0  0  0  0  0  0  0  0  0  0  0
   18.0702   17.5264   25.9320 H   0  0  0  0  0  0  0  0  0  0  0  0
   20.0604   18.4357   25.8357 C   0  0  0  0  0  0  0  0  0  0  0  0
   20.1870   19.0262   26.7536 H   0  0  0  0  0  0  0  0  0  0  0  0
   21.0627   18.0625   25.5844 H   0  0  0  0  0  0  0  0  0  0  0  0
   19.5570   19.3979   24.7289 C   0  0  0  0  0  0  0  0  0  0  0  0
   20.2745   20.2251   24.6537 H   0  0  0  0  0  0  0  0  0  0  0  0
   18.6046   19.8468   25.0428 H   0  0  0  0  0  0  0  0  0  0  0  0
   19.3789   18.7343   23.3411 C   0  0  0  0  0  0  0  0  0  0  0  0
   20.3004   18.2099   23.0561 H   0  0  0  0  0  0  0  0  0  0  0  0
   18.5948   17.9693   23.4069 H   0  0  0  0  0  0  0  0  0  0  0  0
   18.9700   19.7361   22.2304 C   0  0  0  0  0  0  0  0  0  0  0  0
   18.0053   20.1868   22.4989 H   0  0  0  0  0  0  0  0  0  0  0  0
   18.8002   19.1828   21.2972 H   0  0  0  0  0  0  0  0  0  0  0  0
   19.9977   20.8614   21.9741 C   0  0  2  0  0  0  0  0  0  0  0  0
   20.1334   21.4239   22.9023 H   0  0  0  0  0  0  0  0  0  0  0  0
   19.4738   21.8294   20.9016 C   0  0  0  0  0  0  0  0  0  0  0  0
   19.3255   21.3174   19.9426 H   0  0  0  0  0  0  0  0  0  0  0  0
   18.5152   22.2673   21.2070 H   0  0  0  0  0  0  0  0  0  0  0  0
   20.1807   22.6532   20.7436 H   0  0  0  0  0  0  0  0  0  0  0  0
   21.3500   20.3269   21.5903 N   0  3  0  0  0  0  0  0  0  0  0  0
   21.7247   19.7108   22.3170 H   0  0  0  0  0  0  0  0  0  0  0  0
   22.0256   21.0832   21.4486 H   0  0  0  0  0  0  0  0  0  0  0  0
   21.3047   19.7883   20.7212 H   0  0  0  0  0  0  0  0  0  0  0  0
  1  2  1  0  0  0  0
  1  3  1  0  0  0  0
  1  4  1  0  0  0  0
  1  5  1  0  0  0  0
  5  6  1  0  0  0  0
  5  7  1  0  0  0  0
  5  8  1  0  0  0  0
  8  9  1  0  0  0  0
  8 10  1  0  0  0  0
  8 11  1  0  0  0  0
 11 12  1  0  0  0  0
 11 13  1  0  0  0  0
 11 14  1  0  0  0  0
 14 15  1  0  0  0  0
 14 16  1  0  0  0  0
 14 17  1  0  0  0  0
 17 18  1  0  0  0  0
 17 19  1  0  0  0  0
 17 20  1  0  0  0  0
 20 21  1  0  0  0  0
 20 22  1  0  0  0  0
 22 23  1  0  0  0  0
 22 24  1  0  0  0  0
 22 25  1  0  0  0  0
 20 26  1  0  0  0  0
 26 27  1  0  0  0  0
 26 28  1  0  0  0  0
 26 29  1  0  0  0  0
M  END
> <VConfSearch Rank>
973

> <Conf_Id>
158

> <Delta U+W>
3.648

> <U+W>
-24.178

> <U>
28.057

> <W>
-52.235

> <W(PB)>
-54.696

> <W(SA)>
2.460

> <Valence>
6.543

> <Coulomb>
20.387

> <VdW>
1.127

> <VdW6>
-10.342

> <VdW12>
11.469

> <Bond>
0.308

> <Angle>
1.938

> <Pdih>
4.297

> <Idih>
0.000

> <Tether>
0.000

$$$$
VeraChem MOL file


 29 28  0  0  0  0  0  0  0  0999 V2000     
   18.8141   15.6973   24.8131 C   0  0  0  0  0  0  0  0  0  0  0  0
   18.2892   15.5199   23.8655 H   0  0  0  0  0  0  0  0  0  0  0  0
   19.8588   15.9444   24.5872 H   0  0  0  0  0  0  0  0  0  0  0  0
   18.8130   14.7565   25.3787 H   0  0  0  0  0  0  0  0  0  0  0  0
   18.1282   16.8180   25.6270 C   0  0  0  0  0  0  0  0  0  0  0  0
   18.6901   16.9986   26.5540 H   0  0  0  0  0  0  0  0  0  0  0  0
   17.1312   16.4725   25.9341 H   0  0  0  0  0  0  0  0  0  0  0  0
   17.9740   18.1426   24.8415 C   0  0  0  0  0  0  0  0  0  0  0  0
   17.3963   17.9598   23.9250 H   0  0  0  0  0  0  0  0  0  0  0  0
   17.3797   18.8404   25.4476 H   0  0  0  0  0  0  0  0  0  0  0  0
   19.3243   18.8078   24.4832 C   0  0  0  0  0  0  0  0  0  0  0  0
   19.9027   18.1415   23.8339 H   0  0  0  0  0  0  0  0  0  0  0  0
   19.9163   18.9459   25.3984 H   0  0  0  0  0  0  0  0  0  0  0  0
   19.1209   20.1787   23.7926 C   0  0  0  0  0  0  0  0  0  0  0  0
   18.4673   20.0743   22.9155 H   0  0  0  0  0  0  0  0  0  0  0  0
   18.5867   20.8375   24.4913 H   0  0  0  0  0  0  0  0  0  0  0  0
   20.4509   20.8674   23.3868 C   0  0  0  0  0  0  0  0  0  0  0  0
   21.2651   20.5444   24.0490 H   0  0  0  0  0  0  0  0  0  0  0  0
   20.3356   21.9457   23.5595 H   0  0  0  0  0  0  0  0  0  0  0  0
   20.8578   20.6749   21.9059 C   0  0  2  0  0  0  0  0  0  0  0  0
   20.0449   21.0527   21.2780 H   0  0  0  0  0  0  0  0  0  0  0  0
   21.1012   19.2013   21.5388 C   0  0  0  0  0  0  0  0  0  0  0  0
   21.8442   18.7433   22.2034 H   0  0  0  0  0  0  0  0  0  0  0  0
   20.1726   18.6222   21.6007 H   0  0  0  0  0  0  0  0  0  0  0  0
   21.4666   19.1146   20.5082 H   0  0  0  0  0  0  0  0  0  0  0  0
   22.0685   21.5001   21.5691 N   0  3  0  0  0  0  0  0  0  0  0  0
   21.9126   22.4942   21.7599 H   0  0  0  0  0  0  0  0  0  0  0  0
   22.3152   21.4152   20.5788 H   0  0  0  0  0  0  0  0  0  0  0  0
   22.8842   21.2065   22.1134 H   0  0  0  0  0  0  0  0  0  0  0  0
  1  2  1  0  0  0  0
  1  3  1  0  0  0  0
  1  4  1  0  0  0  0
  1  5  1  0  0  0  0
  5  6  1  0  0  0  0
  5  7  1  0  0  0  0
  5  8  1  0  0  0  0
  8  9  1  0  0  0  0
  8 10  1  0  0  0  0
  8 11  1  0  0  0  0
 11 12  1  0  0  0  0
 11 13  1  0  0  0  0
 11 14  1  0  0  0  0
 14 15  1  0  0  0  0
 14 16  1  0  0  0  0
 14 17  1  0  0  0  0
 17 18  1  0  0  0  0
 17 19  1  0  0  0  0
 17 20  1  0  0  0  0
 20 21  1  0  0  0  0
 20 22  1  0  0  0  0
 22 23  1  0  0  0  0
 22 24  1  0  0  0  0
 22 25  1  0  0  0  0
 20 26  1  0  0  0  0
 26 27  1  0  0  0  0
 26 28  1  0  0  0  0
 26 29  1  0  0  0  0
M  END
> <VConfSearch Rank>
974

> <Conf_Id>
156

> <Delta U+W>
3.393

> <U+W>
-24.433

> <U>
27.713

> <W>
-52.146

> <W(PB)>
-54.603

> <W(SA)>
2.458

> <Valence>
6.758

> <Coulomb>
19.720

> <VdW>
1.235

> <VdW6>
-9.782

> <VdW12>
11.017

> <Bond>
0.287

> <Angle>
1.880

> <Pdih>
4.591

> <Idih>
0.000

> <Tether>
0.000

$$$$
VeraChem MOL file


 29 28  0  0  0  0  0  0  0  0999 V2000     
   22.7310   17.2405   25.1271 C   0  0  0  0  0  0  0  0  0  0  0  0
   22.8569   16.7688   24.1438 H   0  0  0  0  0  0  0  0  0  0  0  0
   23.6928   17.6804   25.4213 H   0  0  0  0  0  0  0  0  0  0  0  0
   22.4860   16.4520   25.8505 H   0  0  0  0  0  0  0  0  0  0  0  0
   21.6193   18.3103   25.0901 C   0  0  0  0  0  0  0  0  0  0  0  0
   21.4959   18.7433   26.0925 H   0  0  0  0  0  0  0  0  0  0  0  0
   20.6682   17.8263   24.8319 H   0  0  0  0  0  0  0  0  0  0  0  0
   21.9403   19.4310   24.0734 C   0  0  0  0  0  0  0  0  0  0  0  0
   22.9299   19.8486   24.3044 H   0  0  0  0  0  0  0  0  0  0  0  0
   22.0230   19.0052   23.0649 H   0  0  0  0  0  0  0  0  0  0  0  0
   20.9101   20.5901   24.0793 C   0  0  0  0  0  0  0  0  0  0  0  0
   21.2277   21.3474   23.3494 H   0  0  0  0  0  0  0  0  0  0  0  0
   20.9416   21.0867   25.0589 H   0  0  0  0  0  0  0  0  0  0  0  0
   19.4446   20.1835   23.7763 C   0  0  0  0  0  0  0  0  0  0  0  0
   19.0750   19.5202   24.5683 H   0  0  0  0  0  0  0  0  0  0  0  0
   18.8289   21.0904   23.8290 H   0  0  0  0  0  0  0  0  0  0  0  0
   19.2651   19.5133   22.3867 C   0  0  0  0  0  0  0  0  0  0  0  0
   19.8579   18.5914   22.3446 H   0  0  0  0  0  0  0  0  0  0  0  0
   19.6735   20.1728   21.6097 H   0  0  0  0  0  0  0  0  0  0  0  0
   17.8054   19.1554   22.0203 C   0  0  2  0  0  0  0  0  0  0  0  0
   17.8297   18.6470   21.0514 H   0  0  0  0  0  0  0  0  0  0  0  0
   16.9215   20.4053   21.8651 C   0  0  0  0  0  0  0  0  0  0  0  0
   15.9368   20.1308   21.4674 H   0  0  0  0  0  0  0  0  0  0  0  0
   16.7644   20.9142   22.8234 H   0  0  0  0  0  0  0  0  0  0  0  0
   17.3748   21.1193   21.1662 H   0  0  0  0  0  0  0  0  0  0  0  0
   17.1939   18.1797   22.9876 N   0  3  0  0  0  0  0  0  0  0  0  0
   17.7515   17.3239   23.0604 H   0  0  0  0  0  0  0  0  0  0  0  0
   16.2505   17.9070   22.6972 H   0  0  0  0  0  0  0  0  0  0  0  0
   17.1221   18.5831   23.9250 H   0  0  0  0  0  0  0  0  0  0  0  0
  1  2  1  0  0  0  0
  1  3  1  0  0  0  0
  1  4  1  0  0  0  0
  1  5  1  0  0  0  0
  5  6  1  0  0  0  0
  5  7  1  0  0  0  0
  5  8  1  0  0  0  0
  8  9  1  0  0  0  0
  8 10  1  0  0  0  0
  8 11  1  0  0  0  0
 11 12  1  0  0  0  0
 11 13  1  0  0  0  0
 11 14  1  0  0  0  0
 14 15  1  0  0  0  0
 14 16  1  0  0  0  0
 14 17  1  0  0  0  0
 17 18  1  0  0  0  0
 17 19  1  0  0  0  0
 17 20  1  0  0  0  0
 20 21  1  0  0  0  0
 20 22  1  0  0  0  0
 22 23  1  0  0  0  0
 22 24  1  0  0  0  0
 22 25  1  0  0  0  0
 20 26  1  0  0  0  0
 26 27  1  0  0  0  0
 26 28  1  0  0  0  0
 26 29  1  0  0  0  0
M  END
> <VConfSearch Rank>
975

> <Conf_Id>
78

> <Delta U+W>
1.477

> <U+W>
-26.349

> <U>
26.385

> <W>
-52.734

> <W(PB)>
-55.179

> <W(SA)>
2.445

> <Valence>
4.726

> <Coulomb>
20.482

> <VdW>
1.177

> <VdW6>
-10.349

> <VdW12>
11.526

> <Bond>
0.319

> <Angle>
1.933

> <Pdih>
2.474

> <Idih>
0.000

> <Tether>
0.000

$$$$
VeraChem MOL file


 29 28  0  0  0  0  0  0  0  0999 V2000     
   19.7959   22.7792   23.4537 C   0  0  0  0  0  0  0  0  0  0  0  0
   18.8175   23.1262   23.0970 H   0  0  0  0  0  0  0  0  0  0  0  0
   19.6290   22.1500   24.3349 H   0  0  0  0  0  0  0  0  0  0  0  0
   20.3643   23.6609   23.7768 H   0  0  0  0  0  0  0  0  0  0  0  0
   20.5545   22.0263   22.3359 C   0  0  0  0  0  0  0  0  0  0  0  0
   21.5625   21.7510   22.6763 H   0  0  0  0  0  0  0  0  0  0  0  0
   20.6986   22.7217   21.4971 H   0  0  0  0  0  0  0  0  0  0  0  0
   19.7998   20.7754   21.8171 C   0  0  0  0  0  0  0  0  0  0  0  0
   18.7157   20.9091   21.9356 H   0  0  0  0  0  0  0  0  0  0  0  0
   19.9711   20.6978   20.7345 H   0  0  0  0  0  0  0  0  0  0  0  0
   20.2435   19.4340   22.4559 C   0  0  0  0  0  0  0  0  0  0  0  0
   21.3059   19.2600   22.2370 H   0  0  0  0  0  0  0  0  0  0  0  0
   19.6914   18.6276   21.9562 H   0  0  0  0  0  0  0  0  0  0  0  0
   20.0133   19.3503   23.9850 C   0  0  0  0  0  0  0  0  0  0  0  0
   20.6331   20.1061   24.4838 H   0  0  0  0  0  0  0  0  0  0  0  0
   18.9712   19.6018   24.2212 H   0  0  0  0  0  0  0  0  0  0  0  0
   20.3795   17.9682   24.5859 C   0  0  0  0  0  0  0  0  0  0  0  0
   20.2283   18.0026   25.6729 H   0  0  0  0  0  0  0  0  0  0  0  0
   21.4535   17.7977   24.4337 H   0  0  0  0  0  0  0  0  0  0  0  0
   19.5995   16.7657   24.0033 C   0  0  2  0  0  0  0  0  0  0  0  0
   19.7726   16.7305   22.9239 H   0  0  0  0  0  0  0  0  0  0  0  0
   18.0850   16.8830   24.2500 C   0  0  0  0  0  0  0  0  0  0  0  0
   17.5621   15.9950   23.8740 H   0  0  0  0  0  0  0  0  0  0  0  0
   17.8637   16.9812   25.3200 H   0  0  0  0  0  0  0  0  0  0  0  0
   17.6639   17.7516   23.7303 H   0  0  0  0  0  0  0  0  0  0  0  0
   20.1182   15.4666   24.5542 N   0  3  0  0  0  0  0  0  0  0  0  0
   19.9899   15.4128   25.5683 H   0  0  0  0  0  0  0  0  0  0  0  0
   21.1174   15.3484   24.3637 H   0  0  0  0  0  0  0  0  0  0  0  0
   19.6324   14.6649   24.1419 H   0  0  0  0  0  0  0  0  0  0  0  0
  1  2  1  0  0  0  0
  1  3  1  0  0  0  0
  1  4  1  0  0  0  0
  1  5  1  0  0  0  0
  5  6  1  0  0  0  0
  5  7  1  0  0  0  0
  5  8  1  0  0  0  0
  8  9  1  0  0  0  0
  8 10  1  0  0  0  0
  8 11  1  0  0  0  0
 11 12  1  0  0  0  0
 11 13  1  0  0  0  0
 11 14  1  0  0  0  0
 14 15  1  0  0  0  0
 14 16  1  0  0  0  0
 14 17  1  0  0  0  0
 17 18  1  0  0  0  0
 17 19  1  0  0  0  0
 17 20  1  0  0  0  0
 20 21  1  0  0  0  0
 20 22  1  0  0  0  0
 22 23  1  0  0  0  0
 22 24  1  0  0  0  0
 22 25  1  0  0  0  0
 20 26  1  0  0  0  0
 26 27  1  0  0  0  0
 26 28  1  0  0  0  0
 26 29  1  0  0  0  0
M  END
> <VConfSearch Rank>
976

> <Conf_Id>
145

> <Delta U+W>
3.784

> <U+W>
-24.042

> <U>
28.220

> <W>
-52.262

> <W(PB)>
-54.724

> <W(SA)>
2.462

> <Valence>
7.040

> <Coulomb>
19.984

> <VdW>
1.197

> <VdW6>
-10.566

> <VdW12>
11.763

> <Bond>
0.320

> <Angle>
2.280

> <Pdih>
4.439

> <Idih>
0.000

> <Tether>
0.000

$$$$
VeraChem MOL file


 29 28  0  0  0  0  0  0  0  0999 V2000     
   16.8333   16.5580   23.6985 C   0  0  0  0  0  0  0  0  0  0  0  0
   16.5792   15.8545   22.8948 H   0  0  0  0  0  0  0  0  0  0  0  0
   17.5482   16.0656   24.3706 H   0  0  0  0  0  0  0  0  0  0  0  0
   15.9184   16.7615   24.2700 H   0  0  0  0  0  0  0  0  0  0  0  0
   17.4207   17.8654   23.1265 C   0  0  0  0  0  0  0  0  0  0  0  0
   17.6219   18.5600   23.9509 H   0  0  0  0  0  0  0  0  0  0  0  0
   16.6697   18.3500   22.4870 H   0  0  0  0  0  0  0  0  0  0  0  0
   18.7061   17.6016   22.3058 C   0  0  0  0  0  0  0  0  0  0  0  0
   19.4428   17.0556   22.9109 H   0  0  0  0  0  0  0  0  0  0  0  0
   18.4470   16.9353   21.4713 H   0  0  0  0  0  0  0  0  0  0  0  0
   19.3422   18.8914   21.7250 C   0  0  0  0  0  0  0  0  0  0  0  0
   18.5716   19.6577   21.5632 H   0  0  0  0  0  0  0  0  0  0  0  0
   19.7391   18.6572   20.7275 H   0  0  0  0  0  0  0  0  0  0  0  0
   20.5074   19.4761   22.5645 C   0  0  0  0  0  0  0  0  0  0  0  0
   21.3137   18.7329   22.6227 H   0  0  0  0  0  0  0  0  0  0  0  0
   20.9175   20.3327   22.0147 H   0  0  0  0  0  0  0  0  0  0  0  0
   20.0986   19.9206   23.9942 C   0  0  0  0  0  0  0  0  0  0  0  0
   19.7739   19.0428   24.5660 H   0  0  0  0  0  0  0  0  0  0  0  0
   19.2303   20.5899   23.9348 H   0  0  0  0  0  0  0  0  0  0  0  0
   21.2153   20.6225   24.8027 C   0  0  2  0  0  0  0  0  0  0  0  0
   20.8196   20.8110   25.8055 H   0  0  0  0  0  0  0  0  0  0  0  0
   21.6050   21.9823   24.1969 C   0  0  0  0  0  0  0  0  0  0  0  0
   22.2896   22.5173   24.8665 H   0  0  0  0  0  0  0  0  0  0  0  0
   22.1066   21.8685   23.2288 H   0  0  0  0  0  0  0  0  0  0  0  0
   20.7194   22.6139   24.0538 H   0  0  0  0  0  0  0  0  0  0  0  0
   22.4250   19.7487   24.9894 N   0  3  0  0  0  0  0  0  0  0  0  0
   22.8669   19.5318   24.0925 H   0  0  0  0  0  0  0  0  0  0  0  0
   22.1810   18.8605   25.4366 H   0  0  0  0  0  0  0  0  0  0  0  0
   23.1289   20.2048   25.5769 H   0  0  0  0  0  0  0  0  0  0  0  0
  1  2  1  0  0  0  0
  1  3  1  0  0  0  0
  1  4  1  0  0  0  0
  1  5  1  0  0  0  0
  5  6  1  0  0  0  0
  5  7  1  0  0  0  0
  5  8  1  0  0  0  0
  8  9  1  0  0  0  0
  8 10  1  0  0  0  0
  8 11  1  0  0  0  0
 11 12  1  0  0  0  0
 11 13  1  0  0  0  0
 11 14  1  0  0  0  0
 14 15  1  0  0  0  0
 14 16  1  0  0  0  0
 14 17  1  0  0  0  0
 17 18  1  0  0  0  0
 17 19  1  0  0  0  0
 17 20  1  0  0  0  0
 20 21  1  0  0  0  0
 20 22  1  0  0  0  0
 22 23  1  0  0  0  0
 22 24  1  0  0  0  0
 22 25  1  0  0  0  0
 20 26  1  0  0  0  0
 26 27  1  0  0  0  0
 26 28  1  0  0  0  0
 26 29  1  0  0  0  0
M  END
> <VConfSearch Rank>
977

> <Conf_Id>
71

> <Delta U+W>
3.542

> <U+W>
-24.284

> <U>
28.217

> <W>
-52.501

> <W(PB)>
-54.947

> <W(SA)>
2.446

> <Valence>
6.821

> <Coulomb>
20.147

> <VdW>
1.249

> <VdW6>
-10.237

> <VdW12>
11.486

> <Bond>
0.317

> <Angle>
1.990

> <Pdih>
4.515

> <Idih>
0.000

> <Tether>
0.000

$$$$
VeraChem MOL file


 29 28  0  0  0  0  0  0  0  0999 V2000     
   19.6370   20.8148   19.9562 C   0  0  0  0  0  0  0  0  0  0  0  0
   20.3703   20.0298   19.7304 H   0  0  0  0  0  0  0  0  0  0  0  0
   18.7929   20.7041   19.2630 H   0  0  0  0  0  0  0  0  0  0  0  0
   20.1103   21.7853   19.7585 H   0  0  0  0  0  0  0  0  0  0  0  0
   19.1655   20.7273   21.4231 C   0  0  0  0  0  0  0  0  0  0  0  0
   18.4602   21.5452   21.6258 H   0  0  0  0  0  0  0  0  0  0  0  0
   20.0245   20.8854   22.0861 H   0  0  0  0  0  0  0  0  0  0  0  0
   18.4842   19.3702   21.7225 C   0  0  0  0  0  0  0  0  0  0  0  0
   17.6143   19.2720   21.0584 H   0  0  0  0  0  0  0  0  0  0  0  0
   19.1556   18.5391   21.4664 H   0  0  0  0  0  0  0  0  0  0  0  0
   17.9991   19.2320   23.1893 C   0  0  0  0  0  0  0  0  0  0  0  0
   17.0549   18.6701   23.1847 H   0  0  0  0  0  0  0  0  0  0  0  0
   17.7530   20.2189   23.6048 H   0  0  0  0  0  0  0  0  0  0  0  0
   18.9803   18.4857   24.1296 C   0  0  0  0  0  0  0  0  0  0  0  0
   18.4950   18.3786   25.1084 H   0  0  0  0  0  0  0  0  0  0  0  0
   19.1321   17.4672   23.7485 H   0  0  0  0  0  0  0  0  0  0  0  0
   20.3513   19.1911   24.3050 C   0  0  0  0  0  0  0  0  0  0  0  0
   20.1867   20.2479   24.5521 H   0  0  0  0  0  0  0  0  0  0  0  0
   20.8925   19.1764   23.3508 H   0  0  0  0  0  0  0  0  0  0  0  0
   21.2671   18.5710   25.3866 C   0  0  2  0  0  0  0  0  0  0  0  0
   22.1905   19.1581   25.4063 H   0  0  0  0  0  0  0  0  0  0  0  0
   21.6464   17.1168   25.0575 C   0  0  0  0  0  0  0  0  0  0  0  0
   22.0756   17.0442   24.0504 H   0  0  0  0  0  0  0  0  0  0  0  0
   22.3969   16.7461   25.7664 H   0  0  0  0  0  0  0  0  0  0  0  0
   20.7776   16.4498   25.1100 H   0  0  0  0  0  0  0  0  0  0  0  0
   20.6790   18.6754   26.7669 N   0  3  0  0  0  0  0  0  0  0  0  0
   20.4633   19.6463   27.0106 H   0  0  0  0  0  0  0  0  0  0  0  0
   21.3249   18.3178   27.4766 H   0  0  0  0  0  0  0  0  0  0  0  0
   19.8117   18.1383   26.8427 H   0  0  0  0  0  0  0  0  0  0  0  0
  1  2  1  0  0  0  0
  1  3  1  0  0  0  0
  1  4  1  0  0  0  0
  1  5  1  0  0  0  0
  5  6  1  0  0  0  0
  5  7  1  0  0  0  0
  5  8  1  0  0  0  0
  8  9  1  0  0  0  0
  8 10  1  0  0  0  0
  8 11  1  0  0  0  0
 11 12  1  0  0  0  0
 11 13  1  0  0  0  0
 11 14  1  0  0  0  0
 14 15  1  0  0  0  0
 14 16  1  0  0  0  0
 14 17  1  0  0  0  0
 17 18  1  0  0  0  0
 17 19  1  0  0  0  0
 17 20  1  0  0  0  0
 20 21  1  0  0  0  0
 20 22  1  0  0  0  0
 22 23  1  0  0  0  0
 22 24  1  0  0  0  0
 22 25  1  0  0  0  0
 20 26  1  0  0  0  0
 26 27  1  0  0  0  0
 26 28  1  0  0  0  0
 26 29  1  0  0  0  0
M  END
> <VConfSearch Rank>
978

> <Conf_Id>
163

> <Delta U+W>
3.309

> <U+W>
-24.517

> <U>
27.916

> <W>
-52.433

> <W(PB)>
-54.866

> <W(SA)>
2.433

> <Valence>
6.693

> <Coulomb>
20.015

> <VdW>
1.208

> <VdW6>
-10.294

> <VdW12>
11.503

> <Bond>
0.312

> <Angle>
1.939

> <Pdih>
4.441

> <Idih>
0.000

> <Tether>
0.000

$$$$
VeraChem MOL file


 29 28  0  0  0  0  0  0  0  0999 V2000     
   19.3410   18.9430   19.5661 C   0  0  0  0  0  0  0  0  0  0  0  0
   20.0705   19.6683   19.1829 H   0  0  0  0  0  0  0  0  0  0  0  0
   19.8666   18.0031   19.7746 H   0  0  0  0  0  0  0  0  0  0  0  0
   18.6147   18.7437   18.7676 H   0  0  0  0  0  0  0  0  0  0  0  0
   18.6254   19.4862   20.8238 C   0  0  0  0  0  0  0  0  0  0  0  0
   17.9274   18.7296   21.2084 H   0  0  0  0  0  0  0  0  0  0  0  0
   18.0122   20.3510   20.5342 H   0  0  0  0  0  0  0  0  0  0  0  0
   19.5965   19.9224   21.9474 C   0  0  0  0  0  0  0  0  0  0  0  0
   20.2896   20.6815   21.5595 H   0  0  0  0  0  0  0  0  0  0  0  0
   19.0065   20.4126   22.7324 H   0  0  0  0  0  0  0  0  0  0  0  0
   20.3984   18.7462   22.5600 C   0  0  0  0  0  0  0  0  0  0  0  0
   20.9866   18.2569   21.7731 H   0  0  0  0  0  0  0  0  0  0  0  0
   19.7048   17.9838   22.9382 H   0  0  0  0  0  0  0  0  0  0  0  0
   21.3764   19.1818   23.6822 C   0  0  0  0  0  0  0  0  0  0  0  0
   21.9428   18.3031   24.0187 H   0  0  0  0  0  0  0  0  0  0  0  0
   22.1219   19.8693   23.2594 H   0  0  0  0  0  0  0  0  0  0  0  0
   20.7100   19.8621   24.9080 C   0  0  0  0  0  0  0  0  0  0  0  0
   20.3157   20.8411   24.6073 H   0  0  0  0  0  0  0  0  0  0  0  0
   21.4804   20.0694   25.6625 H   0  0  0  0  0  0  0  0  0  0  0  0
   19.5758   19.0335   25.5507 C   0  0  2  0  0  0  0  0  0  0  0  0
   18.8167   18.8394   24.7871 H   0  0  0  0  0  0  0  0  0  0  0  0
   18.9166   19.8224   26.6928 C   0  0  0  0  0  0  0  0  0  0  0  0
   18.0858   19.2537   27.1283 H   0  0  0  0  0  0  0  0  0  0  0  0
   19.6366   20.0417   27.4912 H   0  0  0  0  0  0  0  0  0  0  0  0
   18.5124   20.7742   26.3261 H   0  0  0  0  0  0  0  0  0  0  0  0
   20.0540   17.6935   26.0381 N   0  3  0  0  0  0  0  0  0  0  0  0
   20.4679   17.1484   25.2769 H   0  0  0  0  0  0  0  0  0  0  0  0
   19.2864   17.1416   26.4316 H   0  0  0  0  0  0  0  0  0  0  0  0
   20.7650   17.7947   26.7672 H   0  0  0  0  0  0  0  0  0  0  0  0
  1  2  1  0  0  0  0
  1  3  1  0  0  0  0
  1  4  1  0  0  0  0
  1  5  1  0  0  0  0
  5  6  1  0  0  0  0
  5  7  1  0  0  0  0
  5  8  1  0  0  0  0
  8  9  1  0  0  0  0
  8 10  1  0  0  0  0
  8 11  1  0  0  0  0
 11 12  1  0  0  0  0
 11 13  1  0  0  0  0
 11 14  1  0  0  0  0
 14 15  1  0  0  0  0
 14 16  1  0  0  0  0
 14 17  1  0  0  0  0
 17 18  1  0  0  0  0
 17 19  1  0  0  0  0
 17 20  1  0  0  0  0
 20 21  1  0  0  0  0
 20 22  1  0  0  0  0
 22 23  1  0  0  0  0
 22 24  1  0  0  0  0
 22 25  1  0  0  0  0
 20 26  1  0  0  0  0
 26 27  1  0  0  0  0
 26 28  1  0  0  0  0
 26 29  1  0  0  0  0
M  END
> <VConfSearch Rank>
979

> <Conf_Id>
173

> <Delta U+W>
1.363

> <U+W>
-26.462

> <U>
25.816

> <W>
-52.279

> <W(PB)>
-54.727

> <W(SA)>
2.449

> <Valence>
4.504

> <Coulomb>
20.342

> <VdW>
0.971

> <VdW6>
-10.532

> <VdW12>
11.503

> <Bond>
0.307

> <Angle>
1.715

> <Pdih>
2.481

> <Idih>
0.000

> <Tether>
0.000

$$$$
VeraChem MOL file


 29 28  0  0  0  0  0  0  0  0999 V2000     
   20.4065   20.7417   26.9298 C   0  0  0  0  0  0  0  0  0  0  0  0
   19.5909   20.2694   27.4928 H   0  0  0  0  0  0  0  0  0  0  0  0
   21.3294   20.6416   27.5158 H   0  0  0  0  0  0  0  0  0  0  0  0
   20.1789   21.8118   26.8403 H   0  0  0  0  0  0  0  0  0  0  0  0
   20.5617   20.0992   25.5352 C   0  0  0  0  0  0  0  0  0  0  0  0
   21.3658   20.6091   24.9866 H   0  0  0  0  0  0  0  0  0  0  0  0
   19.6333   20.2536   24.9697 H   0  0  0  0  0  0  0  0  0  0  0  0
   20.8723   18.5883   25.6350 C   0  0  0  0  0  0  0  0  0  0  0  0
   21.7334   18.4444   26.3021 H   0  0  0  0  0  0  0  0  0  0  0  0
   20.0272   18.0736   26.1125 H   0  0  0  0  0  0  0  0  0  0  0  0
   21.1892   17.9076   24.2783 C   0  0  0  0  0  0  0  0  0  0  0  0
   21.4296   16.8555   24.4852 H   0  0  0  0  0  0  0  0  0  0  0  0
   22.1015   18.3388   23.8436 H   0  0  0  0  0  0  0  0  0  0  0  0
   20.0299   17.9455   23.2487 C   0  0  0  0  0  0  0  0  0  0  0  0
   20.0318   16.9961   22.6969 H   0  0  0  0  0  0  0  0  0  0  0  0
   19.0699   17.9881   23.7790 H   0  0  0  0  0  0  0  0  0  0  0  0
   20.1578   19.1108   22.2285 C   0  0  0  0  0  0  0  0  0  0  0  0
   21.1039   19.0026   21.6823 H   0  0  0  0  0  0  0  0  0  0  0  0
   20.2278   20.0701   22.7533 H   0  0  0  0  0  0  0  0  0  0  0  0
   19.0090   19.2003   21.1966 C   0  0  2  0  0  0  0  0  0  0  0  0
   19.2539   20.0149   20.5079 H   0  0  0  0  0  0  0  0  0  0  0  0
   17.6634   19.5426   21.8596 C   0  0  0  0  0  0  0  0  0  0  0  0
   17.7515   20.4443   22.4783 H   0  0  0  0  0  0  0  0  0  0  0  0
   16.8990   19.7364   21.0971 H   0  0  0  0  0  0  0  0  0  0  0  0
   17.3025   18.7245   22.4939 H   0  0  0  0  0  0  0  0  0  0  0  0
   18.8949   17.9611   20.3523 N   0  3  0  0  0  0  0  0  0  0  0  0
   19.7747   17.7519   19.8718 H   0  0  0  0  0  0  0  0  0  0  0  0
   18.1707   18.0622   19.6354 H   0  0  0  0  0  0  0  0  0  0  0  0
   18.6525   17.1461   20.9212 H   0  0  0  0  0  0  0  0  0  0  0  0
  1  2  1  0  0  0  0
  1  3  1  0  0  0  0
  1  4  1  0  0  0  0
  1  5  1  0  0  0  0
  5  6  1  0  0  0  0
  5  7  1  0  0  0  0
  5  8  1  0  0  0  0
  8  9  1  0  0  0  0
  8 10  1  0  0  0  0
  8 11  1  0  0  0  0
 11 12  1  0  0  0  0
 11 13  1  0  0  0  0
 11 14  1  0  0  0  0
 14 15  1  0  0  0  0
 14 16  1  0  0  0  0
 14 17  1  0  0  0  0
 17 18  1  0  0  0  0
 17 19  1  0  0  0  0
 17 20  1  0  0  0  0
 20 21  1  0  0  0  0
 20 22  1  0  0  0  0
 22 23  1  0  0  0  0
 22 24  1  0  0  0  0
 22 25  1  0  0  0  0
 20 26  1  0  0  0  0
 26 27  1  0  0  0  0
 26 28  1  0  0  0  0
 26 29  1  0  0  0  0
M  END
> <VConfSearch Rank>
980

> <Conf_Id>
117

> <Delta U+W>
3.377

> <U+W>
-24.449

> <U>
27.947

> <W>
-52.396

> <W(PB)>
-54.842

> <W(SA)>
2.447

> <Valence>
6.731

> <Coulomb>
20.067

> <VdW>
1.149

> <VdW6>
-10.427

> <VdW12>
11.575

> <Bond>
0.324

> <Angle>
1.943

> <Pdih>
4.465

> <Idih>
0.000

> <Tether>
0.000

$$$$
VeraChem MOL file


 29 28  0  0  0  0  0  0  0  0999 V2000     
   23.0267   15.9350   25.1023 C   0  0  0  0  0  0  0  0  0  0  0  0
   23.6287   16.0063   24.1871 H   0  0  0  0  0  0  0  0  0  0  0  0
   23.4643   16.6063   25.8527 H   0  0  0  0  0  0  0  0  0  0  0  0
   23.1084   14.9077   25.4805 H   0  0  0  0  0  0  0  0  0  0  0  0
   21.5523   16.2982   24.8260 C   0  0  0  0  0  0  0  0  0  0  0  0
   20.9695   16.1851   25.7509 H   0  0  0  0  0  0  0  0  0  0  0  0
   21.1326   15.5898   24.0981 H   0  0  0  0  0  0  0  0  0  0  0  0
   21.4090   17.7406   24.2923 C   0  0  0  0  0  0  0  0  0  0  0  0
   21.8319   18.4448   25.0221 H   0  0  0  0  0  0  0  0  0  0  0  0
   21.9951   17.8493   23.3692 H   0  0  0  0  0  0  0  0  0  0  0  0
   19.9339   18.1079   24.0145 C   0  0  0  0  0  0  0  0  0  0  0  0
   19.3489   17.9974   24.9381 H   0  0  0  0  0  0  0  0  0  0  0  0
   19.5118   17.4035   23.2844 H   0  0  0  0  0  0  0  0  0  0  0  0
   19.7909   19.5513   23.4812 C   0  0  0  0  0  0  0  0  0  0  0  0
   20.2100   20.2554   24.2136 H   0  0  0  0  0  0  0  0  0  0  0  0
   20.3832   19.6554   22.5624 H   0  0  0  0  0  0  0  0  0  0  0  0
   18.3125   19.9162   23.2026 C   0  0  0  0  0  0  0  0  0  0  0  0
   17.7283   19.7534   24.1182 H   0  0  0  0  0  0  0  0  0  0  0  0
   17.8996   19.2394   22.4428 H   0  0  0  0  0  0  0  0  0  0  0  0
   18.1285   21.3805   22.7490 C   0  0  2  0  0  0  0  0  0  0  0  0
   18.5684   22.0331   23.5095 H   0  0  0  0  0  0  0  0  0  0  0  0
   16.6341   21.7189   22.6283 C   0  0  0  0  0  0  0  0  0  0  0  0
   16.4956   22.7686   22.3416 H   0  0  0  0  0  0  0  0  0  0  0  0
   16.1445   21.0907   21.8736 H   0  0  0  0  0  0  0  0  0  0  0  0
   16.1210   21.5651   23.5859 H   0  0  0  0  0  0  0  0  0  0  0  0
   18.8419   21.6774   21.4583 N   0  3  0  0  0  0  0  0  0  0  0  0
   19.8467   21.4987   21.5371 H   0  0  0  0  0  0  0  0  0  0  0  0
   18.7254   22.6569   21.1833 H   0  0  0  0  0  0  0  0  0  0  0  0
   18.4844   21.0993   20.6931 H   0  0  0  0  0  0  0  0  0  0  0  0
  1  2  1  0  0  0  0
  1  3  1  0  0  0  0
  1  4  1  0  0  0  0
  1  5  1  0  0  0  0
  5  6  1  0  0  0  0
  5  7  1  0  0  0  0
  5  8  1  0  0  0  0
  8  9  1  0  0  0  0
  8 10  1  0  0  0  0
  8 11  1  0  0  0  0
 11 12  1  0  0  0  0
 11 13  1  0  0  0  0
 11 14  1  0  0  0  0
 14 15  1  0  0  0  0
 14 16  1  0  0  0  0
 14 17  1  0  0  0  0
 17 18  1  0  0  0  0
 17 19  1  0  0  0  0
 17 20  1  0  0  0  0
 20 21  1  0  0  0  0
 20 22  1  0  0  0  0
 22 23  1  0  0  0  0
 22 24  1  0  0  0  0
 22 25  1  0  0  0  0
 20 26  1  0  0  0  0
 26 27  1  0  0  0  0
 26 28  1  0  0  0  0
 26 29  1  0  0  0  0
M  END
> <VConfSearch Rank>
981

> <Conf_Id>
164

> <Delta U+W>
0.000

> <U+W>
-27.826

> <U>
23.963

> <W>
-51.789

> <W(PB)>
-54.342

> <W(SA)>
2.554

> <Valence>
3.166

> <Coulomb>
19.734

> <VdW>
1.062

> <VdW6>
-7.938

> <VdW12>
9.001

> <Bond>
0.188

> <Angle>
0.880

> <Pdih>
2.098

> <Idih>
0.000

> <Tether>
0.000

$$$$
VeraChem MOL file


 29 28  0  0  0  0  0  0  0  0999 V2000     
   19.8563   19.1566   18.6617 C   0  0  0  0  0  0  0  0  0  0  0  0
   18.8147   19.4890   18.5625 H   0  0  0  0  0  0  0  0  0  0  0  0
   20.5037   20.0421   18.6157 H   0  0  0  0  0  0  0  0  0  0  0  0
   20.0914   18.5220   17.7974 H   0  0  0  0  0  0  0  0  0  0  0  0
   20.0683   18.3825   19.9799 C   0  0  0  0  0  0  0  0  0  0  0  0
   21.1092   18.0344   20.0349 H   0  0  0  0  0  0  0  0  0  0  0  0
   19.4333   17.4855   19.9820 H   0  0  0  0  0  0  0  0  0  0  0  0
   19.7440   19.2540   21.2133 C   0  0  0  0  0  0  0  0  0  0  0  0
   20.3793   20.1505   21.2054 H   0  0  0  0  0  0  0  0  0  0  0  0
   18.7033   19.6014   21.1528 H   0  0  0  0  0  0  0  0  0  0  0  0
   19.9551   18.4822   22.5354 C   0  0  0  0  0  0  0  0  0  0  0  0
   20.9961   18.1354   22.5953 H   0  0  0  0  0  0  0  0  0  0  0  0
   19.3202   17.5854   22.5411 H   0  0  0  0  0  0  0  0  0  0  0  0
   19.6300   19.3544   23.7691 C   0  0  0  0  0  0  0  0  0  0  0  0
   20.2633   20.2510   23.7491 H   0  0  0  0  0  0  0  0  0  0  0  0
   18.5875   19.6969   23.7115 H   0  0  0  0  0  0  0  0  0  0  0  0
   19.8470   18.5801   25.0925 C   0  0  0  0  0  0  0  0  0  0  0  0
   20.9028   18.2926   25.1847 H   0  0  0  0  0  0  0  0  0  0  0  0
   19.2726   17.6453   25.0484 H   0  0  0  0  0  0  0  0  0  0  0  0
   19.4094   19.3633   26.3514 C   0  0  2  0  0  0  0  0  0  0  0  0
   18.3688   19.6743   26.2177 H   0  0  0  0  0  0  0  0  0  0  0  0
   20.2681   20.6200   26.5811 C   0  0  0  0  0  0  0  0  0  0  0  0
   21.3324   20.3648   26.6579 H   0  0  0  0  0  0  0  0  0  0  0  0
   20.1453   21.3417   25.7654 H   0  0  0  0  0  0  0  0  0  0  0  0
   19.9720   21.1258   27.5083 H   0  0  0  0  0  0  0  0  0  0  0  0
   19.4361   18.4857   27.5718 N   0  3  0  0  0  0  0  0  0  0  0  0
   19.1093   18.9890   28.4016 H   0  0  0  0  0  0  0  0  0  0  0  0
   20.3826   18.1506   27.7709 H   0  0  0  0  0  0  0  0  0  0  0  0
   18.8360   17.6636   27.4584 H   0  0  0  0  0  0  0  0  0  0  0  0
  1  2  1  0  0  0  0
  1  3  1  0  0  0  0
  1  4  1  0  0  0  0
  1  5  1  0  0  0  0
  5  6  1  0  0  0  0
  5  7  1  0  0  0  0
  5  8  1  0  0  0  0
  8  9  1  0  0  0  0
  8 10  1  0  0  0  0
  8 11  1  0  0  0  0
 11 12  1  0  0  0  0
 11 13  1  0  0  0  0
 11 14  1  0  0  0  0
 14 15  1  0  0  0  0
 14 16  1  0  0  0  0
 14 17  1  0  0  0  0
 17 18  1  0  0  0  0
 17 19  1  0  0  0  0
 17 20  1  0  0  0  0
 20 21  1  0  0  0  0
 20 22  1  0  0  0  0
 22 23  1  0  0  0  0
 22 24  1  0  0  0  0
 22 25  1  0  0  0  0
 20 26  1  0  0  0  0
 26 27  1  0  0  0  0
 26 28  1  0  0  0  0
 26 29  1  0  0  0  0
M  END
> <VConfSearch Rank>
982

> <Conf_Id>
58

> <Delta U+W>
0.412

> <U+W>
-27.414

> <U>
24.279

> <W>
-51.694

> <W(PB)>
-54.271

> <W(SA)>
2.577

> <Valence>
3.709

> <Coulomb>
19.380

> <VdW>
1.191

> <VdW6>
-8.093

> <VdW12>
9.284

> <Bond>
0.200

> <Angle>
1.161

> <Pdih>
2.348

> <Idih>
0.000

> <Tether>
0.000

$$$$
VeraChem MOL file


 29 28  0  0  0  0  0  0  0  0999 V2000     
   21.4744   23.4470   23.9577 C   0  0  0  0  0  0  0  0  0  0  0  0
   21.0024   23.7942   23.0293 H   0  0  0  0  0  0  0  0  0  0  0  0
   20.7998   23.6797   24.7921 H   0  0  0  0  0  0  0  0  0  0  0  0
   22.3987   24.0214   24.1013 H   0  0  0  0  0  0  0  0  0  0  0  0
   21.7768   21.9349   23.8943 C   0  0  0  0  0  0  0  0  0  0  0  0
   22.2783   21.6242   24.8216 H   0  0  0  0  0  0  0  0  0  0  0  0
   22.4793   21.7378   23.0724 H   0  0  0  0  0  0  0  0  0  0  0  0
   20.4913   21.1026   23.6926 C   0  0  0  0  0  0  0  0  0  0  0  0
   19.7915   21.3045   24.5153 H   0  0  0  0  0  0  0  0  0  0  0  0
   19.9923   21.4184   22.7660 H   0  0  0  0  0  0  0  0  0  0  0  0
   20.7903   19.5878   23.6283 C   0  0  0  0  0  0  0  0  0  0  0  0
   21.2899   19.2734   24.5551 H   0  0  0  0  0  0  0  0  0  0  0  0
   21.4906   19.3870   22.8056 H   0  0  0  0  0  0  0  0  0  0  0  0
   19.5041   18.7552   23.4263 C   0  0  0  0  0  0  0  0  0  0  0  0
   18.8085   18.9615   24.2504 H   0  0  0  0  0  0  0  0  0  0  0  0
   19.0101   19.0799   22.5011 H   0  0  0  0  0  0  0  0  0  0  0  0
   19.8111   17.2365   23.3592 C   0  0  0  0  0  0  0  0  0  0  0  0
   20.3487   16.9369   24.2685 H   0  0  0  0  0  0  0  0  0  0  0  0
   20.4977   17.0417   22.5246 H   0  0  0  0  0  0  0  0  0  0  0  0
   18.5696   16.3268   23.2039 C   0  0  2  0  0  0  0  0  0  0  0  0
   18.9237   15.2912   23.2012 H   0  0  0  0  0  0  0  0  0  0  0  0
   17.8359   16.5708   21.8736 C   0  0  0  0  0  0  0  0  0  0  0  0
   17.0462   15.8234   21.7288 H   0  0  0  0  0  0  0  0  0  0  0  0
   17.3680   17.5619   21.8440 H   0  0  0  0  0  0  0  0  0  0  0  0
   18.5282   16.4914   21.0262 H   0  0  0  0  0  0  0  0  0  0  0  0
   17.6251   16.4411   24.3685 N   0  3  0  0  0  0  0  0  0  0  0  0
   18.0955   16.2364   25.2548 H   0  0  0  0  0  0  0  0  0  0  0  0
   16.8412   15.7881   24.2800 H   0  0  0  0  0  0  0  0  0  0  0  0
   17.2334   17.3837   24.4375 H   0  0  0  0  0  0  0  0  0  0  0  0
  1  2  1  0  0  0  0
  1  3  1  0  0  0  0
  1  4  1  0  0  0  0
  1  5  1  0  0  0  0
  5  6  1  0  0  0  0
  5  7  1  0  0  0  0
  5  8  1  0  0  0  0
  8  9  1  0  0  0  0
  8 10  1  0  0  0  0
  8 11  1  0  0  0  0
 11 12  1  0  0  0  0
 11 13  1  0  0  0  0
 11 14  1  0  0  0  0
 14 15  1  0  0  0  0
 14 16  1  0  0  0  0
 14 17  1  0  0  0  0
 17 18  1  0  0  0  0
 17 19  1  0  0  0  0
 17 20  1  0  0  0  0
 20 21  1  0  0  0  0
 20 22  1  0  0  0  0
 22 23  1  0  0  0  0
 22 24  1  0  0  0  0
 22 25  1  0  0  0  0
 20 26  1  0  0  0  0
 26 27  1  0  0  0  0
 26 28  1  0  0  0  0
 26 29  1  0  0  0  0
M  END
> <VConfSearch Rank>
983

> <Conf_Id>
137

> <Delta U+W>
0.280

> <U+W>
-27.546

> <U>
24.513

> <W>
-52.059

> <W(PB)>
-54.556

> <W(SA)>
2.497

> <Valence>
3.677

> <Coulomb>
19.662

> <VdW>
1.174

> <VdW6>
-8.569

> <VdW12>
9.743

> <Bond>
0.224

> <Angle>
1.211

> <Pdih>
2.243

> <Idih>
0.000

> <Tether>
0.000

$$$$
VeraChem MOL file


 29 28  0  0  0  0  0  0  0  0999 V2000     
   19.0661   19.5540   19.1305 C   0  0  0  0  0  0  0  0  0  0  0  0
   19.9869   20.1484   19.1932 H   0  0  0  0  0  0  0  0  0  0  0  0
   19.3437   18.5160   18.9055 H   0  0  0  0  0  0  0  0  0  0  0  0
   18.4755   19.9353   18.2874 H   0  0  0  0  0  0  0  0  0  0  0  0
   18.2597   19.6400   20.4437 C   0  0  0  0  0  0  0  0  0  0  0  0
   17.3292   19.0649   20.3378 H   0  0  0  0  0  0  0  0  0  0  0  0
   17.9684   20.6841   20.6250 H   0  0  0  0  0  0  0  0  0  0  0  0
   19.0685   19.1081   21.6475 C   0  0  0  0  0  0  0  0  0  0  0  0
   19.3551   18.0637   21.4624 H   0  0  0  0  0  0  0  0  0  0  0  0
   19.9985   19.6844   21.7344 H   0  0  0  0  0  0  0  0  0  0  0  0
   18.2617   19.1983   22.9653 C   0  0  0  0  0  0  0  0  0  0  0  0
   17.2982   18.6883   22.8272 H   0  0  0  0  0  0  0  0  0  0  0  0
   18.0252   20.2485   23.1851 H   0  0  0  0  0  0  0  0  0  0  0  0
   18.9798   18.5622   24.1812 C   0  0  0  0  0  0  0  0  0  0  0  0
   18.2695   18.5436   25.0176 H   0  0  0  0  0  0  0  0  0  0  0  0
   19.2228   17.5142   23.9578 H   0  0  0  0  0  0  0  0  0  0  0  0
   20.2651   19.3185   24.6076 C   0  0  0  0  0  0  0  0  0  0  0  0
   20.0204   20.3631   24.8412 H   0  0  0  0  0  0  0  0  0  0  0  0
   20.9626   19.3431   23.7618 H   0  0  0  0  0  0  0  0  0  0  0  0
   20.9965   18.6752   25.8083 C   0  0  2  0  0  0  0  0  0  0  0  0
   21.1748   17.6206   25.5768 H   0  0  0  0  0  0  0  0  0  0  0  0
   20.1724   18.7578   27.1060 C   0  0  0  0  0  0  0  0  0  0  0  0
   19.9093   19.7961   27.3436 H   0  0  0  0  0  0  0  0  0  0  0  0
   19.2464   18.1768   27.0297 H   0  0  0  0  0  0  0  0  0  0  0  0
   20.7409   18.3497   27.9507 H   0  0  0  0  0  0  0  0  0  0  0  0
   22.3494   19.2980   26.0145 N   0  3  0  0  0  0  0  0  0  0  0  0
   22.9343   19.2154   25.1779 H   0  0  0  0  0  0  0  0  0  0  0  0
   22.8541   18.8491   26.7843 H   0  0  0  0  0  0  0  0  0  0  0  0
   22.2724   20.2936   26.2393 H   0  0  0  0  0  0  0  0  0  0  0  0
  1  2  1  0  0  0  0
  1  3  1  0  0  0  0
  1  4  1  0  0  0  0
  1  5  1  0  0  0  0
  5  6  1  0  0  0  0
  5  7  1  0  0  0  0
  5  8  1  0  0  0  0
  8  9  1  0  0  0  0
  8 10  1  0  0  0  0
  8 11  1  0  0  0  0
 11 12  1  0  0  0  0
 11 13  1  0  0  0  0
 11 14  1  0  0  0  0
 14 15  1  0  0  0  0
 14 16  1  0  0  0  0
 14 17  1  0  0  0  0
 17 18  1  0  0  0  0
 17 19  1  0  0  0  0
 17 20  1  0  0  0  0
 20 21  1  0  0  0  0
 20 22  1  0  0  0  0
 22 23  1  0  0  0  0
 22 24  1  0  0  0  0
 22 25  1  0  0  0  0
 20 26  1  0  0  0  0
 26 27  1  0  0  0  0
 26 28  1  0  0  0  0
 26 29  1  0  0  0  0
M  END
> <VConfSearch Rank>
984

> <Conf_Id>
40

> <Delta U+W>
1.128

> <U+W>
-26.698

> <U>
25.442

> <W>
-52.140

> <W(PB)>
-54.658

> <W(SA)>
2.519

> <Valence>
4.343

> <Coulomb>
19.740

> <VdW>
1.360

> <VdW6>
-8.739

> <VdW12>
10.099

> <Bond>
0.251

> <Angle>
1.483

> <Pdih>
2.608

> <Idih>
0.000

> <Tether>
0.000

$$$$
VeraChem MOL file


 29 28  0  0  0  0  0  0  0  0999 V2000     
   18.4443   17.0368   27.1066 C   0  0  0  0  0  0  0  0  0  0  0  0
   17.9024   17.9872   27.1861 H   0  0  0  0  0  0  0  0  0  0  0  0
   17.8209   16.3306   26.5430 H   0  0  0  0  0  0  0  0  0  0  0  0
   18.5645   16.6407   28.1233 H   0  0  0  0  0  0  0  0  0  0  0  0
   19.8229   17.2218   26.4326 C   0  0  0  0  0  0  0  0  0  0  0  0
   20.3749   16.2735   26.4944 H   0  0  0  0  0  0  0  0  0  0  0  0
   20.4139   17.9585   26.9944 H   0  0  0  0  0  0  0  0  0  0  0  0
   19.7328   17.6458   24.9465 C   0  0  0  0  0  0  0  0  0  0  0  0
   20.7454   17.6142   24.5250 H   0  0  0  0  0  0  0  0  0  0  0  0
   19.1412   16.9062   24.3898 H   0  0  0  0  0  0  0  0  0  0  0  0
   19.1289   19.0591   24.7443 C   0  0  0  0  0  0  0  0  0  0  0  0
   19.7236   19.7998   25.2962 H   0  0  0  0  0  0  0  0  0  0  0  0
   18.1207   19.0884   25.1770 H   0  0  0  0  0  0  0  0  0  0  0  0
   19.0211   19.4825   23.2583 C   0  0  0  0  0  0  0  0  0  0  0  0
   18.4427   18.7309   22.7032 H   0  0  0  0  0  0  0  0  0  0  0  0
   18.4407   20.4133   23.2139 H   0  0  0  0  0  0  0  0  0  0  0  0
   20.3947   19.6981   22.5718 C   0  0  0  0  0  0  0  0  0  0  0  0
   20.9628   18.7601   22.5916 H   0  0  0  0  0  0  0  0  0  0  0  0
   20.9817   20.4338   23.1376 H   0  0  0  0  0  0  0  0  0  0  0  0
   20.2676   20.1560   21.1024 C   0  0  2  0  0  0  0  0  0  0  0  0
   19.6491   19.4280   20.5686 H   0  0  0  0  0  0  0  0  0  0  0  0
   21.6511   20.1961   20.4338 C   0  0  0  0  0  0  0  0  0  0  0  0
   21.5646   20.4871   19.3796 H   0  0  0  0  0  0  0  0  0  0  0  0
   22.3129   20.9145   20.9337 H   0  0  0  0  0  0  0  0  0  0  0  0
   22.1298   19.2095   20.4680 H   0  0  0  0  0  0  0  0  0  0  0  0
   19.5816   21.4883   20.9696 N   0  3  0  0  0  0  0  0  0  0  0  0
   20.1032   22.2259   21.4507 H   0  0  0  0  0  0  0  0  0  0  0  0
   18.6395   21.4654   21.3689 H   0  0  0  0  0  0  0  0  0  0  0  0
   19.4915   21.7663   19.9881 H   0  0  0  0  0  0  0  0  0  0  0  0
  1  2  1  0  0  0  0
  1  3  1  0  0  0  0
  1  4  1  0  0  0  0
  1  5  1  0  0  0  0
  5  6  1  0  0  0  0
  5  7  1  0  0  0  0
  5  8  1  0  0  0  0
  8  9  1  0  0  0  0
  8 10  1  0  0  0  0
  8 11  1  0  0  0  0
 11 12  1  0  0  0  0
 11 13  1  0  0  0  0
 11 14  1  0  0  0  0
 14 15  1  0  0  0  0
 14 16  1  0  0  0  0
 14 17  1  0  0  0  0
 17 18  1  0  0  0  0
 17 19  1  0  0  0  0
 17 20  1  0  0  0  0
 20 21  1  0  0  0  0
 20 22  1  0  0  0  0
 22 23  1  0  0  0  0
 22 24  1  0  0  0  0
 22 25  1  0  0  0  0
 20 26  1  0  0  0  0
 26 27  1  0  0  0  0
 26 28  1  0  0  0  0
 26 29  1  0  0  0  0
M  END
> <VConfSearch Rank>
985

> <Conf_Id>
134

> <Delta U+W>
1.228

> <U+W>
-26.598

> <U>
25.451

> <W>
-52.048

> <W(PB)>
-54.539

> <W(SA)>
2.490

> <Valence>
4.319

> <Coulomb>
19.732

> <VdW>
1.400

> <VdW6>
-9.173

> <VdW12>
10.573

> <Bond>
0.281

> <Angle>
1.459

> <Pdih>
2.580

> <Idih>
0.000

> <Tether>
0.000

$$$$
VeraChem MOL file


 29 28  0  0  0  0  0  0  0  0999 V2000     
   17.3717   15.6945   22.3440 C   0  0  0  0  0  0  0  0  0  0  0  0
   17.2860   16.2946   21.4298 H   0  0  0  0  0  0  0  0  0  0  0  0
   18.2635   15.0603   22.2577 H   0  0  0  0  0  0  0  0  0  0  0  0
   16.4947   15.0358   22.3886 H   0  0  0  0  0  0  0  0  0  0  0  0
   17.4430   16.5851   23.6052 C   0  0  0  0  0  0  0  0  0  0  0  0
   17.3974   15.9408   24.4943 H   0  0  0  0  0  0  0  0  0  0  0  0
   16.5575   17.2343   23.6506 H   0  0  0  0  0  0  0  0  0  0  0  0
   18.7277   17.4451   23.6826 C   0  0  0  0  0  0  0  0  0  0  0  0
   18.7505   17.9318   24.6661 H   0  0  0  0  0  0  0  0  0  0  0  0
   19.6096   16.7914   23.6391 H   0  0  0  0  0  0  0  0  0  0  0  0
   18.8177   18.5206   22.5703 C   0  0  0  0  0  0  0  0  0  0  0  0
   17.9364   19.1751   22.6150 H   0  0  0  0  0  0  0  0  0  0  0  0
   18.7906   18.0329   21.5874 H   0  0  0  0  0  0  0  0  0  0  0  0
   20.1056   19.3775   22.6434 C   0  0  0  0  0  0  0  0  0  0  0  0
   20.9798   18.7159   22.5822 H   0  0  0  0  0  0  0  0  0  0  0  0
   20.1429   20.0250   21.7564 H   0  0  0  0  0  0  0  0  0  0  0  0
   20.1899   20.2609   23.9149 C   0  0  0  0  0  0  0  0  0  0  0  0
   20.3009   19.6308   24.8062 H   0  0  0  0  0  0  0  0  0  0  0  0
   19.2415   20.8022   24.0290 H   0  0  0  0  0  0  0  0  0  0  0  0
   21.3406   21.2920   23.8751 C   0  0  2  0  0  0  0  0  0  0  0  0
   21.2352   21.8890   22.9640 H   0  0  0  0  0  0  0  0  0  0  0  0
   22.7231   20.6157   23.8573 C   0  0  0  0  0  0  0  0  0  0  0  0
   22.8540   19.9575   24.7252 H   0  0  0  0  0  0  0  0  0  0  0  0
   22.8630   20.0187   22.9488 H   0  0  0  0  0  0  0  0  0  0  0  0
   23.5214   21.3679   23.8774 H   0  0  0  0  0  0  0  0  0  0  0  0
   21.2467   22.2548   25.0260 N   0  3  0  0  0  0  0  0  0  0  0  0
   20.3494   22.7486   25.0323 H   0  0  0  0  0  0  0  0  0  0  0  0
   21.9841   22.9639   24.9814 H   0  0  0  0  0  0  0  0  0  0  0  0
   21.3395   21.7737   25.9247 H   0  0  0  0  0  0  0  0  0  0  0  0
  1  2  1  0  0  0  0
  1  3  1  0  0  0  0
  1  4  1  0  0  0  0
  1  5  1  0  0  0  0
  5  6  1  0  0  0  0
  5  7  1  0  0  0  0
  5  8  1  0  0  0  0
  8  9  1  0  0  0  0
  8 10  1  0  0  0  0
  8 11  1  0  0  0  0
 11 12  1  0  0  0  0
 11 13  1  0  0  0  0
 11 14  1  0  0  0  0
 14 15  1  0  0  0  0
 14 16  1  0  0  0  0
 14 17  1  0  0  0  0
 17 18  1  0  0  0  0
 17 19  1  0  0  0  0
 17 20  1  0  0  0  0
 20 21  1  0  0  0  0
 20 22  1  0  0  0  0
 22 23  1  0  0  0  0
 22 24  1  0  0  0  0
 22 25  1  0  0  0  0
 20 26  1  0  0  0  0
 26 27  1  0  0  0  0
 26 28  1  0  0  0  0
 26 29  1  0  0  0  0
M  END
> <VConfSearch Rank>
986

> <Conf_Id>
73

> <Delta U+W>
1.580

> <U+W>
-26.246

> <U>
25.821

> <W>
-52.067

> <W(PB)>
-54.581

> <W(SA)>
2.514

> <Valence>
4.779

> <Coulomb>
19.614

> <VdW>
1.428

> <VdW6>
-9.390

> <VdW12>
10.818

> <Bond>
0.283

> <Angle>
1.640

> <Pdih>
2.856

> <Idih>
0.000

> <Tether>
0.000

$$$$
VeraChem MOL file


 29 28  0  0  0  0  0  0  0  0999 V2000     
   18.0432   22.4260   21.1604 C   0  0  0  0  0  0  0  0  0  0  0  0
   17.6682   21.5965   20.5467 H   0  0  0  0  0  0  0  0  0  0  0  0
   17.3318   23.2576   21.0740 H   0  0  0  0  0  0  0  0  0  0  0  0
   19.0015   22.7570   20.7393 H   0  0  0  0  0  0  0  0  0  0  0  0
   18.2037   21.9972   22.6343 C   0  0  0  0  0  0  0  0  0  0  0  0
   17.2244   21.7031   23.0373 H   0  0  0  0  0  0  0  0  0  0  0  0
   18.5461   22.8563   23.2281 H   0  0  0  0  0  0  0  0  0  0  0  0
   19.2015   20.8276   22.7843 C   0  0  0  0  0  0  0  0  0  0  0  0
   18.8525   19.9813   22.1786 H   0  0  0  0  0  0  0  0  0  0  0  0
   20.1792   21.1273   22.3826 H   0  0  0  0  0  0  0  0  0  0  0  0
   19.3592   20.3940   24.2617 C   0  0  0  0  0  0  0  0  0  0  0  0
   18.3946   20.0374   24.6488 H   0  0  0  0  0  0  0  0  0  0  0  0
   19.6266   21.2732   24.8640 H   0  0  0  0  0  0  0  0  0  0  0  0
   20.4399   19.3063   24.4793 C   0  0  0  0  0  0  0  0  0  0  0  0
   21.4046   19.6651   24.0945 H   0  0  0  0  0  0  0  0  0  0  0  0
   20.5699   19.1698   25.5608 H   0  0  0  0  0  0  0  0  0  0  0  0
   20.0895   17.9455   23.8239 C   0  0  0  0  0  0  0  0  0  0  0  0
   19.9858   18.0806   22.7403 H   0  0  0  0  0  0  0  0  0  0  0  0
   19.1162   17.5950   24.1923 H   0  0  0  0  0  0  0  0  0  0  0  0
   21.1605   16.8621   24.0771 C   0  0  2  0  0  0  0  0  0  0  0  0
   22.1261   17.2480   23.7359 H   0  0  0  0  0  0  0  0  0  0  0  0
   20.8369   15.5927   23.2731 C   0  0  0  0  0  0  0  0  0  0  0  0
   20.7877   15.8129   22.1993 H   0  0  0  0  0  0  0  0  0  0  0  0
   21.6124   14.8311   23.4209 H   0  0  0  0  0  0  0  0  0  0  0  0
   19.8740   15.1642   23.5784 H   0  0  0  0  0  0  0  0  0  0  0  0
   21.3161   16.5336   25.5369 N   0  3  0  0  0  0  0  0  0  0  0  0
   22.0420   15.8269   25.6859 H   0  0  0  0  0  0  0  0  0  0  0  0
   20.4457   16.1672   25.9314 H   0  0  0  0  0  0  0  0  0  0  0  0
   21.5776   17.3603   26.0806 H   0  0  0  0  0  0  0  0  0  0  0  0
  1  2  1  0  0  0  0
  1  3  1  0  0  0  0
  1  4  1  0  0  0  0
  1  5  1  0  0  0  0
  5  6  1  0  0  0  0
  5  7  1  0  0  0  0
  5  8  1  0  0  0  0
  8  9  1  0  0  0  0
  8 10  1  0  0  0  0
  8 11  1  0  0  0  0
 11 12  1  0  0  0  0
 11 13  1  0  0  0  0
 11 14  1  0  0  0  0
 14 15  1  0  0  0  0
 14 16  1  0  0  0  0
 14 17  1  0  0  0  0
 17 18  1  0  0  0  0
 17 19  1  0  0  0  0
 17 20  1  0  0  0  0
 20 21  1  0  0  0  0
 20 22  1  0  0  0  0
 22 23  1  0  0  0  0
 22 24  1  0  0  0  0
 22 25  1  0  0  0  0
 20 26  1  0  0  0  0
 26 27  1  0  0  0  0
 26 28  1  0  0  0  0
 26 29  1  0  0  0  0
M  END
> <VConfSearch Rank>
987

> <Conf_Id>
111

> <Delta U+W>
0.580

> <U+W>
-27.246

> <U>
24.710

> <W>
-51.957

> <W(PB)>
-54.511

> <W(SA)>
2.555

> <Valence>
3.735

> <Coulomb>
19.760

> <VdW>
1.216

> <VdW6>
-8.624

> <VdW12>
9.840

> <Bond>
0.236

> <Angle>
1.168

> <Pdih>
2.330

> <Idih>
0.000

> <Tether>
0.000

$$$$
VeraChem MOL file


 29 28  0  0  0  0  0  0  0  0999 V2000     
   15.5861   20.4248   22.9657 C   0  0  0  0  0  0  0  0  0  0  0  0
   15.6764   21.1806   23.7569 H   0  0  0  0  0  0  0  0  0  0  0  0
   16.0120   20.8421   22.0439 H   0  0  0  0  0  0  0  0  0  0  0  0
   14.5173   20.2448   22.7918 H   0  0  0  0  0  0  0  0  0  0  0  0
   16.3012   19.1165   23.3645 C   0  0  0  0  0  0  0  0  0  0  0  0
   16.1658   18.3699   22.5695 H   0  0  0  0  0  0  0  0  0  0  0  0
   15.8310   18.7056   24.2689 H   0  0  0  0  0  0  0  0  0  0  0  0
   17.8084   19.3423   23.6161 C   0  0  0  0  0  0  0  0  0  0  0  0
   18.2639   19.7608   22.7091 H   0  0  0  0  0  0  0  0  0  0  0  0
   17.9386   20.0878   24.4127 H   0  0  0  0  0  0  0  0  0  0  0  0
   18.5272   18.0303   24.0121 C   0  0  0  0  0  0  0  0  0  0  0  0
   18.4429   17.3004   23.1952 H   0  0  0  0  0  0  0  0  0  0  0  0
   18.0128   17.5868   24.8759 H   0  0  0  0  0  0  0  0  0  0  0  0
   20.0183   18.2299   24.3785 C   0  0  0  0  0  0  0  0  0  0  0  0
   20.0896   18.9363   25.2162 H   0  0  0  0  0  0  0  0  0  0  0  0
   20.4189   17.2737   24.7426 H   0  0  0  0  0  0  0  0  0  0  0  0
   20.8843   18.7201   23.1895 C   0  0  0  0  0  0  0  0  0  0  0  0
   20.5882   19.7366   22.9011 H   0  0  0  0  0  0  0  0  0  0  0  0
   20.6846   18.0771   22.3223 H   0  0  0  0  0  0  0  0  0  0  0  0
   22.4024   18.6948   23.4789 C   0  0  2  0  0  0  0  0  0  0  0  0
   22.6741   17.6841   23.7986 H   0  0  0  0  0  0  0  0  0  0  0  0
   22.7955   19.6807   24.5936 C   0  0  0  0  0  0  0  0  0  0  0  0
   22.4889   20.7043   24.3444 H   0  0  0  0  0  0  0  0  0  0  0  0
   22.3337   19.4066   25.5492 H   0  0  0  0  0  0  0  0  0  0  0  0
   23.8818   19.6785   24.7458 H   0  0  0  0  0  0  0  0  0  0  0  0
   23.1970   18.9735   22.2334 N   0  3  0  0  0  0  0  0  0  0  0  0
   22.9825   18.3014   21.4910 H   0  0  0  0  0  0  0  0  0  0  0  0
   24.2038   18.9186   22.4122 H   0  0  0  0  0  0  0  0  0  0  0  0
   23.0024   19.9093   21.8671 H   0  0  0  0  0  0  0  0  0  0  0  0
  1  2  1  0  0  0  0
  1  3  1  0  0  0  0
  1  4  1  0  0  0  0
  1  5  1  0  0  0  0
  5  6  1  0  0  0  0
  5  7  1  0  0  0  0
  5  8  1  0  0  0  0
  8  9  1  0  0  0  0
  8 10  1  0  0  0  0
  8 11  1  0  0  0  0
 11 12  1  0  0  0  0
 11 13  1  0  0  0  0
 11 14  1  0  0  0  0
 14 15  1  0  0  0  0
 14 16  1  0  0  0  0
 14 17  1  0  0  0  0
 17 18  1  0  0  0  0
 17 19  1  0  0  0  0
 17 20  1  0  0  0  0
 20 21  1  0  0  0  0
 20 22  1  0  0  0  0
 22 23  1  0  0  0  0
 22 24  1  0  0  0  0
 22 25  1  0  0  0  0
 20 26  1  0  0  0  0
 26 27  1  0  0  0  0
 26 28  1  0  0  0  0
 26 29  1  0  0  0  0
M  END
> <VConfSearch Rank>
988

> <Conf_Id>
39

> <Delta U+W>
0.965

> <U+W>
-26.861

> <U>
25.129

> <W>
-51.990

> <W(PB)>
-54.526

> <W(SA)>
2.536

> <Valence>
4.206

> <Coulomb>
19.678

> <VdW>
1.245

> <VdW6>
-8.834

> <VdW12>
10.079

> <Bond>
0.240

> <Angle>
1.353

> <Pdih>
2.613

> <Idih>
0.000

> <Tether>
0.000

$$$$
VeraChem MOL file


 29 28  0  0  0  0  0  0  0  0999 V2000     
   17.9117   19.7912   19.7361 C   0  0  0  0  0  0  0  0  0  0  0  0
   18.8757   20.0978   19.3097 H   0  0  0  0  0  0  0  0  0  0  0  0
   17.8991   18.6967   19.8073 H   0  0  0  0  0  0  0  0  0  0  0  0
   17.1242   20.0841   19.0297 H   0  0  0  0  0  0  0  0  0  0  0  0
   17.6766   20.4542   21.1123 C   0  0  0  0  0  0  0  0  0  0  0  0
   16.7236   20.1050   21.5337 H   0  0  0  0  0  0  0  0  0  0  0  0
   17.5695   21.5383   20.9672 H   0  0  0  0  0  0  0  0  0  0  0  0
   18.8207   20.2012   22.1239 C   0  0  0  0  0  0  0  0  0  0  0  0
   19.7706   20.5527   21.6984 H   0  0  0  0  0  0  0  0  0  0  0  0
   18.6304   20.8190   23.0107 H   0  0  0  0  0  0  0  0  0  0  0  0
   18.9536   18.7156   22.5455 C   0  0  0  0  0  0  0  0  0  0  0  0
   19.1356   18.0993   21.6557 H   0  0  0  0  0  0  0  0  0  0  0  0
   18.0051   18.3654   22.9752 H   0  0  0  0  0  0  0  0  0  0  0  0
   20.1052   18.4571   23.5483 C   0  0  0  0  0  0  0  0  0  0  0  0
   20.2075   17.3716   23.6759 H   0  0  0  0  0  0  0  0  0  0  0  0
   21.0484   18.8080   23.1091 H   0  0  0  0  0  0  0  0  0  0  0  0
   19.8795   19.1219   24.9338 C   0  0  0  0  0  0  0  0  0  0  0  0
   18.8833   18.8510   25.3071 H   0  0  0  0  0  0  0  0  0  0  0  0
   19.8770   20.2135   24.8250 H   0  0  0  0  0  0  0  0  0  0  0  0
   20.9246   18.7471   26.0110 C   0  0  2  0  0  0  0  0  0  0  0  0
   20.6464   19.2715   26.9304 H   0  0  0  0  0  0  0  0  0  0  0  0
   22.3418   19.2047   25.6243 C   0  0  0  0  0  0  0  0  0  0  0  0
   22.7247   18.6501   24.7594 H   0  0  0  0  0  0  0  0  0  0  0  0
   22.3529   20.2742   25.3798 H   0  0  0  0  0  0  0  0  0  0  0  0
   23.0368   19.0469   26.4582 H   0  0  0  0  0  0  0  0  0  0  0  0
   20.9047   17.2811   26.3465 N   0  3  0  0  0  0  0  0  0  0  0  0
   19.9738   16.9774   26.6463 H   0  0  0  0  0  0  0  0  0  0  0  0
   21.5572   17.0621   27.1047 H   0  0  0  0  0  0  0  0  0  0  0  0
   21.1698   16.7117   25.5392 H   0  0  0  0  0  0  0  0  0  0  0  0
  1  2  1  0  0  0  0
  1  3  1  0  0  0  0
  1  4  1  0  0  0  0
  1  5  1  0  0  0  0
  5  6  1  0  0  0  0
  5  7  1  0  0  0  0
  5  8  1  0  0  0  0
  8  9  1  0  0  0  0
  8 10  1  0  0  0  0
  8 11  1  0  0  0  0
 11 12  1  0  0  0  0
 11 13  1  0  0  0  0
 11 14  1  0  0  0  0
 14 15  1  0  0  0  0
 14 16  1  0  0  0  0
 14 17  1  0  0  0  0
 17 18  1  0  0  0  0
 17 19  1  0  0  0  0
 17 20  1  0  0  0  0
 20 21  1  0  0  0  0
 20 22  1  0  0  0  0
 22 23  1  0  0  0  0
 22 24  1  0  0  0  0
 22 25  1  0  0  0  0
 20 26  1  0  0  0  0
 26 27  1  0  0  0  0
 26 28  1  0  0  0  0
 26 29  1  0  0  0  0
M  END
> <VConfSearch Rank>
989

> <Conf_Id>
155

> <Delta U+W>
1.624

> <U+W>
-26.202

> <U>
25.894

> <W>
-52.096

> <W(PB)>
-54.602

> <W(SA)>
2.506

> <Valence>
4.779

> <Coulomb>
19.659

> <VdW>
1.456

> <VdW6>
-9.843

> <VdW12>
11.299

> <Bond>
0.315

> <Angle>
1.725

> <Pdih>
2.740

> <Idih>
0.000

> <Tether>
0.000

$$$$
VeraChem MOL file


 29 28  0  0  0  0  0  0  0  0999 V2000     
   15.8676   20.2065   24.1375 C   0  0  0  0  0  0  0  0  0  0  0  0
   16.2602   20.0465   25.1494 H   0  0  0  0  0  0  0  0  0  0  0  0
   16.2900   21.1420   23.7483 H   0  0  0  0  0  0  0  0  0  0  0  0
   14.7811   20.3379   24.2218 H   0  0  0  0  0  0  0  0  0  0  0  0
   16.1982   19.0180   23.2067 C   0  0  0  0  0  0  0  0  0  0  0  0
   15.6888   19.1684   22.2446 H   0  0  0  0  0  0  0  0  0  0  0  0
   15.7872   18.0911   23.6306 H   0  0  0  0  0  0  0  0  0  0  0  0
   17.7141   18.8474   22.9455 C   0  0  0  0  0  0  0  0  0  0  0  0
   17.8527   18.0509   22.2016 H   0  0  0  0  0  0  0  0  0  0  0  0
   18.1041   19.7683   22.4928 H   0  0  0  0  0  0  0  0  0  0  0  0
   18.5198   18.4957   24.2218 C   0  0  0  0  0  0  0  0  0  0  0  0
   18.0301   17.6543   24.7311 H   0  0  0  0  0  0  0  0  0  0  0  0
   18.4982   19.3384   24.9254 H   0  0  0  0  0  0  0  0  0  0  0  0
   19.9918   18.1062   23.9388 C   0  0  0  0  0  0  0  0  0  0  0  0
   20.4301   17.7459   24.8782 H   0  0  0  0  0  0  0  0  0  0  0  0
   20.0203   17.2597   23.2389 H   0  0  0  0  0  0  0  0  0  0  0  0
   20.8443   19.2757   23.3812 C   0  0  0  0  0  0  0  0  0  0  0  0
   20.8255   20.1172   24.0863 H   0  0  0  0  0  0  0  0  0  0  0  0
   20.3891   19.6376   22.4514 H   0  0  0  0  0  0  0  0  0  0  0  0
   22.3090   18.8873   23.0743 C   0  0  2  0  0  0  0  0  0  0  0  0
   22.3018   18.0104   22.4195 H   0  0  0  0  0  0  0  0  0  0  0  0
   23.0994   18.5386   24.3485 C   0  0  0  0  0  0  0  0  0  0  0  0
   23.0771   19.3665   25.0682 H   0  0  0  0  0  0  0  0  0  0  0  0
   22.6951   17.6456   24.8385 H   0  0  0  0  0  0  0  0  0  0  0  0
   24.1482   18.3271   24.1064 H   0  0  0  0  0  0  0  0  0  0  0  0
   23.0100   19.9782   22.3133 N   0  3  0  0  0  0  0  0  0  0  0  0
   22.5271   20.1973   21.4371 H   0  0  0  0  0  0  0  0  0  0  0  0
   23.9688   19.7101   22.0735 H   0  0  0  0  0  0  0  0  0  0  0  0
   23.0621   20.8417   22.8605 H   0  0  0  0  0  0  0  0  0  0  0  0
  1  2  1  0  0  0  0
  1  3  1  0  0  0  0
  1  4  1  0  0  0  0
  1  5  1  0  0  0  0
  5  6  1  0  0  0  0
  5  7  1  0  0  0  0
  5  8  1  0  0  0  0
  8  9  1  0  0  0  0
  8 10  1  0  0  0  0
  8 11  1  0  0  0  0
 11 12  1  0  0  0  0
 11 13  1  0  0  0  0
 11 14  1  0  0  0  0
 14 15  1  0  0  0  0
 14 16  1  0  0  0  0
 14 17  1  0  0  0  0
 17 18  1  0  0  0  0
 17 19  1  0  0  0  0
 17 20  1  0  0  0  0
 20 21  1  0  0  0  0
 20 22  1  0  0  0  0
 22 23  1  0  0  0  0
 22 24  1  0  0  0  0
 22 25  1  0  0  0  0
 20 26  1  0  0  0  0
 26 27  1  0  0  0  0
 26 28  1  0  0  0  0
 26 29  1  0  0  0  0
M  END
> <VConfSearch Rank>
990

> <Conf_Id>
135

> <Delta U+W>
1.581

> <U+W>
-26.245

> <U>
25.974

> <W>
-52.219

> <W(PB)>
-54.709

> <W(SA)>
2.490

> <Valence>
4.811

> <Coulomb>
19.700

> <VdW>
1.463

> <VdW6>
-9.391

> <VdW12>
10.854

> <Bond>
0.285

> <Angle>
1.671

> <Pdih>
2.855

> <Idih>
0.000

> <Tether>
0.000

$$$$
VeraChem MOL file


 29 28  0  0  0  0  0  0  0  0999 V2000     
   21.8859   15.9809   22.0946 C   0  0  0  0  0  0  0  0  0  0  0  0
   20.8596   15.6147   21.9618 H   0  0  0  0  0  0  0  0  0  0  0  0
   22.0828   16.7391   21.3265 H   0  0  0  0  0  0  0  0  0  0  0  0
   22.5686   15.1409   21.9121 H   0  0  0  0  0  0  0  0  0  0  0  0
   22.0938   16.5477   23.5172 C   0  0  0  0  0  0  0  0  0  0  0  0
   23.1190   16.9311   23.6161 H   0  0  0  0  0  0  0  0  0  0  0  0
   22.0009   15.7276   24.2428 H   0  0  0  0  0  0  0  0  0  0  0  0
   21.0815   17.6576   23.8889 C   0  0  0  0  0  0  0  0  0  0  0  0
   20.0632   17.2538   23.8148 H   0  0  0  0  0  0  0  0  0  0  0  0
   21.2328   17.9298   24.9426 H   0  0  0  0  0  0  0  0  0  0  0  0
   21.2155   18.9286   23.0128 C   0  0  0  0  0  0  0  0  0  0  0  0
   20.9509   18.6984   21.9723 H   0  0  0  0  0  0  0  0  0  0  0  0
   22.2668   19.2477   23.0021 H   0  0  0  0  0  0  0  0  0  0  0  0
   20.3475   20.1106   23.5094 C   0  0  0  0  0  0  0  0  0  0  0  0
   20.6424   20.3651   24.5360 H   0  0  0  0  0  0  0  0  0  0  0  0
   20.5725   20.9921   22.8932 H   0  0  0  0  0  0  0  0  0  0  0  0
   18.8252   19.8237   23.4449 C   0  0  0  0  0  0  0  0  0  0  0  0
   18.5604   19.0321   24.1574 H   0  0  0  0  0  0  0  0  0  0  0  0
   18.5836   19.4393   22.4452 H   0  0  0  0  0  0  0  0  0  0  0  0
   17.9494   21.0679   23.7163 C   0  0  2  0  0  0  0  0  0  0  0  0
   18.2510   21.8580   23.0218 H   0  0  0  0  0  0  0  0  0  0  0  0
   18.1181   21.5919   25.1537 C   0  0  0  0  0  0  0  0  0  0  0  0
   17.8835   20.8131   25.8900 H   0  0  0  0  0  0  0  0  0  0  0  0
   19.1423   21.9382   25.3340 H   0  0  0  0  0  0  0  0  0  0  0  0
   17.4511   22.4436   25.3351 H   0  0  0  0  0  0  0  0  0  0  0  0
   16.5005   20.7841   23.4325 N   0  3  0  0  0  0  0  0  0  0  0  0
   15.9219   21.6172   23.5730 H   0  0  0  0  0  0  0  0  0  0  0  0
   16.1354   20.0514   24.0470 H   0  0  0  0  0  0  0  0  0  0  0  0
   16.3591   20.4747   22.4665 H   0  0  0  0  0  0  0  0  0  0  0  0
  1  2  1  0  0  0  0
  1  3  1  0  0  0  0
  1  4  1  0  0  0  0
  1  5  1  0  0  0  0
  5  6  1  0  0  0  0
  5  7  1  0  0  0  0
  5  8  1  0  0  0  0
  8  9  1  0  0  0  0
  8 10  1  0  0  0  0
  8 11  1  0  0  0  0
 11 12  1  0  0  0  0
 11 13  1  0  0  0  0
 11 14  1  0  0  0  0
 14 15  1  0  0  0  0
 14 16  1  0  0  0  0
 14 17  1  0  0  0  0
 17 18  1  0  0  0  0
 17 19  1  0  0  0  0
 17 20  1  0  0  0  0
 20 21  1  0  0  0  0
 20 22  1  0  0  0  0
 22 23  1  0  0  0  0
 22 24  1  0  0  0  0
 22 25  1  0  0  0  0
 20 26  1  0  0  0  0
 26 27  1  0  0  0  0
 26 28  1  0  0  0  0
 26 29  1  0  0  0  0
M  END
> <VConfSearch Rank>
991

> <Conf_Id>
130

> <Delta U+W>
1.359

> <U+W>
-26.467

> <U>
25.687

> <W>
-52.154

> <W(PB)>
-54.643

> <W(SA)>
2.489

> <Valence>
4.682

> <Coulomb>
19.653

> <VdW>
1.352

> <VdW6>
-9.477

> <VdW12>
10.829

> <Bond>
0.274

> <Angle>
1.550

> <Pdih>
2.858

> <Idih>
0.000

> <Tether>
0.000

$$$$
VeraChem MOL file


 29 28  0  0  0  0  0  0  0  0999 V2000     
   22.4047   16.9120   25.7721 C   0  0  0  0  0  0  0  0  0  0  0  0
   22.6189   15.9275   26.2079 H   0  0  0  0  0  0  0  0  0  0  0  0
   23.3521   17.4623   25.7042 H   0  0  0  0  0  0  0  0  0  0  0  0
   21.7462   17.4444   26.4693 H   0  0  0  0  0  0  0  0  0  0  0  0
   21.7516   16.7563   24.3801 C   0  0  0  0  0  0  0  0  0  0  0  0
   20.7905   16.2326   24.4792 H   0  0  0  0  0  0  0  0  0  0  0  0
   22.3903   16.1116   23.7603 H   0  0  0  0  0  0  0  0  0  0  0  0
   21.5410   18.1011   23.6432 C   0  0  0  0  0  0  0  0  0  0  0  0
   22.5075   18.6112   23.5310 H   0  0  0  0  0  0  0  0  0  0  0  0
   21.1905   17.8823   22.6267 H   0  0  0  0  0  0  0  0  0  0  0  0
   20.5351   19.0419   24.3547 C   0  0  0  0  0  0  0  0  0  0  0  0
   20.9309   19.3067   25.3437 H   0  0  0  0  0  0  0  0  0  0  0  0
   19.5936   18.5084   24.5327 H   0  0  0  0  0  0  0  0  0  0  0  0
   20.2755   20.3571   23.5749 C   0  0  0  0  0  0  0  0  0  0  0  0
   19.8088   21.0944   24.2427 H   0  0  0  0  0  0  0  0  0  0  0  0
   21.2457   20.7902   23.2948 H   0  0  0  0  0  0  0  0  0  0  0  0
   19.4061   20.1958   22.2970 C   0  0  0  0  0  0  0  0  0  0  0  0
   19.5084   19.1881   21.8770 H   0  0  0  0  0  0  0  0  0  0  0  0
   19.8037   20.8786   21.5346 H   0  0  0  0  0  0  0  0  0  0  0  0
   17.9083   20.5334   22.4894 C   0  0  2  0  0  0  0  0  0  0  0  0
   17.8358   21.5567   22.8702 H   0  0  0  0  0  0  0  0  0  0  0  0
   17.2123   19.5972   23.4917 C   0  0  0  0  0  0  0  0  0  0  0  0
   17.6185   19.7296   24.5011 H   0  0  0  0  0  0  0  0  0  0  0  0
   16.1387   19.8162   23.5447 H   0  0  0  0  0  0  0  0  0  0  0  0
   17.3319   18.5456   23.2026 H   0  0  0  0  0  0  0  0  0  0  0  0
   17.1793   20.5201   21.1745 N   0  3  0  0  0  0  0  0  0  0  0  0
   17.5972   21.1727   20.5049 H   0  0  0  0  0  0  0  0  0  0  0  0
   16.1976   20.7882   21.2887 H   0  0  0  0  0  0  0  0  0  0  0  0
   17.1943   19.5897   20.7482 H   0  0  0  0  0  0  0  0  0  0  0  0
  1  2  1  0  0  0  0
  1  3  1  0  0  0  0
  1  4  1  0  0  0  0
  1  5  1  0  0  0  0
  5  6  1  0  0  0  0
  5  7  1  0  0  0  0
  5  8  1  0  0  0  0
  8  9  1  0  0  0  0
  8 10  1  0  0  0  0
  8 11  1  0  0  0  0
 11 12  1  0  0  0  0
 11 13  1  0  0  0  0
 11 14  1  0  0  0  0
 14 15  1  0  0  0  0
 14 16  1  0  0  0  0
 14 17  1  0  0  0  0
 17 18  1  0  0  0  0
 17 19  1  0  0  0  0
 17 20  1  0  0  0  0
 20 21  1  0  0  0  0
 20 22  1  0  0  0  0
 22 23  1  0  0  0  0
 22 24  1  0  0  0  0
 22 25  1  0  0  0  0
 20 26  1  0  0  0  0
 26 27  1  0  0  0  0
 26 28  1  0  0  0  0
 26 29  1  0  0  0  0
M  END
> <VConfSearch Rank>
992

> <Conf_Id>
157

> <Delta U+W>
4.354

> <U+W>
-23.472

> <U>
28.780

> <W>
-52.252

> <W(PB)>
-54.715

> <W(SA)>
2.462

> <Valence>
7.566

> <Coulomb>
19.822

> <VdW>
1.392

> <VdW6>
-10.248

> <VdW12>
11.641

> <Bond>
0.340

> <Angle>
2.096

> <Pdih>
5.129

> <Idih>
0.000

> <Tether>
0.000

$$$$
VeraChem MOL file


 29 28  0  0  0  0  0  0  0  0999 V2000     
   19.9136   15.9786   21.6030 C   0  0  0  0  0  0  0  0  0  0  0  0
   19.4156   15.4079   20.8086 H   0  0  0  0  0  0  0  0  0  0  0  0
   20.1007   16.9878   21.2200 H   0  0  0  0  0  0  0  0  0  0  0  0
   20.8853   15.5049   21.7940 H   0  0  0  0  0  0  0  0  0  0  0  0
   19.0466   15.9930   22.8835 C   0  0  0  0  0  0  0  0  0  0  0  0
   18.8875   14.9515   23.1962 H   0  0  0  0  0  0  0  0  0  0  0  0
   18.0488   16.3984   22.6652 H   0  0  0  0  0  0  0  0  0  0  0  0
   19.6985   16.7675   24.0578 C   0  0  0  0  0  0  0  0  0  0  0  0
   19.4527   16.2424   24.9912 H   0  0  0  0  0  0  0  0  0  0  0  0
   20.7935   16.7289   23.9771 H   0  0  0  0  0  0  0  0  0  0  0  0
   19.2270   18.2365   24.2123 C   0  0  0  0  0  0  0  0  0  0  0  0
   19.7000   18.6462   25.1141 H   0  0  0  0  0  0  0  0  0  0  0  0
   18.1446   18.2534   24.4002 H   0  0  0  0  0  0  0  0  0  0  0  0
   19.5509   19.1403   22.9972 C   0  0  0  0  0  0  0  0  0  0  0  0
   20.6176   19.0642   22.7482 H   0  0  0  0  0  0  0  0  0  0  0  0
   19.0014   18.7741   22.1207 H   0  0  0  0  0  0  0  0  0  0  0  0
   19.1587   20.6245   23.2151 C   0  0  0  0  0  0  0  0  0  0  0  0
   18.0747   20.6828   23.3807 H   0  0  0  0  0  0  0  0  0  0  0  0
   19.3577   21.1843   22.2916 H   0  0  0  0  0  0  0  0  0  0  0  0
   19.8857   21.3120   24.3928 C   0  0  2  0  0  0  0  0  0  0  0  0
   19.6535   20.7637   25.3102 H   0  0  0  0  0  0  0  0  0  0  0  0
   19.3857   22.7556   24.5599 C   0  0  0  0  0  0  0  0  0  0  0  0
   19.6000   23.3562   23.6670 H   0  0  0  0  0  0  0  0  0  0  0  0
   18.3025   22.7749   24.7329 H   0  0  0  0  0  0  0  0  0  0  0  0
   19.8687   23.2366   25.4194 H   0  0  0  0  0  0  0  0  0  0  0  0
   21.3815   21.2839   24.2386 N   0  3  0  0  0  0  0  0  0  0  0  0
   21.7283   20.3235   24.1652 H   0  0  0  0  0  0  0  0  0  0  0  0
   21.8490   21.7205   25.0382 H   0  0  0  0  0  0  0  0  0  0  0  0
   21.6787   21.7853   23.3973 H   0  0  0  0  0  0  0  0  0  0  0  0
  1  2  1  0  0  0  0
  1  3  1  0  0  0  0
  1  4  1  0  0  0  0
  1  5  1  0  0  0  0
  5  6  1  0  0  0  0
  5  7  1  0  0  0  0
  5  8  1  0  0  0  0
  8  9  1  0  0  0  0
  8 10  1  0  0  0  0
  8 11  1  0  0  0  0
 11 12  1  0  0  0  0
 11 13  1  0  0  0  0
 11 14  1  0  0  0  0
 14 15  1  0  0  0  0
 14 16  1  0  0  0  0
 14 17  1  0  0  0  0
 17 18  1  0  0  0  0
 17 19  1  0  0  0  0
 17 20  1  0  0  0  0
 20 21  1  0  0  0  0
 20 22  1  0  0  0  0
 22 23  1  0  0  0  0
 22 24  1  0  0  0  0
 22 25  1  0  0  0  0
 20 26  1  0  0  0  0
 26 27  1  0  0  0  0
 26 28  1  0  0  0  0
 26 29  1  0  0  0  0
M  END
> <VConfSearch Rank>
993

> <Conf_Id>
158

> <Delta U+W>
3.648

> <U+W>
-24.178

> <U>
28.057

> <W>
-52.235

> <W(PB)>
-54.696

> <W(SA)>
2.460

> <Valence>
6.543

> <Coulomb>
20.387

> <VdW>
1.127

> <VdW6>
-10.342

> <VdW12>
11.469

> <Bond>
0.308

> <Angle>
1.938

> <Pdih>
4.297

> <Idih>
0.000

> <Tether>
0.000

$$$$
VeraChem MOL file


 29 28  0  0  0  0  0  0  0  0999 V2000     
   18.1433   22.3040   23.8692 C   0  0  0  0  0  0  0  0  0  0  0  0
   19.0566   22.7734   23.4813 H   0  0  0  0  0  0  0  0  0  0  0  0
   17.8055   21.5551   23.1423 H   0  0  0  0  0  0  0  0  0  0  0  0
   17.3675   23.0782   23.9294 H   0  0  0  0  0  0  0  0  0  0  0  0
   18.3889   21.6758   25.2599 C   0  0  0  0  0  0  0  0  0  0  0  0
   17.4706   21.1851   25.6114 H   0  0  0  0  0  0  0  0  0  0  0  0
   18.6024   22.4796   25.9783 H   0  0  0  0  0  0  0  0  0  0  0  0
   19.5626   20.6671   25.2808 C   0  0  0  0  0  0  0  0  0  0  0  0
   20.4816   21.1674   24.9457 H   0  0  0  0  0  0  0  0  0  0  0  0
   19.7396   20.3594   26.3207 H   0  0  0  0  0  0  0  0  0  0  0  0
   19.3092   19.4084   24.4173 C   0  0  0  0  0  0  0  0  0  0  0  0
   19.1848   19.6996   23.3686 H   0  0  0  0  0  0  0  0  0  0  0  0
   18.3655   18.9385   24.7267 H   0  0  0  0  0  0  0  0  0  0  0  0
   20.4608   18.3819   24.5512 C   0  0  0  0  0  0  0  0  0  0  0  0
   21.4256   18.8538   24.3189 H   0  0  0  0  0  0  0  0  0  0  0  0
   20.5215   18.0715   25.6036 H   0  0  0  0  0  0  0  0  0  0  0  0
   20.2626   17.1160   23.6759 C   0  0  0  0  0  0  0  0  0  0  0  0
   19.1931   16.9325   23.5076 H   0  0  0  0  0  0  0  0  0  0  0  0
   20.6271   16.2528   24.2486 H   0  0  0  0  0  0  0  0  0  0  0  0
   21.0212   17.1325   22.3269 C   0  0  2  0  0  0  0  0  0  0  0  0
   22.0866   17.2672   22.5375 H   0  0  0  0  0  0  0  0  0  0  0  0
   20.5683   18.2728   21.3996 C   0  0  0  0  0  0  0  0  0  0  0  0
   19.4849   18.2413   21.2300 H   0  0  0  0  0  0  0  0  0  0  0  0
   20.8278   19.2501   21.8227 H   0  0  0  0  0  0  0  0  0  0  0  0
   21.0678   18.2010   20.4256 H   0  0  0  0  0  0  0  0  0  0  0  0
   20.8949   15.8102   21.6226 N   0  3  0  0  0  0  0  0  0  0  0  0
   21.2366   15.0391   22.2037 H   0  0  0  0  0  0  0  0  0  0  0  0
   21.4339   15.7973   20.7520 H   0  0  0  0  0  0  0  0  0  0  0  0
   19.9211   15.6063   21.3821 H   0  0  0  0  0  0  0  0  0  0  0  0
  1  2  1  0  0  0  0
  1  3  1  0  0  0  0
  1  4  1  0  0  0  0
  1  5  1  0  0  0  0
  5  6  1  0  0  0  0
  5  7  1  0  0  0  0
  5  8  1  0  0  0  0
  8  9  1  0  0  0  0
  8 10  1  0  0  0  0
  8 11  1  0  0  0  0
 11 12  1  0  0  0  0
 11 13  1  0  0  0  0
 11 14  1  0  0  0  0
 14 15  1  0  0  0  0
 14 16  1  0  0  0  0
 14 17  1  0  0  0  0
 17 18  1  0  0  0  0
 17 19  1  0  0  0  0
 17 20  1  0  0  0  0
 20 21  1  0  0  0  0
 20 22  1  0  0  0  0
 22 23  1  0  0  0  0
 22 24  1  0  0  0  0
 22 25  1  0  0  0  0
 20 26  1  0  0  0  0
 26 27  1  0  0  0  0
 26 28  1  0  0  0  0
 26 29  1  0  0  0  0
M  END
> <VConfSearch Rank>
994

> <Conf_Id>
156

> <Delta U+W>
3.393

> <U+W>
-24.433

> <U>
27.713

> <W>
-52.146

> <W(PB)>
-54.603

> <W(SA)>
2.458

> <Valence>
6.758

> <Coulomb>
19.720

> <VdW>
1.235

> <VdW6>
-9.782

> <VdW12>
11.017

> <Bond>
0.287

> <Angle>
1.880

> <Pdih>
4.591

> <Idih>
0.000

> <Tether>
0.000

$$$$
VeraChem MOL file


 29 28  0  0  0  0  0  0  0  0999 V2000     
   23.0133   17.6243   24.9852 C   0  0  0  0  0  0  0  0  0  0  0  0
   22.6232   17.9235   25.9667 H   0  0  0  0  0  0  0  0  0  0  0  0
   23.2556   16.5543   25.0250 H   0  0  0  0  0  0  0  0  0  0  0  0
   23.9470   18.1747   24.8113 H   0  0  0  0  0  0  0  0  0  0  0  0
   21.9902   17.9206   23.8685 C   0  0  0  0  0  0  0  0  0  0  0  0
   22.4187   17.6388   22.8966 H   0  0  0  0  0  0  0  0  0  0  0  0
   21.8044   19.0022   23.8341 H   0  0  0  0  0  0  0  0  0  0  0  0
   20.6631   17.1588   24.0944 C   0  0  0  0  0  0  0  0  0  0  0  0
   20.8815   16.0874   24.2028 H   0  0  0  0  0  0  0  0  0  0  0  0
   20.2131   17.4703   25.0461 H   0  0  0  0  0  0  0  0  0  0  0  0
   19.6418   17.3324   22.9404 C   0  0  0  0  0  0  0  0  0  0  0  0
   18.7448   16.7417   23.1720 H   0  0  0  0  0  0  0  0  0  0  0  0
   20.0625   16.8918   22.0261 H   0  0  0  0  0  0  0  0  0  0  0  0
   19.2175   18.7929   22.6374 C   0  0  0  0  0  0  0  0  0  0  0  0
   20.0863   19.3638   22.2866 H   0  0  0  0  0  0  0  0  0  0  0  0
   18.5121   18.7680   21.7970 H   0  0  0  0  0  0  0  0  0  0  0  0
   18.5581   19.5076   23.8485 C   0  0  0  0  0  0  0  0  0  0  0  0
   19.2733   19.5582   24.6786 H   0  0  0  0  0  0  0  0  0  0  0  0
   17.7145   18.9054   24.2106 H   0  0  0  0  0  0  0  0  0  0  0  0
   18.0596   20.9442   23.5641 C   0  0  2  0  0  0  0  0  0  0  0  0
   17.6710   21.3448   24.5055 H   0  0  0  0  0  0  0  0  0  0  0  0
   16.9105   20.9691   22.5411 C   0  0  0  0  0  0  0  0  0  0  0  0
   16.4846   21.9774   22.4684 H   0  0  0  0  0  0  0  0  0  0  0  0
   17.2501   20.6774   21.5404 H   0  0  0  0  0  0  0  0  0  0  0  0
   16.1044   20.2890   22.8432 H   0  0  0  0  0  0  0  0  0  0  0  0
   19.1726   21.8655   23.1469 N   0  3  0  0  0  0  0  0  0  0  0  0
   19.9203   21.8914   23.8461 H   0  0  0  0  0  0  0  0  0  0  0  0
   18.8365   22.8248   23.0219 H   0  0  0  0  0  0  0  0  0  0  0  0
   19.5877   21.5675   22.2607 H   0  0  0  0  0  0  0  0  0  0  0  0
  1  2  1  0  0  0  0
  1  3  1  0  0  0  0
  1  4  1  0  0  0  0
  1  5  1  0  0  0  0
  5  6  1  0  0  0  0
  5  7  1  0  0  0  0
  5  8  1  0  0  0  0
  8  9  1  0  0  0  0
  8 10  1  0  0  0  0
  8 11  1  0  0  0  0
 11 12  1  0  0  0  0
 11 13  1  0  0  0  0
 11 14  1  0  0  0  0
 14 15  1  0  0  0  0
 14 16  1  0  0  0  0
 14 17  1  0  0  0  0
 17 18  1  0  0  0  0
 17 19  1  0  0  0  0
 17 20  1  0  0  0  0
 20 21  1  0  0  0  0
 20 22  1  0  0  0  0
 22 23  1  0  0  0  0
 22 24  1  0  0  0  0
 22 25  1  0  0  0  0
 20 26  1  0  0  0  0
 26 27  1  0  0  0  0
 26 28  1  0  0  0  0
 26 29  1  0  0  0  0
M  END
> <VConfSearch Rank>
995

> <Conf_Id>
78

> <Delta U+W>
1.477

> <U+W>
-26.349

> <U>
26.385

> <W>
-52.734

> <W(PB)>
-55.179

> <W(SA)>
2.445

> <Valence>
4.726

> <Coulomb>
20.482

> <VdW>
1.177

> <VdW6>
-10.349

> <VdW12>
11.526

> <Bond>
0.319

> <Angle>
1.933

> <Pdih>
2.474

> <Idih>
0.000

> <Tether>
0.000

$$$$
VeraChem MOL file


 29 28  0  0  0  0  0  0  0  0999 V2000     
   19.8942   22.3187   25.3235 C   0  0  0  0  0  0  0  0  0  0  0  0
   19.8675   22.1311   26.4047 H   0  0  0  0  0  0  0  0  0  0  0  0
   20.7555   21.7825   24.9100 H   0  0  0  0  0  0  0  0  0  0  0  0
   20.0683   23.3925   25.1761 H   0  0  0  0  0  0  0  0  0  0  0  0
   18.5664   21.8895   24.6569 C   0  0  0  0  0  0  0  0  0  0  0  0
   18.5717   22.1521   23.5899 H   0  0  0  0  0  0  0  0  0  0  0  0
   17.7553   22.4778   25.1086 H   0  0  0  0  0  0  0  0  0  0  0  0
   18.2463   20.3836   24.8404 C   0  0  0  0  0  0  0  0  0  0  0  0
   18.6944   20.0104   25.7715 H   0  0  0  0  0  0  0  0  0  0  0  0
   17.1605   20.2790   24.9728 H   0  0  0  0  0  0  0  0  0  0  0  0
   18.6596   19.4790   23.6509 C   0  0  0  0  0  0  0  0  0  0  0  0
   18.1206   19.7960   22.7475 H   0  0  0  0  0  0  0  0  0  0  0  0
   18.3158   18.4601   23.8713 H   0  0  0  0  0  0  0  0  0  0  0  0
   20.1809   19.4623   23.3624 C   0  0  0  0  0  0  0  0  0  0  0  0
   20.5010   20.4681   23.0620 H   0  0  0  0  0  0  0  0  0  0  0  0
   20.7337   19.2247   24.2807 H   0  0  0  0  0  0  0  0  0  0  0  0
   20.5799   18.4818   22.2289 C   0  0  0  0  0  0  0  0  0  0  0  0
   21.6619   18.5583   22.0581 H   0  0  0  0  0  0  0  0  0  0  0  0
   20.1011   18.8145   21.2985 H   0  0  0  0  0  0  0  0  0  0  0  0
   20.2090   17.0000   22.4748 C   0  0  2  0  0  0  0  0  0  0  0  0
   19.1275   16.9338   22.6248 H   0  0  0  0  0  0  0  0  0  0  0  0
   20.9092   16.4261   23.7193 C   0  0  0  0  0  0  0  0  0  0  0  0
   20.6708   15.3624   23.8410 H   0  0  0  0  0  0  0  0  0  0  0  0
   21.9991   16.5243   23.6419 H   0  0  0  0  0  0  0  0  0  0  0  0
   20.5813   16.9384   24.6313 H   0  0  0  0  0  0  0  0  0  0  0  0
   20.5177   16.1579   21.2683 N   0  3  0  0  0  0  0  0  0  0  0  0
   21.5194   16.1597   21.0576 H   0  0  0  0  0  0  0  0  0  0  0  0
   20.0274   16.4977   20.4358 H   0  0  0  0  0  0  0  0  0  0  0  0
   20.2373   15.1834   21.4106 H   0  0  0  0  0  0  0  0  0  0  0  0
  1  2  1  0  0  0  0
  1  3  1  0  0  0  0
  1  4  1  0  0  0  0
  1  5  1  0  0  0  0
  5  6  1  0  0  0  0
  5  7  1  0  0  0  0
  5  8  1  0  0  0  0
  8  9  1  0  0  0  0
  8 10  1  0  0  0  0
  8 11  1  0  0  0  0
 11 12  1  0  0  0  0
 11 13  1  0  0  0  0
 11 14  1  0  0  0  0
 14 15  1  0  0  0  0
 14 16  1  0  0  0  0
 14 17  1  0  0  0  0
 17 18  1  0  0  0  0
 17 19  1  0  0  0  0
 17 20  1  0  0  0  0
 20 21  1  0  0  0  0
 20 22  1  0  0  0  0
 22 23  1  0  0  0  0
 22 24  1  0  0  0  0
 22 25  1  0  0  0  0
 20 26  1  0  0  0  0
 26 27  1  0  0  0  0
 26 28  1  0  0  0  0
 26 29  1  0  0  0  0
M  END
> <VConfSearch Rank>
996

> <Conf_Id>
145

> <Delta U+W>
3.784

> <U+W>
-24.042

> <U>
28.220

> <W>
-52.262

> <W(PB)>
-54.724

> <W(SA)>
2.462

> <Valence>
7.040

> <Coulomb>
19.984

> <VdW>
1.197

> <VdW6>
-10.566

> <VdW12>
11.763

> <Bond>
0.320

> <Angle>
2.280

> <Pdih>
4.439

> <Idih>
0.000

> <Tether>
0.000

$$$$
VeraChem MOL file


 29 28  0  0  0  0  0  0  0  0999 V2000     
   20.1978   15.3049   22.7896 C   0  0  0  0  0  0  0  0  0  0  0  0
   19.3670   14.5876   22.7711 H   0  0  0  0  0  0  0  0  0  0  0  0
   20.3319   15.6994   21.7739 H   0  0  0  0  0  0  0  0  0  0  0  0
   21.1096   14.7576   23.0617 H   0  0  0  0  0  0  0  0  0  0  0  0
   19.9253   16.4438   23.7948 C   0  0  0  0  0  0  0  0  0  0  0  0
   20.7913   17.1161   23.8197 H   0  0  0  0  0  0  0  0  0  0  0  0
   19.8306   16.0202   24.8044 H   0  0  0  0  0  0  0  0  0  0  0  0
   18.6365   17.2229   23.4378 C   0  0  0  0  0  0  0  0  0  0  0  0
   18.6865   17.5953   22.4054 H   0  0  0  0  0  0  0  0  0  0  0  0
   17.7938   16.5182   23.4645 H   0  0  0  0  0  0  0  0  0  0  0  0
   18.3318   18.3901   24.4127 C   0  0  0  0  0  0  0  0  0  0  0  0
   18.7502   18.1770   25.4060 H   0  0  0  0  0  0  0  0  0  0  0  0
   17.2435   18.4402   24.5558 H   0  0  0  0  0  0  0  0  0  0  0  0
   18.8022   19.7845   23.9240 C   0  0  0  0  0  0  0  0  0  0  0  0
   18.2890   20.0251   22.9835 H   0  0  0  0  0  0  0  0  0  0  0  0
   18.4638   20.5267   24.6580 H   0  0  0  0  0  0  0  0  0  0  0  0
   20.3374   19.9042   23.7302 C   0  0  0  0  0  0  0  0  0  0  0  0
   20.6546   19.2223   22.9319 H   0  0  0  0  0  0  0  0  0  0  0  0
   20.8484   19.5710   24.6431 H   0  0  0  0  0  0  0  0  0  0  0  0
   20.8398   21.3214   23.3661 C   0  0  2  0  0  0  0  0  0  0  0  0
   21.9167   21.2469   23.1857 H   0  0  0  0  0  0  0  0  0  0  0  0
   20.6322   22.3248   24.5142 C   0  0  0  0  0  0  0  0  0  0  0  0
   21.1250   23.2772   24.2835 H   0  0  0  0  0  0  0  0  0  0  0  0
   19.5698   22.5323   24.6870 H   0  0  0  0  0  0  0  0  0  0  0  0
   21.0651   21.9445   25.4477 H   0  0  0  0  0  0  0  0  0  0  0  0
   20.2371   21.8333   22.0870 N   0  3  0  0  0  0  0  0  0  0  0  0
   19.2237   21.9438   22.1734 H   0  0  0  0  0  0  0  0  0  0  0  0
   20.4128   21.1936   21.3069 H   0  0  0  0  0  0  0  0  0  0  0  0
   20.6252   22.7452   21.8292 H   0  0  0  0  0  0  0  0  0  0  0  0
  1  2  1  0  0  0  0
  1  3  1  0  0  0  0
  1  4  1  0  0  0  0
  1  5  1  0  0  0  0
  5  6  1  0  0  0  0
  5  7  1  0  0  0  0
  5  8  1  0  0  0  0
  8  9  1  0  0  0  0
  8 10  1  0  0  0  0
  8 11  1  0  0  0  0
 11 12  1  0  0  0  0
 11 13  1  0  0  0  0
 11 14  1  0  0  0  0
 14 15  1  0  0  0  0
 14 16  1  0  0  0  0
 14 17  1  0  0  0  0
 17 18  1  0  0  0  0
 17 19  1  0  0  0  0
 17 20  1  0  0  0  0
 20 21  1  0  0  0  0
 20 22  1  0  0  0  0
 22 23  1  0  0  0  0
 22 24  1  0  0  0  0
 22 25  1  0  0  0  0
 20 26  1  0  0  0  0
 26 27  1  0  0  0  0
 26 28  1  0  0  0  0
 26 29  1  0  0  0  0
M  END
> <VConfSearch Rank>
997

> <Conf_Id>
71

> <Delta U+W>
3.542

> <U+W>
-24.284

> <U>
28.217

> <W>
-52.501

> <W(PB)>
-54.947

> <W(SA)>
2.446

> <Valence>
6.821

> <Coulomb>
20.147

> <VdW>
1.249

> <VdW6>
-10.237

> <VdW12>
11.486

> <Bond>
0.317

> <Angle>
1.990

> <Pdih>
4.515

> <Idih>
0.000

> <Tether>
0.000

$$$$
VeraChem MOL file


 29 28  0  0  0  0  0  0  0  0999 V2000     
   23.4335   20.2652   22.3466 C   0  0  0  0  0  0  0  0  0  0  0  0
   23.0157   19.9889   21.3697 H   0  0  0  0  0  0  0  0  0  0  0  0
   23.7670   21.3098   22.2928 H   0  0  0  0  0  0  0  0  0  0  0  0
   24.3167   19.6382   22.5251 H   0  0  0  0  0  0  0  0  0  0  0  0
   22.3922   20.0721   23.4691 C   0  0  0  0  0  0  0  0  0  0  0  0
   22.8510   20.3240   24.4354 H   0  0  0  0  0  0  0  0  0  0  0  0
   22.1149   19.0126   23.5229 H   0  0  0  0  0  0  0  0  0  0  0  0
   21.1415   20.9556   23.2442 C   0  0  0  0  0  0  0  0  0  0  0  0
   21.4645   22.0057   23.2296 H   0  0  0  0  0  0  0  0  0  0  0  0
   20.7061   20.7592   22.2547 H   0  0  0  0  0  0  0  0  0  0  0  0
   20.0614   20.7902   24.3450 C   0  0  0  0  0  0  0  0  0  0  0  0
   19.6003   21.7720   24.5207 H   0  0  0  0  0  0  0  0  0  0  0  0
   20.5282   20.5087   25.2990 H   0  0  0  0  0  0  0  0  0  0  0  0
   18.9232   19.7977   23.9935 C   0  0  0  0  0  0  0  0  0  0  0  0
   18.1846   19.8292   24.8050 H   0  0  0  0  0  0  0  0  0  0  0  0
   18.4062   20.1548   23.0929 H   0  0  0  0  0  0  0  0  0  0  0  0
   19.3989   18.3360   23.7817 C   0  0  0  0  0  0  0  0  0  0  0  0
   20.0318   18.0343   24.6264 H   0  0  0  0  0  0  0  0  0  0  0  0
   20.0316   18.2855   22.8868 H   0  0  0  0  0  0  0  0  0  0  0  0
   18.2617   17.2990   23.6256 C   0  0  2  0  0  0  0  0  0  0  0  0
   18.7311   16.3204   23.4848 H   0  0  0  0  0  0  0  0  0  0  0  0
   17.3900   17.5799   22.3893 C   0  0  0  0  0  0  0  0  0  0  0  0
   18.0086   17.6652   21.4874 H   0  0  0  0  0  0  0  0  0  0  0  0
   16.6778   16.7614   22.2280 H   0  0  0  0  0  0  0  0  0  0  0  0
   16.8152   18.5070   22.5012 H   0  0  0  0  0  0  0  0  0  0  0  0
   17.4175   17.1803   24.8646 N   0  3  0  0  0  0  0  0  0  0  0  0
   17.9854   16.9509   25.6852 H   0  0  0  0  0  0  0  0  0  0  0  0
   16.7104   16.4461   24.7664 H   0  0  0  0  0  0  0  0  0  0  0  0
   16.9260   18.0550   25.0644 H   0  0  0  0  0  0  0  0  0  0  0  0
  1  2  1  0  0  0  0
  1  3  1  0  0  0  0
  1  4  1  0  0  0  0
  1  5  1  0  0  0  0
  5  6  1  0  0  0  0
  5  7  1  0  0  0  0
  5  8  1  0  0  0  0
  8  9  1  0  0  0  0
  8 10  1  0  0  0  0
  8 11  1  0  0  0  0
 11 12  1  0  0  0  0
 11 13  1  0  0  0  0
 11 14  1  0  0  0  0
 14 15  1  0  0  0  0
 14 16  1  0  0  0  0
 14 17  1  0  0  0  0
 17 18  1  0  0  0  0
 17 19  1  0  0  0  0
 17 20  1  0  0  0  0
 20 21  1  0  0  0  0
 20 22  1  0  0  0  0
 22 23  1  0  0  0  0
 22 24  1  0  0  0  0
 22 25  1  0  0  0  0
 20 26  1  0  0  0  0
 26 27  1  0  0  0  0
 26 28  1  0  0  0  0
 26 29  1  0  0  0  0
M  END
> <VConfSearch Rank>
998

> <Conf_Id>
163

> <Delta U+W>
3.309

> <U+W>
-24.517

> <U>
27.916

> <W>
-52.433

> <W(PB)>
-54.866

> <W(SA)>
2.433

> <Valence>
6.693

> <Coulomb>
20.015

> <VdW>
1.208

> <VdW6>
-10.294

> <VdW12>
11.503

> <Bond>
0.312

> <Angle>
1.939

> <Pdih>
4.441

> <Idih>
0.000

> <Tether>
0.000

$$$$
VeraChem MOL file


 29 28  0  0  0  0  0  0  0  0999 V2000     
   20.5475   18.7888   27.4155 C   0  0  0  0  0  0  0  0  0  0  0  0
   19.6088   19.1119   27.8841 H   0  0  0  0  0  0  0  0  0  0  0  0
   20.4387   17.7398   27.1139 H   0  0  0  0  0  0  0  0  0  0  0  0
   21.3355   18.8318   28.1784 H   0  0  0  0  0  0  0  0  0  0  0  0
   20.9087   19.6919   26.2144 C   0  0  0  0  0  0  0  0  0  0  0  0
   21.8314   19.3276   25.7415 H   0  0  0  0  0  0  0  0  0  0  0  0
   21.1325   20.7012   26.5873 H   0  0  0  0  0  0  0  0  0  0  0  0
   19.7829   19.7935   25.1570 C   0  0  0  0  0  0  0  0  0  0  0  0
   18.8640   20.1619   25.6333 H   0  0  0  0  0  0  0  0  0  0  0  0
   20.0776   20.5532   24.4217 H   0  0  0  0  0  0  0  0  0  0  0  0
   19.4957   18.4544   24.4318 C   0  0  0  0  0  0  0  0  0  0  0  0
   19.2024   17.6961   25.1691 H   0  0  0  0  0  0  0  0  0  0  0  0
   20.4170   18.0824   23.9647 H   0  0  0  0  0  0  0  0  0  0  0  0
   18.3639   18.5525   23.3759 C   0  0  0  0  0  0  0  0  0  0  0  0
   18.1859   17.5541   22.9542 H   0  0  0  0  0  0  0  0  0  0  0  0
   17.4283   18.8311   23.8800 H   0  0  0  0  0  0  0  0  0  0  0  0
   18.6263   19.5569   22.2219 C   0  0  0  0  0  0  0  0  0  0  0  0
   18.6046   20.5790   22.6210 H   0  0  0  0  0  0  0  0  0  0  0  0
   17.7973   19.4989   21.5042 H   0  0  0  0  0  0  0  0  0  0  0  0
   19.9615   19.3302   21.4790 C   0  0  2  0  0  0  0  0  0  0  0  0
   20.7754   19.3947   22.2073 H   0  0  0  0  0  0  0  0  0  0  0  0
   20.1778   20.4224   20.4200 C   0  0  0  0  0  0  0  0  0  0  0  0
   21.1423   20.2878   19.9149 H   0  0  0  0  0  0  0  0  0  0  0  0
   19.3874   20.4001   19.6593 H   0  0  0  0  0  0  0  0  0  0  0  0
   20.1799   21.4177   20.8817 H   0  0  0  0  0  0  0  0  0  0  0  0
   20.0431   17.9636   20.8565 N   0  3  0  0  0  0  0  0  0  0  0  0
   19.9300   17.2286   21.5599 H   0  0  0  0  0  0  0  0  0  0  0  0
   20.9454   17.8144   20.3959 H   0  0  0  0  0  0  0  0  0  0  0  0
   19.3128   17.8314   20.1518 H   0  0  0  0  0  0  0  0  0  0  0  0
  1  2  1  0  0  0  0
  1  3  1  0  0  0  0
  1  4  1  0  0  0  0
  1  5  1  0  0  0  0
  5  6  1  0  0  0  0
  5  7  1  0  0  0  0
  5  8  1  0  0  0  0
  8  9  1  0  0  0  0
  8 10  1  0  0  0  0
  8 11  1  0  0  0  0
 11 12  1  0  0  0  0
 11 13  1  0  0  0  0
 11 14  1  0  0  0  0
 14 15  1  0  0  0  0
 14 16  1  0  0  0  0
 14 17  1  0  0  0  0
 17 18  1  0  0  0  0
 17 19  1  0  0  0  0
 17 20  1  0  0  0  0
 20 21  1  0  0  0  0
 20 22  1  0  0  0  0
 22 23  1  0  0  0  0
 22 24  1  0  0  0  0
 22 25  1  0  0  0  0
 20 26  1  0  0  0  0
 26 27  1  0  0  0  0
 26 28  1  0  0  0  0
 26 29  1  0  0  0  0
M  END
> <VConfSearch Rank>
999

> <Conf_Id>
173

> <Delta U+W>
1.363

> <U+W>
-26.462

> <U>
25.816

> <W>
-52.279

> <W(PB)>
-54.727

> <W(SA)>
2.449

> <Valence>
4.504

> <Coulomb>
20.342

> <VdW>
0.971

> <VdW6>
-10.532

> <VdW12>
11.503

> <Bond>
0.307

> <Angle>
1.715

> <Pdih>
2.481

> <Idih>
0.000

> <Tether>
0.000

$$$$
VeraChem MOL file


 29 28  0  0  0  0  0  0  0  0999 V2000     
   21.5378   19.9635   26.8407 C   0  0  0  0  0  0  0  0  0  0  0  0
   21.4598   21.0563   26.7715 H   0  0  0  0  0  0  0  0  0  0  0  0
   21.1748   19.6566   27.8303 H   0  0  0  0  0  0  0  0  0  0  0  0
   22.6004   19.6964   26.7742 H   0  0  0  0  0  0  0  0  0  0  0  0
   20.7324   19.2781   25.7167 C   0  0  0  0  0  0  0  0  0  0  0  0
   20.8510   18.1886   25.7958 H   0  0  0  0  0  0  0  0  0  0  0  0
   21.1498   19.5813   24.7475 H   0  0  0  0  0  0  0  0  0  0  0  0
   19.2330   19.6478   25.7830 C   0  0  0  0  0  0  0  0  0  0  0  0
   18.8609   19.4487   26.7975 H   0  0  0  0  0  0  0  0  0  0  0  0
   19.1170   20.7285   25.6222 H   0  0  0  0  0  0  0  0  0  0  0  0
   18.3376   18.8789   24.7772 C   0  0  0  0  0  0  0  0  0  0  0  0
   17.3001   19.1975   24.9485 H   0  0  0  0  0  0  0  0  0  0  0  0
   18.3568   17.8033   25.0004 H   0  0  0  0  0  0  0  0  0  0  0  0
   18.6798   19.1272   23.2849 C   0  0  0  0  0  0  0  0  0  0  0  0
   17.7397   19.1488   22.7179 H   0  0  0  0  0  0  0  0  0  0  0  0
   19.1268   20.1232   23.1721 H   0  0  0  0  0  0  0  0  0  0  0  0
   19.5981   18.0298   22.6787 C   0  0  0  0  0  0  0  0  0  0  0  0
   19.0936   17.0583   22.7624 H   0  0  0  0  0  0  0  0  0  0  0  0
   20.5182   17.9362   23.2663 H   0  0  0  0  0  0  0  0  0  0  0  0
   19.9839   18.2505   21.1971 C   0  0  2  0  0  0  0  0  0  0  0  0
   20.5720   17.3830   20.8821 H   0  0  0  0  0  0  0  0  0  0  0  0
   20.8631   19.4994   21.0099 C   0  0  0  0  0  0  0  0  0  0  0  0
   21.7338   19.4670   21.6766 H   0  0  0  0  0  0  0  0  0  0  0  0
   21.2355   19.5545   19.9796 H   0  0  0  0  0  0  0  0  0  0  0  0
   20.3077   20.4222   21.2142 H   0  0  0  0  0  0  0  0  0  0  0  0
   18.7854   18.2933   20.2897 N   0  3  0  0  0  0  0  0  0  0  0  0
   18.2189   17.4445   20.3759 H   0  0  0  0  0  0  0  0  0  0  0  0
   19.0626   18.3783   19.3076 H   0  0  0  0  0  0  0  0  0  0  0  0
   18.1827   19.0903   20.5091 H   0  0  0  0  0  0  0  0  0  0  0  0
  1  2  1  0  0  0  0
  1  3  1  0  0  0  0
  1  4  1  0  0  0  0
  1  5  1  0  0  0  0
  5  6  1  0  0  0  0
  5  7  1  0  0  0  0
  5  8  1  0  0  0  0
  8  9  1  0  0  0  0
  8 10  1  0  0  0  0
  8 11  1  0  0  0  0
 11 12  1  0  0  0  0
 11 13  1  0  0  0  0
 11 14  1  0  0  0  0
 14 15  1  0  0  0  0
 14 16  1  0  0  0  0
 14 17  1  0  0  0  0
 17 18  1  0  0  0  0
 17 19  1  0  0  0  0
 17 20  1  0  0  0  0
 20 21  1  0  0  0  0
 20 22  1  0  0  0  0
 22 23  1  0  0  0  0
 22 24  1  0  0  0  0
 22 25  1  0  0  0  0
 20 26  1  0  0  0  0
 26 27  1  0  0  0  0
 26 28  1  0  0  0  0
 26 29  1  0  0  0  0
M  END
> <VConfSearch Rank>
1000

> <Conf_Id>
117

> <Delta U+W>
3.377

> <U+W>
-24.449

> <U>
27.947

> <W>
-52.396

> <W(PB)>
-54.842

> <W(SA)>
2.447

> <Valence>
6.731

> <Coulomb>
20.067

> <VdW>
1.149

> <VdW6>
-10.427

> <VdW12>
11.575

> <Bond>
0.324

> <Angle>
1.943

> <Pdih>
4.465

> <Idih>
0.000

> <Tether>
0.000

$$$$
