VeraChem MOL file


 26 25  0  0  0  0  0  0  0  0999 V2000     
   19.9837   18.6238   26.4861 N   0  3  0  0  0  0  0  0  0  0  0  0
   20.8629   18.0855   26.5333 H   0  0  0  0  0  0  0  0  0  0  0  0
   19.2305   17.9186   26.4753 H   0  0  0  0  0  0  0  0  0  0  0  0
   19.9443   19.4507   25.2166 C   0  0  0  0  0  0  0  0  0  0  0  0
   20.7598   20.1768   25.2639 H   0  0  0  0  0  0  0  0  0  0  0  0
   18.9976   19.9967   25.2014 H   0  0  0  0  0  0  0  0  0  0  0  0
   20.0759   18.6066   23.9359 C   0  0  0  0  0  0  0  0  0  0  0  0
   21.0206   18.0471   23.9630 H   0  0  0  0  0  0  0  0  0  0  0  0
   19.2643   17.8676   23.9008 H   0  0  0  0  0  0  0  0  0  0  0  0
   20.0306   19.4900   22.6695 C   0  0  0  0  0  0  0  0  0  0  0  0
   20.8408   20.2314   22.7110 H   0  0  0  0  0  0  0  0  0  0  0  0
   19.0865   20.0524   22.6490 H   0  0  0  0  0  0  0  0  0  0  0  0
   20.1618   18.6528   21.3767 C   0  0  0  0  0  0  0  0  0  0  0  0
   21.1057   18.0906   21.3970 H   0  0  0  0  0  0  0  0  0  0  0  0
   19.3517   17.9115   21.3349 H   0  0  0  0  0  0  0  0  0  0  0  0
   20.1163   19.5367   20.1103 C   0  0  0  0  0  0  0  0  0  0  0  0
   20.9264   20.2786   20.1461 H   0  0  0  0  0  0  0  0  0  0  0  0
   19.1726   20.0995   20.0840 H   0  0  0  0  0  0  0  0  0  0  0  0
   20.2476   18.6974   18.8214 C   0  0  0  0  0  0  0  0  0  0  0  0
   20.2132   19.3421   17.9337 H   0  0  0  0  0  0  0  0  0  0  0  0
   19.4308   17.9684   18.7399 H   0  0  0  0  0  0  0  0  0  0  0  0
   21.1984   18.1489   18.8025 H   0  0  0  0  0  0  0  0  0  0  0  0
   19.8478   19.5320   27.7005 C   0  0  0  0  0  0  0  0  0  0  0  0
   18.8963   20.0654   27.6453 H   0  0  0  0  0  0  0  0  0  0  0  0
   19.8778   18.9241   28.6075 H   0  0  0  0  0  0  0  0  0  0  0  0
   20.6732   20.2472   27.7083 H   0  0  0  0  0  0  0  0  0  0  0  0
  1  2  1  0  0  0  0
  1  3  1  0  0  0  0
  1  4  1  0  0  0  0
  4  5  1  0  0  0  0
  4  6  1  0  0  0  0
  4  7  1  0  0  0  0
  7  8  1  0  0  0  0
  7  9  1  0  0  0  0
  7 10  1  0  0  0  0
 10 11  1  0  0  0  0
 10 12  1  0  0  0  0
 10 13  1  0  0  0  0
 13 14  1  0  0  0  0
 13 15  1  0  0  0  0
 13 16  1  0  0  0  0
 16 17  1  0  0  0  0
 16 18  1  0  0  0  0
 16 19  1  0  0  0  0
 19 20  1  0  0  0  0
 19 21  1  0  0  0  0
 19 22  1  0  0  0  0
  1 23  1  0  0  0  0
 23 24  1  0  0  0  0
 23 25  1  0  0  0  0
 23 26  1  0  0  0  0
M  END
> <VM2 Rank>
1

> <Conf_Id>
11

> <Probability>
6.71

> <Sum Probability>
6.71

> <Delta G>
0.000

> <G>
75.467

> <E>
43.304

> <-TS>
32.163

> <U+W>
21.842

> <U>
70.357

> <W>
-48.512

> <W(PB)>
-50.853

> <W(SA)>
2.341

> <Valence>
1.714

> <Coulomb>
68.480

> <VdW>
0.163

> <VdW6>
-5.268

> <VdW12>
5.431

> <Bond>
0.126

> <Angle>
0.350

> <Pdih>
1.238

> <Idih>
0.000

> <Tether>
0.000

$$$$
VeraChem MOL file


 26 25  0  0  0  0  0  0  0  0999 V2000     
   20.3923   19.0036   26.6222 N   0  3  0  0  0  0  0  0  0  0  0  0
   20.8630   19.5628   27.3514 H   0  0  0  0  0  0  0  0  0  0  0  0
   20.8763   18.0924   26.6321 H   0  0  0  0  0  0  0  0  0  0  0  0
   20.5688   19.6777   25.2718 C   0  0  0  0  0  0  0  0  0  0  0  0
   21.6301   19.9158   25.1642 H   0  0  0  0  0  0  0  0  0  0  0  0
   20.0107   20.6172   25.2891 H   0  0  0  0  0  0  0  0  0  0  0  0
   20.1224   18.8245   24.0671 C   0  0  0  0  0  0  0  0  0  0  0  0
   20.6517   17.8626   24.0861 H   0  0  0  0  0  0  0  0  0  0  0  0
   19.0500   18.6037   24.1455 H   0  0  0  0  0  0  0  0  0  0  0  0
   20.4032   19.5463   22.7305 C   0  0  0  0  0  0  0  0  0  0  0  0
   21.4765   19.7691   22.6529 H   0  0  0  0  0  0  0  0  0  0  0  0
   19.8770   20.5111   22.7181 H   0  0  0  0  0  0  0  0  0  0  0  0
   19.9615   18.7009   21.5141 C   0  0  0  0  0  0  0  0  0  0  0  0
   20.4874   17.7361   21.5265 H   0  0  0  0  0  0  0  0  0  0  0  0
   18.8882   18.4783   21.5912 H   0  0  0  0  0  0  0  0  0  0  0  0
   20.2426   19.4231   20.1774 C   0  0  0  0  0  0  0  0  0  0  0  0
   21.3156   19.6458   20.0942 H   0  0  0  0  0  0  0  0  0  0  0  0
   19.7166   20.3880   20.1590 H   0  0  0  0  0  0  0  0  0  0  0  0
   19.8002   18.5760   18.9651 C   0  0  0  0  0  0  0  0  0  0  0  0
   18.7234   18.3657   19.0021 H   0  0  0  0  0  0  0  0  0  0  0  0
   20.3349   17.6176   18.9368 H   0  0  0  0  0  0  0  0  0  0  0  0
   20.0078   19.1051   18.0260 H   0  0  0  0  0  0  0  0  0  0  0  0
   18.9170   18.8380   26.9689 C   0  0  0  0  0  0  0  0  0  0  0  0
   18.4362   19.8186   26.9690 H   0  0  0  0  0  0  0  0  0  0  0  0
   18.4415   18.1919   26.2283 H   0  0  0  0  0  0  0  0  0  0  0  0
   18.8315   18.3854   27.9593 H   0  0  0  0  0  0  0  0  0  0  0  0
  1  2  1  0  0  0  0
  1  3  1  0  0  0  0
  1  4  1  0  0  0  0
  4  5  1  0  0  0  0
  4  6  1  0  0  0  0
  4  7  1  0  0  0  0
  7  8  1  0  0  0  0
  7  9  1  0  0  0  0
  7 10  1  0  0  0  0
 10 11  1  0  0  0  0
 10 12  1  0  0  0  0
 10 13  1  0  0  0  0
 13 14  1  0  0  0  0
 13 15  1  0  0  0  0
 13 16  1  0  0  0  0
 16 17  1  0  0  0  0
 16 18  1  0  0  0  0
 16 19  1  0  0  0  0
 19 20  1  0  0  0  0
 19 21  1  0  0  0  0
 19 22  1  0  0  0  0
  1 23  1  0  0  0  0
 23 24  1  0  0  0  0
 23 25  1  0  0  0  0
 23 26  1  0  0  0  0
M  END
> <VM2 Rank>
2

> <Conf_Id>
1250

> <Probability>
4.12

> <Sum Probability>
10.83

> <Delta G>
0.290

> <G>
75.757

> <E>
43.424

> <-TS>
32.333

> <U+W>
21.962

> <U>
70.745

> <W>
-48.783

> <W(PB)>
-51.112

> <W(SA)>
2.329

> <Valence>
1.993

> <Coulomb>
68.323

> <VdW>
0.429

> <VdW6>
-5.973

> <VdW12>
6.402

> <Bond>
0.161

> <Angle>
0.472

> <Pdih>
1.360

> <Idih>
0.000

> <Tether>
0.000

$$$$
VeraChem MOL file


 26 25  0  0  0  0  0  0  0  0999 V2000     
   19.4983   18.9124   26.5906 N   0  3  0  0  0  0  0  0  0  0  0  0
   19.2085   17.9224   26.5732 H   0  0  0  0  0  0  0  0  0  0  0  0
   18.8748   19.3602   27.2811 H   0  0  0  0  0  0  0  0  0  0  0  0
   19.2845   19.5467   25.2263 C   0  0  0  0  0  0  0  0  0  0  0  0
   19.6390   20.5793   25.2758 H   0  0  0  0  0  0  0  0  0  0  0  0
   18.2071   19.5666   25.0431 H   0  0  0  0  0  0  0  0  0  0  0  0
   19.9769   18.8096   24.0619 C   0  0  0  0  0  0  0  0  0  0  0  0
   21.0636   18.8090   24.2168 H   0  0  0  0  0  0  0  0  0  0  0  0
   19.6524   17.7606   24.0507 H   0  0  0  0  0  0  0  0  0  0  0  0
   19.6507   19.4695   22.7038 C   0  0  0  0  0  0  0  0  0  0  0  0
   19.9710   20.5206   22.7215 H   0  0  0  0  0  0  0  0  0  0  0  0
   18.5625   19.4717   22.5497 H   0  0  0  0  0  0  0  0  0  0  0  0
   20.3379   18.7393   21.5274 C   0  0  0  0  0  0  0  0  0  0  0  0
   21.4260   18.7373   21.6812 H   0  0  0  0  0  0  0  0  0  0  0  0
   20.0179   17.6882   21.5099 H   0  0  0  0  0  0  0  0  0  0  0  0
   20.0113   19.3995   20.1692 C   0  0  0  0  0  0  0  0  0  0  0  0
   20.3316   20.4508   20.1809 H   0  0  0  0  0  0  0  0  0  0  0  0
   18.9239   19.4016   20.0094 H   0  0  0  0  0  0  0  0  0  0  0  0
   20.6995   18.6678   18.9970 C   0  0  0  0  0  0  0  0  0  0  0  0
   21.7913   18.6790   19.1109 H   0  0  0  0  0  0  0  0  0  0  0  0
   20.4557   19.1508   18.0419 H   0  0  0  0  0  0  0  0  0  0  0  0
   20.3726   17.6214   18.9382 H   0  0  0  0  0  0  0  0  0  0  0  0
   20.9489   19.0452   27.0407 C   0  0  0  0  0  0  0  0  0  0  0  0
   21.2209   20.1027   27.0674 H   0  0  0  0  0  0  0  0  0  0  0  0
   21.0544   18.6122   28.0380 H   0  0  0  0  0  0  0  0  0  0  0  0
   21.5955   18.5135   26.3398 H   0  0  0  0  0  0  0  0  0  0  0  0
  1  2  1  0  0  0  0
  1  3  1  0  0  0  0
  1  4  1  0  0  0  0
  4  5  1  0  0  0  0
  4  6  1  0  0  0  0
  4  7  1  0  0  0  0
  7  8  1  0  0  0  0
  7  9  1  0  0  0  0
  7 10  1  0  0  0  0
 10 11  1  0  0  0  0
 10 12  1  0  0  0  0
 10 13  1  0  0  0  0
 13 14  1  0  0  0  0
 13 15  1  0  0  0  0
 13 16  1  0  0  0  0
 16 17  1  0  0  0  0
 16 18  1  0  0  0  0
 16 19  1  0  0  0  0
 19 20  1  0  0  0  0
 19 21  1  0  0  0  0
 19 22  1  0  0  0  0
  1 23  1  0  0  0  0
 23 24  1  0  0  0  0
 23 25  1  0  0  0  0
 23 26  1  0  0  0  0
M  END
> <VM2 Rank>
3

> <Conf_Id>
37

> <Probability>
4.08

> <Sum Probability>
14.91

> <Delta G>
0.296

> <G>
75.762

> <E>
43.429

> <-TS>
32.333

> <U+W>
21.967

> <U>
70.745

> <W>
-48.778

> <W(PB)>
-51.115

> <W(SA)>
2.337

> <Valence>
1.993

> <Coulomb>
68.323

> <VdW>
0.429

> <VdW6>
-5.973

> <VdW12>
6.403

> <Bond>
0.161

> <Angle>
0.472

> <Pdih>
1.360

> <Idih>
0.000

> <Tether>
0.000

$$$$
VeraChem MOL file


 26 25  0  0  0  0  0  0  0  0999 V2000     
   19.3272   19.1678   25.9040 N   0  3  0  0  0  0  0  0  0  0  0  0
   18.7833   18.2909   25.9026 H   0  0  0  0  0  0  0  0  0  0  0  0
   18.8263   19.8048   25.2665 H   0  0  0  0  0  0  0  0  0  0  0  0
   20.7304   18.9120   25.3886 C   0  0  0  0  0  0  0  0  0  0  0  0
   21.2216   18.2353   26.0925 H   0  0  0  0  0  0  0  0  0  0  0  0
   21.2707   19.8620   25.3952 H   0  0  0  0  0  0  0  0  0  0  0  0
   20.7760   18.2992   23.9749 C   0  0  0  0  0  0  0  0  0  0  0  0
   21.8202   18.0583   23.7351 H   0  0  0  0  0  0  0  0  0  0  0  0
   20.2264   17.3485   23.9694 H   0  0  0  0  0  0  0  0  0  0  0  0
   20.2076   19.2480   22.8928 C   0  0  0  0  0  0  0  0  0  0  0  0
   20.7440   20.2065   22.9286 H   0  0  0  0  0  0  0  0  0  0  0  0
   19.1519   19.4656   23.1029 H   0  0  0  0  0  0  0  0  0  0  0  0
   20.3294   18.6417   21.4762 C   0  0  0  0  0  0  0  0  0  0  0  0
   21.3846   18.4266   21.2575 H   0  0  0  0  0  0  0  0  0  0  0  0
   19.7959   17.6817   21.4402 H   0  0  0  0  0  0  0  0  0  0  0  0
   19.7620   19.5868   20.3936 C   0  0  0  0  0  0  0  0  0  0  0  0
   20.2940   20.5481   20.4242 H   0  0  0  0  0  0  0  0  0  0  0  0
   18.7054   19.8027   20.6057 H   0  0  0  0  0  0  0  0  0  0  0  0
   19.8861   18.9781   18.9804 C   0  0  0  0  0  0  0  0  0  0  0  0
   19.3349   18.0314   18.9084 H   0  0  0  0  0  0  0  0  0  0  0  0
   20.9358   18.7827   18.7253 H   0  0  0  0  0  0  0  0  0  0  0  0
   19.4782   19.6632   18.2260 H   0  0  0  0  0  0  0  0  0  0  0  0
   19.3893   19.7565   27.3065 C   0  0  0  0  0  0  0  0  0  0  0  0
   18.3733   19.9359   27.6651 H   0  0  0  0  0  0  0  0  0  0  0  0
   19.8953   19.0515   27.9697 H   0  0  0  0  0  0  0  0  0  0  0  0
   19.9417   20.6982   27.2765 H   0  0  0  0  0  0  0  0  0  0  0  0
  1  2  1  0  0  0  0
  1  3  1  0  0  0  0
  1  4  1  0  0  0  0
  4  5  1  0  0  0  0
  4  6  1  0  0  0  0
  4  7  1  0  0  0  0
  7  8  1  0  0  0  0
  7  9  1  0  0  0  0
  7 10  1  0  0  0  0
 10 11  1  0  0  0  0
 10 12  1  0  0  0  0
 10 13  1  0  0  0  0
 13 14  1  0  0  0  0
 13 15  1  0  0  0  0
 13 16  1  0  0  0  0
 16 17  1  0  0  0  0
 16 18  1  0  0  0  0
 16 19  1  0  0  0  0
 19 20  1  0  0  0  0
 19 21  1  0  0  0  0
 19 22  1  0  0  0  0
  1 23  1  0  0  0  0
 23 24  1  0  0  0  0
 23 25  1  0  0  0  0
 23 26  1  0  0  0  0
M  END
> <VM2 Rank>
4

> <Conf_Id>
1284

> <Probability>
3.03

> <Sum Probability>
17.94

> <Delta G>
0.474

> <G>
75.941

> <E>
43.686

> <-TS>
32.255

> <U+W>
22.224

> <U>
71.142

> <W>
-48.918

> <W(PB)>
-51.255

> <W(SA)>
2.337

> <Valence>
1.835

> <Coulomb>
69.101

> <VdW>
0.206

> <VdW6>
-5.849

> <VdW12>
6.055

> <Bond>
0.142

> <Angle>
0.413

> <Pdih>
1.279

> <Idih>
0.000

> <Tether>
0.000

$$$$
VeraChem MOL file


 26 25  0  0  0  0  0  0  0  0999 V2000     
   20.5559   19.2936   25.9475 N   0  3  0  0  0  0  0  0  0  0  0  0
   20.9608   20.0234   25.3420 H   0  0  0  0  0  0  0  0  0  0  0  0
   21.2649   18.5452   25.9906 H   0  0  0  0  0  0  0  0  0  0  0  0
   19.2732   18.7626   25.3370 C   0  0  0  0  0  0  0  0  0  0  0  0
   18.5525   19.5834   25.2990 H   0  0  0  0  0  0  0  0  0  0  0  0
   18.8812   17.9955   26.0097 H   0  0  0  0  0  0  0  0  0  0  0  0
   19.4518   18.1635   23.9280 C   0  0  0  0  0  0  0  0  0  0  0  0
   20.1815   17.3438   23.9678 H   0  0  0  0  0  0  0  0  0  0  0  0
   18.4974   17.7179   23.6174 H   0  0  0  0  0  0  0  0  0  0  0  0
   19.8907   19.2154   22.8816 C   0  0  0  0  0  0  0  0  0  0  0  0
   20.8632   19.6405   23.1634 H   0  0  0  0  0  0  0  0  0  0  0  0
   19.1703   20.0454   22.8730 H   0  0  0  0  0  0  0  0  0  0  0  0
   19.9934   18.6073   21.4643 C   0  0  0  0  0  0  0  0  0  0  0  0
   20.7112   17.7753   21.4725 H   0  0  0  0  0  0  0  0  0  0  0  0
   19.0215   18.1849   21.1738 H   0  0  0  0  0  0  0  0  0  0  0  0
   20.4323   19.6554   20.4174 C   0  0  0  0  0  0  0  0  0  0  0  0
   21.4059   20.0789   20.7013 H   0  0  0  0  0  0  0  0  0  0  0  0
   19.7161   20.4890   20.4039 H   0  0  0  0  0  0  0  0  0  0  0  0
   20.5330   19.0445   19.0033 C   0  0  0  0  0  0  0  0  0  0  0  0
   21.2678   18.2293   18.9767 H   0  0  0  0  0  0  0  0  0  0  0  0
   20.8456   19.8034   18.2744 H   0  0  0  0  0  0  0  0  0  0  0  0
   19.5649   18.6428   18.6768 H   0  0  0  0  0  0  0  0  0  0  0  0
   20.2778   19.8477   27.3379 C   0  0  0  0  0  0  0  0  0  0  0  0
   19.8798   19.0501   27.9692 H   0  0  0  0  0  0  0  0  0  0  0  0
   21.2087   20.2267   27.7654 H   0  0  0  0  0  0  0  0  0  0  0  0
   19.5495   20.6582   27.2625 H   0  0  0  0  0  0  0  0  0  0  0  0
  1  2  1  0  0  0  0
  1  3  1  0  0  0  0
  1  4  1  0  0  0  0
  4  5  1  0  0  0  0
  4  6  1  0  0  0  0
  4  7  1  0  0  0  0
  7  8  1  0  0  0  0
  7  9  1  0  0  0  0
  7 10  1  0  0  0  0
 10 11  1  0  0  0  0
 10 12  1  0  0  0  0
 10 13  1  0  0  0  0
 13 14  1  0  0  0  0
 13 15  1  0  0  0  0
 13 16  1  0  0  0  0
 16 17  1  0  0  0  0
 16 18  1  0  0  0  0
 16 19  1  0  0  0  0
 19 20  1  0  0  0  0
 19 21  1  0  0  0  0
 19 22  1  0  0  0  0
  1 23  1  0  0  0  0
 23 24  1  0  0  0  0
 23 25  1  0  0  0  0
 23 26  1  0  0  0  0
M  END
> <VM2 Rank>
5

> <Conf_Id>
484

> <Probability>
3.01

> <Sum Probability>
20.95

> <Delta G>
0.477

> <G>
75.944

> <E>
43.689

> <-TS>
32.255

> <U+W>
22.227

> <U>
71.142

> <W>
-48.916

> <W(PB)>
-51.253

> <W(SA)>
2.337

> <Valence>
1.835

> <Coulomb>
69.101

> <VdW>
0.206

> <VdW6>
-5.849

> <VdW12>
6.055

> <Bond>
0.142

> <Angle>
0.413

> <Pdih>
1.279

> <Idih>
0.000

> <Tether>
0.000

$$$$
VeraChem MOL file


 26 25  0  0  0  0  0  0  0  0999 V2000     
   19.9281   18.8064   26.2896 N   0  3  0  0  0  0  0  0  0  0  0  0
   20.7994   19.0417   26.7900 H   0  0  0  0  0  0  0  0  0  0  0  0
   19.8670   17.7766   26.3145 H   0  0  0  0  0  0  0  0  0  0  0  0
   20.0012   19.2914   24.8558 C   0  0  0  0  0  0  0  0  0  0  0  0
   20.0755   20.3816   24.8739 H   0  0  0  0  0  0  0  0  0  0  0  0
   19.0647   19.0177   24.3640 H   0  0  0  0  0  0  0  0  0  0  0  0
   21.1920   18.7037   24.0742 C   0  0  0  0  0  0  0  0  0  0  0  0
   22.1234   18.9483   24.6020 H   0  0  0  0  0  0  0  0  0  0  0  0
   21.1183   17.6082   24.0576 H   0  0  0  0  0  0  0  0  0  0  0  0
   21.2799   19.2408   22.6261 C   0  0  0  0  0  0  0  0  0  0  0  0
   22.1973   18.8533   22.1618 H   0  0  0  0  0  0  0  0  0  0  0  0
   21.3809   20.3349   22.6466 H   0  0  0  0  0  0  0  0  0  0  0  0
   20.0627   18.8449   21.7556 C   0  0  0  0  0  0  0  0  0  0  0  0
   19.9447   17.7525   21.7643 H   0  0  0  0  0  0  0  0  0  0  0  0
   19.1429   19.2677   22.1815 H   0  0  0  0  0  0  0  0  0  0  0  0
   20.2163   19.3334   20.2979 C   0  0  0  0  0  0  0  0  0  0  0  0
   21.1299   18.9092   19.8582 H   0  0  0  0  0  0  0  0  0  0  0  0
   20.3356   20.4259   20.2832 H   0  0  0  0  0  0  0  0  0  0  0  0
   19.0011   18.9395   19.4312 C   0  0  0  0  0  0  0  0  0  0  0  0
   19.1289   19.2944   18.4003 H   0  0  0  0  0  0  0  0  0  0  0  0
   18.0755   19.3784   19.8259 H   0  0  0  0  0  0  0  0  0  0  0  0
   18.8758   17.8493   19.3988 H   0  0  0  0  0  0  0  0  0  0  0  0
   18.7268   19.4298   26.9867 C   0  0  0  0  0  0  0  0  0  0  0  0
   18.8302   20.5171   26.9768 H   0  0  0  0  0  0  0  0  0  0  0  0
   17.8152   19.1399   26.4595 H   0  0  0  0  0  0  0  0  0  0  0  0
   18.6859   19.0725   28.0181 H   0  0  0  0  0  0  0  0  0  0  0  0
  1  2  1  0  0  0  0
  1  3  1  0  0  0  0
  1  4  1  0  0  0  0
  4  5  1  0  0  0  0
  4  6  1  0  0  0  0
  4  7  1  0  0  0  0
  7  8  1  0  0  0  0
  7  9  1  0  0  0  0
  7 10  1  0  0  0  0
 10 11  1  0  0  0  0
 10 12  1  0  0  0  0
 10 13  1  0  0  0  0
 13 14  1  0  0  0  0
 13 15  1  0  0  0  0
 13 16  1  0  0  0  0
 16 17  1  0  0  0  0
 16 18  1  0  0  0  0
 16 19  1  0  0  0  0
 19 20  1  0  0  0  0
 19 21  1  0  0  0  0
 19 22  1  0  0  0  0
  1 23  1  0  0  0  0
 23 24  1  0  0  0  0
 23 25  1  0  0  0  0
 23 26  1  0  0  0  0
M  END
> <VM2 Rank>
6

> <Conf_Id>
1013

> <Probability>
2.62

> <Sum Probability>
23.57

> <Delta G>
0.561

> <G>
76.027

> <E>
43.767

> <-TS>
32.260

> <U+W>
22.305

> <U>
71.138

> <W>
-48.832

> <W(PB)>
-51.177

> <W(SA)>
2.344

> <Valence>
2.016

> <Coulomb>
68.932

> <VdW>
0.190

> <VdW6>
-5.902

> <VdW12>
6.091

> <Bond>
0.149

> <Angle>
0.477

> <Pdih>
1.390

> <Idih>
0.000

> <Tether>
0.000

$$$$
VeraChem MOL file


 26 25  0  0  0  0  0  0  0  0999 V2000     
   20.0150   18.8153   26.2927 N   0  3  0  0  0  0  0  0  0  0  0  0
   20.2813   17.8190   26.3293 H   0  0  0  0  0  0  0  0  0  0  0  0
   19.0813   18.8660   26.7290 H   0  0  0  0  0  0  0  0  0  0  0  0
   19.9461   19.2857   24.8538 C   0  0  0  0  0  0  0  0  0  0  0  0
   20.9506   19.2105   24.4308 H   0  0  0  0  0  0  0  0  0  0  0  0
   19.6518   20.3382   24.8588 H   0  0  0  0  0  0  0  0  0  0  0  0
   18.9563   18.4750   23.9950 C   0  0  0  0  0  0  0  0  0  0  0  0
   19.2509   17.4171   23.9915 H   0  0  0  0  0  0  0  0  0  0  0  0
   17.9601   18.5224   24.4546 H   0  0  0  0  0  0  0  0  0  0  0  0
   18.8633   18.9936   22.5405 C   0  0  0  0  0  0  0  0  0  0  0  0
   18.5418   20.0445   22.5461 H   0  0  0  0  0  0  0  0  0  0  0  0
   18.0780   18.4318   22.0159 H   0  0  0  0  0  0  0  0  0  0  0  0
   20.1933   18.8584   21.7603 C   0  0  0  0  0  0  0  0  0  0  0  0
   20.9764   19.4554   22.2464 H   0  0  0  0  0  0  0  0  0  0  0  0
   20.5289   17.8123   21.7851 H   0  0  0  0  0  0  0  0  0  0  0  0
   20.0465   19.3160   20.2919 C   0  0  0  0  0  0  0  0  0  0  0  0
   19.7101   20.3619   20.2611 H   0  0  0  0  0  0  0  0  0  0  0  0
   19.2706   18.7190   19.7924 H   0  0  0  0  0  0  0  0  0  0  0  0
   21.3739   19.1822   19.5152 C   0  0  0  0  0  0  0  0  0  0  0  0
   21.2495   19.5113   18.4754 H   0  0  0  0  0  0  0  0  0  0  0  0
   21.7189   18.1401   19.4995 H   0  0  0  0  0  0  0  0  0  0  0  0
   22.1617   19.7963   19.9706 H   0  0  0  0  0  0  0  0  0  0  0  0
   21.0136   19.6638   27.0677 C   0  0  0  0  0  0  0  0  0  0  0  0
   20.6934   20.7078   27.0427 H   0  0  0  0  0  0  0  0  0  0  0  0
   21.0534   19.3149   28.1020 H   0  0  0  0  0  0  0  0  0  0  0  0
   21.9996   19.5679   26.6079 H   0  0  0  0  0  0  0  0  0  0  0  0
  1  2  1  0  0  0  0
  1  3  1  0  0  0  0
  1  4  1  0  0  0  0
  4  5  1  0  0  0  0
  4  6  1  0  0  0  0
  4  7  1  0  0  0  0
  7  8  1  0  0  0  0
  7  9  1  0  0  0  0
  7 10  1  0  0  0  0
 10 11  1  0  0  0  0
 10 12  1  0  0  0  0
 10 13  1  0  0  0  0
 13 14  1  0  0  0  0
 13 15  1  0  0  0  0
 13 16  1  0  0  0  0
 16 17  1  0  0  0  0
 16 18  1  0  0  0  0
 16 19  1  0  0  0  0
 19 20  1  0  0  0  0
 19 21  1  0  0  0  0
 19 22  1  0  0  0  0
  1 23  1  0  0  0  0
 23 24  1  0  0  0  0
 23 25  1  0  0  0  0
 23 26  1  0  0  0  0
M  END
> <VM2 Rank>
7

> <Conf_Id>
1246

> <Probability>
2.48

> <Sum Probability>
26.05

> <Delta G>
0.592

> <G>
76.059

> <E>
43.799

> <-TS>
32.260

> <U+W>
22.337

> <U>
71.138

> <W>
-48.801

> <W(PB)>
-51.137

> <W(SA)>
2.337

> <Valence>
2.016

> <Coulomb>
68.932

> <VdW>
0.190

> <VdW6>
-5.902

> <VdW12>
6.092

> <Bond>
0.149

> <Angle>
0.477

> <Pdih>
1.390

> <Idih>
0.000

> <Tether>
0.000

$$$$
VeraChem MOL file


 26 25  0  0  0  0  0  0  0  0999 V2000     
   19.5902   19.7661   26.0204 N   0  3  0  0  0  0  0  0  0  0  0  0
   18.9702   19.9965   26.8132 H   0  0  0  0  0  0  0  0  0  0  0  0
   19.4495   20.5281   25.3405 H   0  0  0  0  0  0  0  0  0  0  0  0
   19.1664   18.4380   25.4124 C   0  0  0  0  0  0  0  0  0  0  0  0
   18.0903   18.4919   25.2289 H   0  0  0  0  0  0  0  0  0  0  0  0
   19.3408   17.6612   26.1612 H   0  0  0  0  0  0  0  0  0  0  0  0
   19.8808   18.0566   24.0973 C   0  0  0  0  0  0  0  0  0  0  0  0
   20.9573   17.9411   24.2782 H   0  0  0  0  0  0  0  0  0  0  0  0
   19.5142   17.0717   23.7790 H   0  0  0  0  0  0  0  0  0  0  0  0
   19.6410   19.0831   22.9649 C   0  0  0  0  0  0  0  0  0  0  0  0
   20.0431   20.0620   23.2586 H   0  0  0  0  0  0  0  0  0  0  0  0
   18.5607   19.2138   22.8117 H   0  0  0  0  0  0  0  0  0  0  0  0
   20.3006   18.6403   21.6390 C   0  0  0  0  0  0  0  0  0  0  0  0
   21.3804   18.5063   21.7927 H   0  0  0  0  0  0  0  0  0  0  0  0
   19.8993   17.6630   21.3369 H   0  0  0  0  0  0  0  0  0  0  0  0
   20.0650   19.6653   20.5072 C   0  0  0  0  0  0  0  0  0  0  0  0
   20.4674   20.6443   20.8031 H   0  0  0  0  0  0  0  0  0  0  0  0
   18.9860   19.8014   20.3483 H   0  0  0  0  0  0  0  0  0  0  0  0
   20.7247   19.2195   19.1848 C   0  0  0  0  0  0  0  0  0  0  0  0
   20.5466   19.9595   18.3938 H   0  0  0  0  0  0  0  0  0  0  0  0
   20.3174   18.2584   18.8446 H   0  0  0  0  0  0  0  0  0  0  0  0
   21.8104   19.1079   19.3031 H   0  0  0  0  0  0  0  0  0  0  0  0
   21.0394   19.7211   26.4910 C   0  0  0  0  0  0  0  0  0  0  0  0
   21.6917   19.5399   25.6344 H   0  0  0  0  0  0  0  0  0  0  0  0
   21.2954   20.6779   26.9516 H   0  0  0  0  0  0  0  0  0  0  0  0
   21.1544   18.9176   27.2217 H   0  0  0  0  0  0  0  0  0  0  0  0
  1  2  1  0  0  0  0
  1  3  1  0  0  0  0
  1  4  1  0  0  0  0
  4  5  1  0  0  0  0
  4  6  1  0  0  0  0
  4  7  1  0  0  0  0
  7  8  1  0  0  0  0
  7  9  1  0  0  0  0
  7 10  1  0  0  0  0
 10 11  1  0  0  0  0
 10 12  1  0  0  0  0
 10 13  1  0  0  0  0
 13 14  1  0  0  0  0
 13 15  1  0  0  0  0
 13 16  1  0  0  0  0
 16 17  1  0  0  0  0
 16 18  1  0  0  0  0
 16 19  1  0  0  0  0
 19 20  1  0  0  0  0
 19 21  1  0  0  0  0
 19 22  1  0  0  0  0
  1 23  1  0  0  0  0
 23 24  1  0  0  0  0
 23 25  1  0  0  0  0
 23 26  1  0  0  0  0
M  END
> <VM2 Rank>
8

> <Conf_Id>
1278

> <Probability>
2.48

> <Sum Probability>
28.53

> <Delta G>
0.594

> <G>
76.060

> <E>
43.581

> <-TS>
32.479

> <U+W>
22.119

> <U>
71.479

> <W>
-49.360

> <W(PB)>
-51.654

> <W(SA)>
2.294

> <Valence>
2.085

> <Coulomb>
68.999

> <VdW>
0.395

> <VdW6>
-6.752

> <VdW12>
7.148

> <Bond>
0.184

> <Angle>
0.576

> <Pdih>
1.325

> <Idih>
0.000

> <Tether>
0.000

$$$$
VeraChem MOL file


 26 25  0  0  0  0  0  0  0  0999 V2000     
   20.1698   19.8254   26.0409 N   0  3  0  0  0  0  0  0  0  0  0  0
   20.2009   20.6050   25.3671 H   0  0  0  0  0  0  0  0  0  0  0  0
   20.6731   20.1707   26.8736 H   0  0  0  0  0  0  0  0  0  0  0  0
   20.8951   18.6149   25.4737 C   0  0  0  0  0  0  0  0  0  0  0  0
   20.8294   17.8136   26.2140 H   0  0  0  0  0  0  0  0  0  0  0  0
   21.9482   18.8867   25.3658 H   0  0  0  0  0  0  0  0  0  0  0  0
   20.3666   18.1062   24.1145 C   0  0  0  0  0  0  0  0  0  0  0  0
   20.9465   17.2183   23.8298 H   0  0  0  0  0  0  0  0  0  0  0  0
   19.3259   17.7740   24.2204 H   0  0  0  0  0  0  0  0  0  0  0  0
   20.4724   19.1682   22.9944 C   0  0  0  0  0  0  0  0  0  0  0  0
   21.5119   19.5160   22.9163 H   0  0  0  0  0  0  0  0  0  0  0  0
   19.8609   20.0433   23.2522 H   0  0  0  0  0  0  0  0  0  0  0  0
   20.0107   18.6106   21.6288 C   0  0  0  0  0  0  0  0  0  0  0  0
   20.6218   17.7370   21.3624 H   0  0  0  0  0  0  0  0  0  0  0  0
   18.9724   18.2595   21.7075 H   0  0  0  0  0  0  0  0  0  0  0  0
   20.1123   19.6703   20.5090 C   0  0  0  0  0  0  0  0  0  0  0  0
   21.1498   20.0233   20.4250 H   0  0  0  0  0  0  0  0  0  0  0  0
   19.5002   20.5452   20.7691 H   0  0  0  0  0  0  0  0  0  0  0  0
   19.6507   19.1096   19.1468 C   0  0  0  0  0  0  0  0  0  0  0  0
   19.7300   19.8761   18.3651 H   0  0  0  0  0  0  0  0  0  0  0  0
   18.6046   18.7794   19.1897 H   0  0  0  0  0  0  0  0  0  0  0  0
   20.2671   18.2535   18.8427 H   0  0  0  0  0  0  0  0  0  0  0  0
   18.7303   19.4849   26.4089 C   0  0  0  0  0  0  0  0  0  0  0  0
   18.1899   19.1817   25.5099 H   0  0  0  0  0  0  0  0  0  0  0  0
   18.7291   18.6694   27.1354 H   0  0  0  0  0  0  0  0  0  0  0  0
   18.2544   20.3667   26.8435 H   0  0  0  0  0  0  0  0  0  0  0  0
  1  2  1  0  0  0  0
  1  3  1  0  0  0  0
  1  4  1  0  0  0  0
  4  5  1  0  0  0  0
  4  6  1  0  0  0  0
  4  7  1  0  0  0  0
  7  8  1  0  0  0  0
  7  9  1  0  0  0  0
  7 10  1  0  0  0  0
 10 11  1  0  0  0  0
 10 12  1  0  0  0  0
 10 13  1  0  0  0  0
 13 14  1  0  0  0  0
 13 15  1  0  0  0  0
 13 16  1  0  0  0  0
 16 17  1  0  0  0  0
 16 18  1  0  0  0  0
 16 19  1  0  0  0  0
 19 20  1  0  0  0  0
 19 21  1  0  0  0  0
 19 22  1  0  0  0  0
  1 23  1  0  0  0  0
 23 24  1  0  0  0  0
 23 25  1  0  0  0  0
 23 26  1  0  0  0  0
M  END
> <VM2 Rank>
9

> <Conf_Id>
546

> <Probability>
2.32

> <Sum Probability>
30.85

> <Delta G>
0.632

> <G>
76.098

> <E>
43.619

> <-TS>
32.480

> <U+W>
22.157

> <U>
71.479

> <W>
-49.323

> <W(PB)>
-51.599

> <W(SA)>
2.276

> <Valence>
2.085

> <Coulomb>
68.999

> <VdW>
0.395

> <VdW6>
-6.753

> <VdW12>
7.148

> <Bond>
0.184

> <Angle>
0.576

> <Pdih>
1.325

> <Idih>
0.000

> <Tether>
0.000

$$$$
VeraChem MOL file


 26 25  0  0  0  0  0  0  0  0999 V2000     
   19.9281   18.7435   26.4135 N   0  3  0  0  0  0  0  0  0  0  0  0
   20.5506   17.9221   26.4655 H   0  0  0  0  0  0  0  0  0  0  0  0
   18.9718   18.3701   26.5181 H   0  0  0  0  0  0  0  0  0  0  0  0
   20.0777   19.4288   25.0700 C   0  0  0  0  0  0  0  0  0  0  0  0
   21.1026   19.8012   24.9959 H   0  0  0  0  0  0  0  0  0  0  0  0
   19.3983   20.2846   25.0527 H   0  0  0  0  0  0  0  0  0  0  0  0
   19.7755   18.5032   23.8775 C   0  0  0  0  0  0  0  0  0  0  0  0
   20.4493   17.6365   23.9080 H   0  0  0  0  0  0  0  0  0  0  0  0
   18.7506   18.1184   23.9652 H   0  0  0  0  0  0  0  0  0  0  0  0
   19.9409   19.2432   22.5316 C   0  0  0  0  0  0  0  0  0  0  0  0
   20.9650   19.6330   22.4603 H   0  0  0  0  0  0  0  0  0  0  0  0
   19.2667   20.1106   22.5055 H   0  0  0  0  0  0  0  0  0  0  0  0
   19.6425   18.3192   21.3262 C   0  0  0  0  0  0  0  0  0  0  0  0
   20.3487   17.4774   21.3203 H   0  0  0  0  0  0  0  0  0  0  0  0
   18.6419   17.8817   21.4482 H   0  0  0  0  0  0  0  0  0  0  0  0
   19.6964   19.0480   19.9615 C   0  0  0  0  0  0  0  0  0  0  0  0
   18.9752   19.8773   19.9541 H   0  0  0  0  0  0  0  0  0  0  0  0
   19.3706   18.3511   19.1766 H   0  0  0  0  0  0  0  0  0  0  0  0
   21.1031   19.5792   19.6029 C   0  0  0  0  0  0  0  0  0  0  0  0
   21.4237   20.3701   20.2921 H   0  0  0  0  0  0  0  0  0  0  0  0
   21.1068   20.0033   18.5905 H   0  0  0  0  0  0  0  0  0  0  0  0
   21.8486   18.7740   19.6318 H   0  0  0  0  0  0  0  0  0  0  0  0
   20.2439   19.7249   27.5338 C   0  0  0  0  0  0  0  0  0  0  0  0
   19.5518   20.5681   27.4783 H   0  0  0  0  0  0  0  0  0  0  0  0
   20.1324   19.2188   28.4953 H   0  0  0  0  0  0  0  0  0  0  0  0
   21.2704   20.0805   27.4210 H   0  0  0  0  0  0  0  0  0  0  0  0
  1  2  1  0  0  0  0
  1  3  1  0  0  0  0
  1  4  1  0  0  0  0
  4  5  1  0  0  0  0
  4  6  1  0  0  0  0
  4  7  1  0  0  0  0
  7  8  1  0  0  0  0
  7  9  1  0  0  0  0
  7 10  1  0  0  0  0
 10 11  1  0  0  0  0
 10 12  1  0  0  0  0
 10 13  1  0  0  0  0
 13 14  1  0  0  0  0
 13 15  1  0  0  0  0
 13 16  1  0  0  0  0
 16 17  1  0  0  0  0
 16 18  1  0  0  0  0
 16 19  1  0  0  0  0
 19 20  1  0  0  0  0
 19 21  1  0  0  0  0
 19 22  1  0  0  0  0
  1 23  1  0  0  0  0
 23 24  1  0  0  0  0
 23 25  1  0  0  0  0
 23 26  1  0  0  0  0
M  END
> <VM2 Rank>
10

> <Conf_Id>
1070

> <Probability>
2.16

> <Sum Probability>
33.02

> <Delta G>
0.675

> <G>
76.141

> <E>
43.869

> <-TS>
32.272

> <U+W>
22.407

> <U>
71.035

> <W>
-48.628

> <W(PB)>
-50.937

> <W(SA)>
2.309

> <Valence>
2.223

> <Coulomb>
68.516

> <VdW>
0.297

> <VdW6>
-5.882

> <VdW12>
6.178

> <Bond>
0.162

> <Angle>
0.596

> <Pdih>
1.465

> <Idih>
0.000

> <Tether>
0.000

$$$$
VeraChem MOL file


 26 25  0  0  0  0  0  0  0  0999 V2000     
   20.0192   18.7529   26.4167 N   0  3  0  0  0  0  0  0  0  0  0  0
   21.0216   18.5801   26.5907 H   0  0  0  0  0  0  0  0  0  0  0  0
   19.5738   17.8222   26.4311 H   0  0  0  0  0  0  0  0  0  0  0  0
   19.8283   19.4032   25.0612 C   0  0  0  0  0  0  0  0  0  0  0  0
   20.3201   20.3790   25.0852 H   0  0  0  0  0  0  0  0  0  0  0  0
   18.7571   19.5610   24.9129 H   0  0  0  0  0  0  0  0  0  0  0  0
   20.3943   18.5665   23.8995 C   0  0  0  0  0  0  0  0  0  0  0  0
   21.4671   18.3963   24.0614 H   0  0  0  0  0  0  0  0  0  0  0  0
   19.9093   17.5812   23.8889 H   0  0  0  0  0  0  0  0  0  0  0  0
   20.1773   19.2673   22.5399 C   0  0  0  0  0  0  0  0  0  0  0  0
   20.6624   20.2532   22.5548 H   0  0  0  0  0  0  0  0  0  0  0  0
   19.1032   19.4426   22.3943 H   0  0  0  0  0  0  0  0  0  0  0  0
   20.7399   18.4312   21.3651 C   0  0  0  0  0  0  0  0  0  0  0  0
   21.7972   18.2040   21.5600 H   0  0  0  0  0  0  0  0  0  0  0  0
   20.2205   17.4642   21.3158 H   0  0  0  0  0  0  0  0  0  0  0  0
   20.6357   19.1439   19.9948 C   0  0  0  0  0  0  0  0  0  0  0  0
   21.1496   18.5327   19.2396 H   0  0  0  0  0  0  0  0  0  0  0  0
   21.1734   20.1017   20.0319 H   0  0  0  0  0  0  0  0  0  0  0  0
   19.1794   19.3828   19.5348 C   0  0  0  0  0  0  0  0  0  0  0  0
   18.6115   18.4436   19.5173 H   0  0  0  0  0  0  0  0  0  0  0  0
   19.1610   19.8046   18.5216 H   0  0  0  0  0  0  0  0  0  0  0  0
   18.6584   20.0879   20.1942 H   0  0  0  0  0  0  0  0  0  0  0  0
   19.4337   19.6421   27.5050 C   0  0  0  0  0  0  0  0  0  0  0  0
   19.9429   20.6083   27.4920 H   0  0  0  0  0  0  0  0  0  0  0  0
   18.3669   19.7833   27.3182 H   0  0  0  0  0  0  0  0  0  0  0  0
   19.5778   19.1623   28.4757 H   0  0  0  0  0  0  0  0  0  0  0  0
  1  2  1  0  0  0  0
  1  3  1  0  0  0  0
  1  4  1  0  0  0  0
  4  5  1  0  0  0  0
  4  6  1  0  0  0  0
  4  7  1  0  0  0  0
  7  8  1  0  0  0  0
  7  9  1  0  0  0  0
  7 10  1  0  0  0  0
 10 11  1  0  0  0  0
 10 12  1  0  0  0  0
 10 13  1  0  0  0  0
 13 14  1  0  0  0  0
 13 15  1  0  0  0  0
 13 16  1  0  0  0  0
 16 17  1  0  0  0  0
 16 18  1  0  0  0  0
 16 19  1  0  0  0  0
 19 20  1  0  0  0  0
 19 21  1  0  0  0  0
 19 22  1  0  0  0  0
  1 23  1  0  0  0  0
 23 24  1  0  0  0  0
 23 25  1  0  0  0  0
 23 26  1  0  0  0  0
M  END
> <VM2 Rank>
11

> <Conf_Id>
472

> <Probability>
2.13

> <Sum Probability>
35.15

> <Delta G>
0.684

> <G>
76.150

> <E>
43.878

> <-TS>
32.272

> <U+W>
22.416

> <U>
71.035

> <W>
-48.619

> <W(PB)>
-50.943

> <W(SA)>
2.325

> <Valence>
2.223

> <Coulomb>
68.516

> <VdW>
0.297

> <VdW6>
-5.882

> <VdW12>
6.178

> <Bond>
0.162

> <Angle>
0.596

> <Pdih>
1.465

> <Idih>
0.000

> <Tether>
0.000

$$$$
VeraChem MOL file


 26 25  0  0  0  0  0  0  0  0999 V2000     
   20.4436   18.8700   26.3554 N   0  3  0  0  0  0  0  0  0  0  0  0
   20.5776   19.7831   26.8167 H   0  0  0  0  0  0  0  0  0  0  0  0
   21.1543   18.2515   26.7776 H   0  0  0  0  0  0  0  0  0  0  0  0
   20.6984   18.9931   24.8625 C   0  0  0  0  0  0  0  0  0  0  0  0
   20.5064   18.0177   24.4094 H   0  0  0  0  0  0  0  0  0  0  0  0
   21.7582   19.2259   24.7316 H   0  0  0  0  0  0  0  0  0  0  0  0
   19.8563   20.0776   24.1571 C   0  0  0  0  0  0  0  0  0  0  0  0
   18.7883   19.8399   24.2450 H   0  0  0  0  0  0  0  0  0  0  0  0
   20.0077   21.0373   24.6685 H   0  0  0  0  0  0  0  0  0  0  0  0
   20.2256   20.2401   22.6638 C   0  0  0  0  0  0  0  0  0  0  0  0
   21.2880   20.5071   22.5759 H   0  0  0  0  0  0  0  0  0  0  0  0
   19.6581   21.0854   22.2505 H   0  0  0  0  0  0  0  0  0  0  0  0
   19.9342   18.9724   21.8250 C   0  0  0  0  0  0  0  0  0  0  0  0
   20.5318   18.1298   22.1978 H   0  0  0  0  0  0  0  0  0  0  0  0
   18.8787   18.6898   21.9413 H   0  0  0  0  0  0  0  0  0  0  0  0
   20.2456   19.1905   20.3275 C   0  0  0  0  0  0  0  0  0  0  0  0
   21.3005   19.4740   20.2053 H   0  0  0  0  0  0  0  0  0  0  0  0
   19.6462   20.0269   19.9413 H   0  0  0  0  0  0  0  0  0  0  0  0
   19.9556   17.9251   19.4922 C   0  0  0  0  0  0  0  0  0  0  0  0
   20.5667   17.0788   19.8321 H   0  0  0  0  0  0  0  0  0  0  0  0
   20.1823   18.0998   18.4325 H   0  0  0  0  0  0  0  0  0  0  0  0
   18.8992   17.6359   19.5673 H   0  0  0  0  0  0  0  0  0  0  0  0
   19.0487   18.3212   26.6335 C   0  0  0  0  0  0  0  0  0  0  0  0
   18.9432   17.3477   26.1497 H   0  0  0  0  0  0  0  0  0  0  0  0
   18.9161   18.2130   27.7123 H   0  0  0  0  0  0  0  0  0  0  0  0
   18.3022   19.0138   26.2398 H   0  0  0  0  0  0  0  0  0  0  0  0
  1  2  1  0  0  0  0
  1  3  1  0  0  0  0
  1  4  1  0  0  0  0
  4  5  1  0  0  0  0
  4  6  1  0  0  0  0
  4  7  1  0  0  0  0
  7  8  1  0  0  0  0
  7  9  1  0  0  0  0
  7 10  1  0  0  0  0
 10 11  1  0  0  0  0
 10 12  1  0  0  0  0
 10 13  1  0  0  0  0
 13 14  1  0  0  0  0
 13 15  1  0  0  0  0
 13 16  1  0  0  0  0
 16 17  1  0  0  0  0
 16 18  1  0  0  0  0
 16 19  1  0  0  0  0
 19 20  1  0  0  0  0
 19 21  1  0  0  0  0
 19 22  1  0  0  0  0
  1 23  1  0  0  0  0
 23 24  1  0  0  0  0
 23 25  1  0  0  0  0
 23 26  1  0  0  0  0
M  END
> <VM2 Rank>
12

> <Conf_Id>
1545

> <Probability>
1.93

> <Sum Probability>
37.08

> <Delta G>
0.741

> <G>
76.208

> <E>
43.782

> <-TS>
32.426

> <U+W>
22.320

> <U>
71.511

> <W>
-49.191

> <W(PB)>
-51.480

> <W(SA)>
2.288

> <Valence>
2.291

> <Coulomb>
68.784

> <VdW>
0.437

> <VdW6>
-6.615

> <VdW12>
7.052

> <Bond>
0.185

> <Angle>
0.586

> <Pdih>
1.520

> <Idih>
0.000

> <Tether>
0.000

$$$$
VeraChem MOL file


 26 25  0  0  0  0  0  0  0  0999 V2000     
   19.4927   18.7740   26.3216 N   0  3  0  0  0  0  0  0  0  0  0  0
   18.8920   18.0229   26.6971 H   0  0  0  0  0  0  0  0  0  0  0  0
   19.1467   19.6386   26.7657 H   0  0  0  0  0  0  0  0  0  0  0  0
   19.3245   18.8542   24.8137 C   0  0  0  0  0  0  0  0  0  0  0  0
   18.2514   18.8717   24.6067 H   0  0  0  0  0  0  0  0  0  0  0  0
   19.7387   17.9399   24.3823 H   0  0  0  0  0  0  0  0  0  0  0  0
   19.9808   20.0898   24.1615 C   0  0  0  0  0  0  0  0  0  0  0  0
   19.6056   20.9964   24.6544 H   0  0  0  0  0  0  0  0  0  0  0  0
   21.0659   20.0691   24.3257 H   0  0  0  0  0  0  0  0  0  0  0  0
   19.6920   20.1863   22.6449 C   0  0  0  0  0  0  0  0  0  0  0  0
   20.1073   21.1306   22.2665 H   0  0  0  0  0  0  0  0  0  0  0  0
   18.6065   20.2369   22.4809 H   0  0  0  0  0  0  0  0  0  0  0  0
   20.2882   19.0080   21.8374 C   0  0  0  0  0  0  0  0  0  0  0  0
   21.3680   18.9406   22.0292 H   0  0  0  0  0  0  0  0  0  0  0  0
   19.8459   18.0606   22.1733 H   0  0  0  0  0  0  0  0  0  0  0  0
   20.0450   19.1705   20.3203 C   0  0  0  0  0  0  0  0  0  0  0  0
   20.4913   20.1122   19.9712 H   0  0  0  0  0  0  0  0  0  0  0  0
   18.9660   19.2390   20.1227 H   0  0  0  0  0  0  0  0  0  0  0  0
   20.6389   17.9942   19.5162 C   0  0  0  0  0  0  0  0  0  0  0  0
   21.7239   17.9206   19.6669 H   0  0  0  0  0  0  0  0  0  0  0  0
   20.4566   18.1277   18.4420 H   0  0  0  0  0  0  0  0  0  0  0  0
   20.1865   17.0407   19.8184 H   0  0  0  0  0  0  0  0  0  0  0  0
   20.9459   18.5131   26.7014 C   0  0  0  0  0  0  0  0  0  0  0  0
   21.2778   17.5838   26.2333 H   0  0  0  0  0  0  0  0  0  0  0  0
   21.5648   19.3438   26.3564 H   0  0  0  0  0  0  0  0  0  0  0  0
   21.0210   18.4260   27.7876 H   0  0  0  0  0  0  0  0  0  0  0  0
  1  2  1  0  0  0  0
  1  3  1  0  0  0  0
  1  4  1  0  0  0  0
  4  5  1  0  0  0  0
  4  6  1  0  0  0  0
  4  7  1  0  0  0  0
  7  8  1  0  0  0  0
  7  9  1  0  0  0  0
  7 10  1  0  0  0  0
 10 11  1  0  0  0  0
 10 12  1  0  0  0  0
 10 13  1  0  0  0  0
 13 14  1  0  0  0  0
 13 15  1  0  0  0  0
 13 16  1  0  0  0  0
 16 17  1  0  0  0  0
 16 18  1  0  0  0  0
 16 19  1  0  0  0  0
 19 20  1  0  0  0  0
 19 21  1  0  0  0  0
 19 22  1  0  0  0  0
  1 23  1  0  0  0  0
 23 24  1  0  0  0  0
 23 25  1  0  0  0  0
 23 26  1  0  0  0  0
M  END
> <VM2 Rank>
13

> <Conf_Id>
781

> <Probability>
1.93

> <Sum Probability>
39.01

> <Delta G>
0.742

> <G>
76.209

> <E>
43.783

> <-TS>
32.426

> <U+W>
22.321

> <U>
71.511

> <W>
-49.191

> <W(PB)>
-51.480

> <W(SA)>
2.289

> <Valence>
2.291

> <Coulomb>
68.784

> <VdW>
0.437

> <VdW6>
-6.615

> <VdW12>
7.052

> <Bond>
0.185

> <Angle>
0.586

> <Pdih>
1.520

> <Idih>
0.000

> <Tether>
0.000

$$$$
VeraChem MOL file


 26 25  0  0  0  0  0  0  0  0999 V2000     
   19.5536   18.5508   26.1836 N   0  3  0  0  0  0  0  0  0  0  0  0
   20.0708   17.6581   26.2067 H   0  0  0  0  0  0  0  0  0  0  0  0
   18.5857   18.3008   25.9276 H   0  0  0  0  0  0  0  0  0  0  0  0
   20.1493   19.4735   25.1393 C   0  0  0  0  0  0  0  0  0  0  0  0
   21.1730   19.7067   25.4431 H   0  0  0  0  0  0  0  0  0  0  0  0
   19.5701   20.4003   25.1412 H   0  0  0  0  0  0  0  0  0  0  0  0
   20.1541   18.8687   23.7237 C   0  0  0  0  0  0  0  0  0  0  0  0
   20.7234   17.9297   23.7303 H   0  0  0  0  0  0  0  0  0  0  0  0
   19.1240   18.6215   23.4378 H   0  0  0  0  0  0  0  0  0  0  0  0
   20.7729   19.8458   22.6963 C   0  0  0  0  0  0  0  0  0  0  0  0
   21.7717   20.1439   23.0447 H   0  0  0  0  0  0  0  0  0  0  0  0
   20.1746   20.7665   22.6535 H   0  0  0  0  0  0  0  0  0  0  0  0
   20.9077   19.2477   21.2741 C   0  0  0  0  0  0  0  0  0  0  0  0
   21.4588   19.9622   20.6470 H   0  0  0  0  0  0  0  0  0  0  0  0
   21.5210   18.3369   21.3139 H   0  0  0  0  0  0  0  0  0  0  0  0
   19.5498   18.9333   20.6023 C   0  0  0  0  0  0  0  0  0  0  0  0
   18.9157   19.8309   20.6086 H   0  0  0  0  0  0  0  0  0  0  0  0
   19.0146   18.1612   21.1708 H   0  0  0  0  0  0  0  0  0  0  0  0
   19.7328   18.4471   19.1486 C   0  0  0  0  0  0  0  0  0  0  0  0
   20.3387   17.5324   19.1117 H   0  0  0  0  0  0  0  0  0  0  0  0
   20.2290   19.2108   18.5357 H   0  0  0  0  0  0  0  0  0  0  0  0
   18.7610   18.2260   18.6885 H   0  0  0  0  0  0  0  0  0  0  0  0
   19.5878   19.2231   27.5491 C   0  0  0  0  0  0  0  0  0  0  0  0
   19.1562   18.5482   28.2917 H   0  0  0  0  0  0  0  0  0  0  0  0
   20.6236   19.4479   27.8129 H   0  0  0  0  0  0  0  0  0  0  0  0
   19.0072   20.1474   27.5091 H   0  0  0  0  0  0  0  0  0  0  0  0
  1  2  1  0  0  0  0
  1  3  1  0  0  0  0
  1  4  1  0  0  0  0
  4  5  1  0  0  0  0
  4  6  1  0  0  0  0
  4  7  1  0  0  0  0
  7  8  1  0  0  0  0
  7  9  1  0  0  0  0
  7 10  1  0  0  0  0
 10 11  1  0  0  0  0
 10 12  1  0  0  0  0
 10 13  1  0  0  0  0
 13 14  1  0  0  0  0
 13 15  1  0  0  0  0
 13 16  1  0  0  0  0
 16 17  1  0  0  0  0
 16 18  1  0  0  0  0
 16 19  1  0  0  0  0
 19 20  1  0  0  0  0
 19 21  1  0  0  0  0
 19 22  1  0  0  0  0
  1 23  1  0  0  0  0
 23 24  1  0  0  0  0
 23 25  1  0  0  0  0
 23 26  1  0  0  0  0
M  END
> <VM2 Rank>
14

> <Conf_Id>
951

> <Probability>
1.88

> <Sum Probability>
40.89

> <Delta G>
0.758

> <G>
76.224

> <E>
43.964

> <-TS>
32.261

> <U+W>
22.502

> <U>
71.349

> <W>
-48.847

> <W(PB)>
-51.158

> <W(SA)>
2.311

> <Valence>
2.261

> <Coulomb>
68.807

> <VdW>
0.280

> <VdW6>
-5.916

> <VdW12>
6.196

> <Bond>
0.164

> <Angle>
0.622

> <Pdih>
1.475

> <Idih>
0.000

> <Tether>
0.000

$$$$
VeraChem MOL file


 26 25  0  0  0  0  0  0  0  0999 V2000     
   20.4398   18.6413   26.2151 N   0  3  0  0  0  0  0  0  0  0  0  0
   21.4536   18.5934   26.0291 H   0  0  0  0  0  0  0  0  0  0  0  0
   20.1128   17.6625   26.2085 H   0  0  0  0  0  0  0  0  0  0  0  0
   19.7447   19.4322   25.1250 C   0  0  0  0  0  0  0  0  0  0  0  0
   20.1235   20.4567   25.1606 H   0  0  0  0  0  0  0  0  0  0  0  0
   18.6763   19.4519   25.3547 H   0  0  0  0  0  0  0  0  0  0  0  0
   19.9611   18.8487   23.7169 C   0  0  0  0  0  0  0  0  0  0  0  0
   21.0373   18.8165   23.5055 H   0  0  0  0  0  0  0  0  0  0  0  0
   19.5939   17.8142   23.6905 H   0  0  0  0  0  0  0  0  0  0  0  0
   19.2313   19.6881   22.6417 C   0  0  0  0  0  0  0  0  0  0  0  0
   19.6329   20.7110   22.6344 H   0  0  0  0  0  0  0  0  0  0  0  0
   18.1710   19.7759   22.9171 H   0  0  0  0  0  0  0  0  0  0  0  0
   19.3202   19.0853   21.2178 C   0  0  0  0  0  0  0  0  0  0  0  0
   18.9023   18.0691   21.2211 H   0  0  0  0  0  0  0  0  0  0  0  0
   18.6813   19.6782   20.5486 H   0  0  0  0  0  0  0  0  0  0  0  0
   20.7573   19.0568   20.6450 C   0  0  0  0  0  0  0  0  0  0  0  0
   21.3963   18.4047   21.2551 H   0  0  0  0  0  0  0  0  0  0  0  0
   21.1948   20.0640   20.6894 H   0  0  0  0  0  0  0  0  0  0  0  0
   20.7786   18.5542   19.1856 C   0  0  0  0  0  0  0  0  0  0  0  0
   21.8048   18.5374   18.7962 H   0  0  0  0  0  0  0  0  0  0  0  0
   20.1823   19.2062   18.5341 H   0  0  0  0  0  0  0  0  0  0  0  0
   20.3741   17.5362   19.1128 H   0  0  0  0  0  0  0  0  0  0  0  0
   20.1752   19.2834   27.5699 C   0  0  0  0  0  0  0  0  0  0  0  0
   19.0995   19.2928   27.7590 H   0  0  0  0  0  0  0  0  0  0  0  0
   20.6810   18.7043   28.3457 H   0  0  0  0  0  0  0  0  0  0  0  0
   20.5589   20.3060   27.5637 H   0  0  0  0  0  0  0  0  0  0  0  0
  1  2  1  0  0  0  0
  1  3  1  0  0  0  0
  1  4  1  0  0  0  0
  4  5  1  0  0  0  0
  4  6  1  0  0  0  0
  4  7  1  0  0  0  0
  7  8  1  0  0  0  0
  7  9  1  0  0  0  0
  7 10  1  0  0  0  0
 10 11  1  0  0  0  0
 10 12  1  0  0  0  0
 10 13  1  0  0  0  0
 13 14  1  0  0  0  0
 13 15  1  0  0  0  0
 13 16  1  0  0  0  0
 16 17  1  0  0  0  0
 16 18  1  0  0  0  0
 16 19  1  0  0  0  0
 19 20  1  0  0  0  0
 19 21  1  0  0  0  0
 19 22  1  0  0  0  0
  1 23  1  0  0  0  0
 23 24  1  0  0  0  0
 23 25  1  0  0  0  0
 23 26  1  0  0  0  0
M  END
> <VM2 Rank>
15

> <Conf_Id>
489

> <Probability>
1.86

> <Sum Probability>
42.75

> <Delta G>
0.766

> <G>
76.232

> <E>
43.972

> <-TS>
32.261

> <U+W>
22.510

> <U>
71.348

> <W>
-48.839

> <W(PB)>
-51.152

> <W(SA)>
2.313

> <Valence>
2.262

> <Coulomb>
68.807

> <VdW>
0.280

> <VdW6>
-5.915

> <VdW12>
6.195

> <Bond>
0.164

> <Angle>
0.622

> <Pdih>
1.475

> <Idih>
0.000

> <Tether>
0.000

$$$$
VeraChem MOL file


 26 25  0  0  0  0  0  0  0  0999 V2000     
   19.6326   18.3062   26.1788 N   0  3  0  0  0  0  0  0  0  0  0  0
   20.3992   17.6165   26.2116 H   0  0  0  0  0  0  0  0  0  0  0  0
   18.7852   17.7749   26.4347 H   0  0  0  0  0  0  0  0  0  0  0  0
   19.4811   18.8572   24.7707 C   0  0  0  0  0  0  0  0  0  0  0  0
   18.6944   19.6155   24.7888 H   0  0  0  0  0  0  0  0  0  0  0  0
   19.1437   18.0330   24.1379 H   0  0  0  0  0  0  0  0  0  0  0  0
   20.7733   19.4554   24.1743 C   0  0  0  0  0  0  0  0  0  0  0  0
   21.1173   20.2845   24.8057 H   0  0  0  0  0  0  0  0  0  0  0  0
   21.5695   18.6995   24.1876 H   0  0  0  0  0  0  0  0  0  0  0  0
   20.5783   19.9794   22.7317 C   0  0  0  0  0  0  0  0  0  0  0  0
   21.5051   20.4738   22.4090 H   0  0  0  0  0  0  0  0  0  0  0  0
   19.7965   20.7516   22.7252 H   0  0  0  0  0  0  0  0  0  0  0  0
   20.2192   18.8634   21.7210 C   0  0  0  0  0  0  0  0  0  0  0  0
   20.9847   18.0759   21.7560 H   0  0  0  0  0  0  0  0  0  0  0  0
   19.2668   18.3942   22.0016 H   0  0  0  0  0  0  0  0  0  0  0  0
   20.1088   19.4086   20.2795 C   0  0  0  0  0  0  0  0  0  0  0  0
   21.0599   19.8734   19.9841 H   0  0  0  0  0  0  0  0  0  0  0  0
   19.3446   20.1975   20.2387 H   0  0  0  0  0  0  0  0  0  0  0  0
   19.7493   18.2952   19.2724 C   0  0  0  0  0  0  0  0  0  0  0  0
   18.7845   17.8341   19.5210 H   0  0  0  0  0  0  0  0  0  0  0  0
   20.5133   17.5069   19.2658 H   0  0  0  0  0  0  0  0  0  0  0  0
   19.6759   18.7015   18.2553 H   0  0  0  0  0  0  0  0  0  0  0  0
   19.8654   19.4246   27.1885 C   0  0  0  0  0  0  0  0  0  0  0  0
   19.9303   18.9935   28.1901 H   0  0  0  0  0  0  0  0  0  0  0  0
   20.7980   19.9396   26.9500 H   0  0  0  0  0  0  0  0  0  0  0  0
   19.0311   20.1280   27.1435 H   0  0  0  0  0  0  0  0  0  0  0  0
  1  2  1  0  0  0  0
  1  3  1  0  0  0  0
  1  4  1  0  0  0  0
  4  5  1  0  0  0  0
  4  6  1  0  0  0  0
  4  7  1  0  0  0  0
  7  8  1  0  0  0  0
  7  9  1  0  0  0  0
  7 10  1  0  0  0  0
 10 11  1  0  0  0  0
 10 12  1  0  0  0  0
 10 13  1  0  0  0  0
 13 14  1  0  0  0  0
 13 15  1  0  0  0  0
 13 16  1  0  0  0  0
 16 17  1  0  0  0  0
 16 18  1  0  0  0  0
 16 19  1  0  0  0  0
 19 20  1  0  0  0  0
 19 21  1  0  0  0  0
 19 22  1  0  0  0  0
  1 23  1  0  0  0  0
 23 24  1  0  0  0  0
 23 25  1  0  0  0  0
 23 26  1  0  0  0  0
M  END
> <VM2 Rank>
16

> <Conf_Id>
1530

> <Probability>
1.73

> <Sum Probability>
44.47

> <Delta G>
0.809

> <G>
76.275

> <E>
43.847

> <-TS>
32.428

> <U+W>
22.386

> <U>
71.628

> <W>
-49.242

> <W(PB)>
-51.545

> <W(SA)>
2.302

> <Valence>
2.314

> <Coulomb>
68.823

> <VdW>
0.491

> <VdW6>
-6.572

> <VdW12>
7.063

> <Bond>
0.188

> <Angle>
0.606

> <Pdih>
1.519

> <Idih>
0.000

> <Tether>
0.000

$$$$
VeraChem MOL file


 26 25  0  0  0  0  0  0  0  0999 V2000     
   20.4121   18.3858   26.2065 N   0  3  0  0  0  0  0  0  0  0  0  0
   21.3292   18.0342   26.5247 H   0  0  0  0  0  0  0  0  0  0  0  0
   19.7998   17.5556   26.1907 H   0  0  0  0  0  0  0  0  0  0  0  0
   20.5475   18.9657   24.8084 C   0  0  0  0  0  0  0  0  0  0  0  0
   21.0876   18.2310   24.2067 H   0  0  0  0  0  0  0  0  0  0  0  0
   21.1619   19.8670   24.8758 H   0  0  0  0  0  0  0  0  0  0  0  0
   19.2062   19.2952   24.1187 C   0  0  0  0  0  0  0  0  0  0  0  0
   18.5799   18.3941   24.0817 H   0  0  0  0  0  0  0  0  0  0  0  0
   18.6586   20.0333   24.7187 H   0  0  0  0  0  0  0  0  0  0  0  0
   19.3919   19.8582   22.6897 C   0  0  0  0  0  0  0  0  0  0  0  0
   20.0002   20.7724   22.7325 H   0  0  0  0  0  0  0  0  0  0  0  0
   18.4093   20.1575   22.2993 H   0  0  0  0  0  0  0  0  0  0  0  0
   20.0389   18.8450   21.7146 C   0  0  0  0  0  0  0  0  0  0  0  0
   21.0444   18.5759   22.0646 H   0  0  0  0  0  0  0  0  0  0  0  0
   19.4477   17.9189   21.7015 H   0  0  0  0  0  0  0  0  0  0  0  0
   20.1378   19.4116   20.2806 C   0  0  0  0  0  0  0  0  0  0  0  0
   20.7276   20.3390   20.2879 H   0  0  0  0  0  0  0  0  0  0  0  0
   19.1355   19.6767   19.9158 H   0  0  0  0  0  0  0  0  0  0  0  0
   20.7846   18.4011   19.3092 C   0  0  0  0  0  0  0  0  0  0  0  0
   20.8455   18.8211   18.2968 H   0  0  0  0  0  0  0  0  0  0  0  0
   20.1981   17.4748   19.2546 H   0  0  0  0  0  0  0  0  0  0  0  0
   21.8028   18.1427   19.6282 H   0  0  0  0  0  0  0  0  0  0  0  0
   19.8890   19.4273   27.1893 C   0  0  0  0  0  0  0  0  0  0  0  0
   19.8424   18.9851   28.1869 H   0  0  0  0  0  0  0  0  0  0  0  0
   20.5656   20.2846   27.1974 H   0  0  0  0  0  0  0  0  0  0  0  0
   18.8907   19.7456   26.8824 H   0  0  0  0  0  0  0  0  0  0  0  0
  1  2  1  0  0  0  0
  1  3  1  0  0  0  0
  1  4  1  0  0  0  0
  4  5  1  0  0  0  0
  4  6  1  0  0  0  0
  4  7  1  0  0  0  0
  7  8  1  0  0  0  0
  7  9  1  0  0  0  0
  7 10  1  0  0  0  0
 10 11  1  0  0  0  0
 10 12  1  0  0  0  0
 10 13  1  0  0  0  0
 13 14  1  0  0  0  0
 13 15  1  0  0  0  0
 13 16  1  0  0  0  0
 16 17  1  0  0  0  0
 16 18  1  0  0  0  0
 16 19  1  0  0  0  0
 19 20  1  0  0  0  0
 19 21  1  0  0  0  0
 19 22  1  0  0  0  0
  1 23  1  0  0  0  0
 23 24  1  0  0  0  0
 23 25  1  0  0  0  0
 23 26  1  0  0  0  0
M  END
> <VM2 Rank>
17

> <Conf_Id>
1630

> <Probability>
1.63

> <Sum Probability>
46.11

> <Delta G>
0.843

> <G>
76.309

> <E>
43.882

> <-TS>
32.428

> <U+W>
22.420

> <U>
71.628

> <W>
-49.208

> <W(PB)>
-51.516

> <W(SA)>
2.308

> <Valence>
2.314

> <Coulomb>
68.823

> <VdW>
0.491

> <VdW6>
-6.572

> <VdW12>
7.063

> <Bond>
0.188

> <Angle>
0.606

> <Pdih>
1.519

> <Idih>
0.000

> <Tether>
0.000

$$$$
VeraChem MOL file


 26 25  0  0  0  0  0  0  0  0999 V2000     
   19.5680   18.5759   26.4543 N   0  3  0  0  0  0  0  0  0  0  0  0
   20.0459   17.6618   26.4749 H   0  0  0  0  0  0  0  0  0  0  0  0
   18.7210   18.4465   27.0302 H   0  0  0  0  0  0  0  0  0  0  0  0
   19.1664   18.9269   25.0314 C   0  0  0  0  0  0  0  0  0  0  0  0
   18.7012   19.9158   25.0471 H   0  0  0  0  0  0  0  0  0  0  0  0
   18.4105   18.2016   24.7193 H   0  0  0  0  0  0  0  0  0  0  0  0
   20.3268   18.9092   24.0156 C   0  0  0  0  0  0  0  0  0  0  0  0
   21.0798   19.6556   24.2997 H   0  0  0  0  0  0  0  0  0  0  0  0
   20.8193   17.9281   24.0423 H   0  0  0  0  0  0  0  0  0  0  0  0
   19.8266   19.2007   22.5834 C   0  0  0  0  0  0  0  0  0  0  0  0
   19.3322   20.1818   22.5612 H   0  0  0  0  0  0  0  0  0  0  0  0
   19.0683   18.4552   22.3096 H   0  0  0  0  0  0  0  0  0  0  0  0
   20.9828   19.1801   21.5544 C   0  0  0  0  0  0  0  0  0  0  0  0
   21.7654   19.8794   21.8798 H   0  0  0  0  0  0  0  0  0  0  0  0
   21.4465   18.1841   21.5375 H   0  0  0  0  0  0  0  0  0  0  0  0
   20.5417   19.5689   20.1224 C   0  0  0  0  0  0  0  0  0  0  0  0
   21.4339   19.6325   19.4839 H   0  0  0  0  0  0  0  0  0  0  0  0
   20.0976   20.5741   20.1302 H   0  0  0  0  0  0  0  0  0  0  0  0
   19.5484   18.5666   19.4913 C   0  0  0  0  0  0  0  0  0  0  0  0
   19.3404   18.8373   18.4480 H   0  0  0  0  0  0  0  0  0  0  0  0
   18.5905   18.5567   20.0258 H   0  0  0  0  0  0  0  0  0  0  0  0
   19.9571   17.5478   19.4981 H   0  0  0  0  0  0  0  0  0  0  0  0
   20.4474   19.6617   27.0642 C   0  0  0  0  0  0  0  0  0  0  0  0
   21.3701   19.7469   26.4869 H   0  0  0  0  0  0  0  0  0  0  0  0
   19.9091   20.6118   27.0457 H   0  0  0  0  0  0  0  0  0  0  0  0
   20.6838   19.3920   28.0960 H   0  0  0  0  0  0  0  0  0  0  0  0
  1  2  1  0  0  0  0
  1  3  1  0  0  0  0
  1  4  1  0  0  0  0
  4  5  1  0  0  0  0
  4  6  1  0  0  0  0
  4  7  1  0  0  0  0
  7  8  1  0  0  0  0
  7  9  1  0  0  0  0
  7 10  1  0  0  0  0
 10 11  1  0  0  0  0
 10 12  1  0  0  0  0
 10 13  1  0  0  0  0
 13 14  1  0  0  0  0
 13 15  1  0  0  0  0
 13 16  1  0  0  0  0
 16 17  1  0  0  0  0
 16 18  1  0  0  0  0
 16 19  1  0  0  0  0
 19 20  1  0  0  0  0
 19 21  1  0  0  0  0
 19 22  1  0  0  0  0
  1 23  1  0  0  0  0
 23 24  1  0  0  0  0
 23 25  1  0  0  0  0
 23 26  1  0  0  0  0
M  END
> <VM2 Rank>
18

> <Conf_Id>
816

> <Probability>
1.47

> <Sum Probability>
47.58

> <Delta G>
0.904

> <G>
76.370

> <E>
43.927

> <-TS>
32.443

> <U+W>
22.465

> <U>
71.429

> <W>
-48.964

> <W(PB)>
-51.236

> <W(SA)>
2.272

> <Valence>
2.501

> <Coulomb>
68.364

> <VdW>
0.564

> <VdW6>
-6.585

> <VdW12>
7.149

> <Bond>
0.197

> <Angle>
0.716

> <Pdih>
1.588

> <Idih>
0.000

> <Tether>
0.000

$$$$
VeraChem MOL file


 26 25  0  0  0  0  0  0  0  0999 V2000     
   19.4775   19.1688   26.4941 N   0  3  0  0  0  0  0  0  0  0  0  0
   19.0861   18.2210   26.6082 H   0  0  0  0  0  0  0  0  0  0  0  0
   18.8997   19.7704   27.1027 H   0  0  0  0  0  0  0  0  0  0  0  0
   19.3395   19.6240   25.0509 C   0  0  0  0  0  0  0  0  0  0  0  0
   19.7998   20.6114   24.9639 H   0  0  0  0  0  0  0  0  0  0  0  0
   18.2713   19.7285   24.8442 H   0  0  0  0  0  0  0  0  0  0  0  0
   19.9583   18.6637   24.0147 C   0  0  0  0  0  0  0  0  0  0  0  0
   21.0380   18.5731   24.1906 H   0  0  0  0  0  0  0  0  0  0  0  0
   19.5257   17.6626   24.1428 H   0  0  0  0  0  0  0  0  0  0  0  0
   19.7118   19.1568   22.5716 C   0  0  0  0  0  0  0  0  0  0  0  0
   20.1375   20.1628   22.4592 H   0  0  0  0  0  0  0  0  0  0  0  0
   18.6309   19.2460   22.3947 H   0  0  0  0  0  0  0  0  0  0  0  0
   20.3309   18.2012   21.5231 C   0  0  0  0  0  0  0  0  0  0  0  0
   21.4193   18.1499   21.6649 H   0  0  0  0  0  0  0  0  0  0  0  0
   19.9492   17.1850   21.6939 H   0  0  0  0  0  0  0  0  0  0  0  0
   20.0189   18.6034   20.0612 C   0  0  0  0  0  0  0  0  0  0  0  0
   18.9311   18.6339   19.9079 H   0  0  0  0  0  0  0  0  0  0  0  0
   20.4013   17.8207   19.3910 H   0  0  0  0  0  0  0  0  0  0  0  0
   20.6400   19.9579   19.6499 C   0  0  0  0  0  0  0  0  0  0  0  0
   20.4681   20.1511   18.5831 H   0  0  0  0  0  0  0  0  0  0  0  0
   21.7243   19.9636   19.8211 H   0  0  0  0  0  0  0  0  0  0  0  0
   20.1986   20.7911   20.2105 H   0  0  0  0  0  0  0  0  0  0  0  0
   20.9311   19.2142   26.9515 C   0  0  0  0  0  0  0  0  0  0  0  0
   21.3117   20.2315   26.8369 H   0  0  0  0  0  0  0  0  0  0  0  0
   20.9846   18.9167   28.0011 H   0  0  0  0  0  0  0  0  0  0  0  0
   21.5231   18.5262   26.3447 H   0  0  0  0  0  0  0  0  0  0  0  0
  1  2  1  0  0  0  0
  1  3  1  0  0  0  0
  1  4  1  0  0  0  0
  4  5  1  0  0  0  0
  4  6  1  0  0  0  0
  4  7  1  0  0  0  0
  7  8  1  0  0  0  0
  7  9  1  0  0  0  0
  7 10  1  0  0  0  0
 10 11  1  0  0  0  0
 10 12  1  0  0  0  0
 10 13  1  0  0  0  0
 13 14  1  0  0  0  0
 13 15  1  0  0  0  0
 13 16  1  0  0  0  0
 16 17  1  0  0  0  0
 16 18  1  0  0  0  0
 16 19  1  0  0  0  0
 19 20  1  0  0  0  0
 19 21  1  0  0  0  0
 19 22  1  0  0  0  0
  1 23  1  0  0  0  0
 23 24  1  0  0  0  0
 23 25  1  0  0  0  0
 23 26  1  0  0  0  0
M  END
> <VM2 Rank>
19

> <Conf_Id>
1216

> <Probability>
1.41

> <Sum Probability>
48.99

> <Delta G>
0.929

> <G>
76.395

> <E>
43.952

> <-TS>
32.443

> <U+W>
22.491

> <U>
71.422

> <W>
-48.931

> <W(PB)>
-51.230

> <W(SA)>
2.299

> <Valence>
2.501

> <Coulomb>
68.359

> <VdW>
0.562

> <VdW6>
-6.587

> <VdW12>
7.149

> <Bond>
0.197

> <Angle>
0.717

> <Pdih>
1.587

> <Idih>
0.000

> <Tether>
0.000

$$$$
VeraChem MOL file


 26 25  0  0  0  0  0  0  0  0999 V2000     
   20.3674   19.2601   26.5257 N   0  3  0  0  0  0  0  0  0  0  0  0
   20.7671   19.9618   27.1689 H   0  0  0  0  0  0  0  0  0  0  0  0
   20.9338   18.4105   26.6737 H   0  0  0  0  0  0  0  0  0  0  0  0
   20.5111   19.7441   25.0924 C   0  0  0  0  0  0  0  0  0  0  0  0
   21.5477   20.0645   24.9605 H   0  0  0  0  0  0  0  0  0  0  0  0
   19.8674   20.6183   24.9663 H   0  0  0  0  0  0  0  0  0  0  0  0
   20.1741   18.6858   24.0224 C   0  0  0  0  0  0  0  0  0  0  0  0
   20.7907   17.7924   24.1876 H   0  0  0  0  0  0  0  0  0  0  0  0
   19.1256   18.3768   24.1228 H   0  0  0  0  0  0  0  0  0  0  0  0
   20.4159   19.2291   22.5966 C   0  0  0  0  0  0  0  0  0  0  0  0
   21.4658   19.5370   22.4952 H   0  0  0  0  0  0  0  0  0  0  0  0
   19.8038   20.1285   22.4474 H   0  0  0  0  0  0  0  0  0  0  0  0
   20.0786   18.1753   21.5142 C   0  0  0  0  0  0  0  0  0  0  0  0
   20.6459   17.2566   21.7185 H   0  0  0  0  0  0  0  0  0  0  0  0
   19.0161   17.9030   21.5798 H   0  0  0  0  0  0  0  0  0  0  0  0
   20.4038   18.6431   20.0748 C   0  0  0  0  0  0  0  0  0  0  0  0
   20.2363   17.8039   19.3851 H   0  0  0  0  0  0  0  0  0  0  0  0
   21.4708   18.8951   19.9978 H   0  0  0  0  0  0  0  0  0  0  0  0
   19.5508   19.8460   19.6114 C   0  0  0  0  0  0  0  0  0  0  0  0
   19.7732   20.7475   20.1956 H   0  0  0  0  0  0  0  0  0  0  0  0
   18.4787   19.6300   19.7062 H   0  0  0  0  0  0  0  0  0  0  0  0
   19.7541   20.0779   18.5579 H   0  0  0  0  0  0  0  0  0  0  0  0
   18.9063   19.0065   26.8796 C   0  0  0  0  0  0  0  0  0  0  0  0
   18.3365   19.9264   26.7313 H   0  0  0  0  0  0  0  0  0  0  0  0
   18.5102   18.2172   26.2378 H   0  0  0  0  0  0  0  0  0  0  0  0
   18.8407   18.6968   27.9250 H   0  0  0  0  0  0  0  0  0  0  0  0
  1  2  1  0  0  0  0
  1  3  1  0  0  0  0
  1  4  1  0  0  0  0
  4  5  1  0  0  0  0
  4  6  1  0  0  0  0
  4  7  1  0  0  0  0
  7  8  1  0  0  0  0
  7  9  1  0  0  0  0
  7 10  1  0  0  0  0
 10 11  1  0  0  0  0
 10 12  1  0  0  0  0
 10 13  1  0  0  0  0
 13 14  1  0  0  0  0
 13 15  1  0  0  0  0
 13 16  1  0  0  0  0
 16 17  1  0  0  0  0
 16 18  1  0  0  0  0
 16 19  1  0  0  0  0
 19 20  1  0  0  0  0
 19 21  1  0  0  0  0
 19 22  1  0  0  0  0
  1 23  1  0  0  0  0
 23 24  1  0  0  0  0
 23 25  1  0  0  0  0
 23 26  1  0  0  0  0
M  END
> <VM2 Rank>
20

> <Conf_Id>
1367

> <Probability>
1.41

> <Sum Probability>
50.40

> <Delta G>
0.931

> <G>
76.398

> <E>
43.955

> <-TS>
32.443

> <U+W>
22.493

> <U>
71.422

> <W>
-48.929

> <W(PB)>
-51.221

> <W(SA)>
2.292

> <Valence>
2.501

> <Coulomb>
68.359

> <VdW>
0.562

> <VdW6>
-6.587

> <VdW12>
7.149

> <Bond>
0.197

> <Angle>
0.717

> <Pdih>
1.587

> <Idih>
0.000

> <Tether>
0.000

$$$$
VeraChem MOL file


 26 25  0  0  0  0  0  0  0  0999 V2000     
   20.4019   18.6611   26.4838 N   0  3  0  0  0  0  0  0  0  0  0  0
   21.2152   18.7016   27.1186 H   0  0  0  0  0  0  0  0  0  0  0  0
   20.1186   17.6691   26.4773 H   0  0  0  0  0  0  0  0  0  0  0  0
   20.8229   19.0965   25.0901 C   0  0  0  0  0  0  0  0  0  0  0  0
   21.7297   18.5414   24.8368 H   0  0  0  0  0  0  0  0  0  0  0  0
   21.0762   20.1588   25.1314 H   0  0  0  0  0  0  0  0  0  0  0  0
   19.7640   18.8519   23.9957 C   0  0  0  0  0  0  0  0  0  0  0  0
   19.4794   17.7914   23.9948 H   0  0  0  0  0  0  0  0  0  0  0  0
   18.8577   19.4286   24.2210 H   0  0  0  0  0  0  0  0  0  0  0  0
   20.2941   19.2487   22.5999 C   0  0  0  0  0  0  0  0  0  0  0  0
   21.2046   18.6737   22.3853 H   0  0  0  0  0  0  0  0  0  0  0  0
   20.5804   20.3096   22.6054 H   0  0  0  0  0  0  0  0  0  0  0  0
   19.2408   19.0023   21.4928 C   0  0  0  0  0  0  0  0  0  0  0  0
   18.9900   17.9334   21.4506 H   0  0  0  0  0  0  0  0  0  0  0  0
   18.3123   19.5269   21.7574 H   0  0  0  0  0  0  0  0  0  0  0  0
   19.6936   19.4821   20.0923 C   0  0  0  0  0  0  0  0  0  0  0  0
   19.9240   20.5563   20.1238 H   0  0  0  0  0  0  0  0  0  0  0  0
   18.8538   19.3690   19.3924 H   0  0  0  0  0  0  0  0  0  0  0  0
   20.9103   18.7053   19.5395 C   0  0  0  0  0  0  0  0  0  0  0  0
   21.8107   18.8852   20.1398 H   0  0  0  0  0  0  0  0  0  0  0  0
   21.1319   19.0198   18.5114 H   0  0  0  0  0  0  0  0  0  0  0  0
   20.7160   17.6250   19.5251 H   0  0  0  0  0  0  0  0  0  0  0  0
   19.2804   19.5420   27.0229 C   0  0  0  0  0  0  0  0  0  0  0  0
   18.4023   19.4428   26.3818 H   0  0  0  0  0  0  0  0  0  0  0  0
   19.0319   19.2226   28.0375 H   0  0  0  0  0  0  0  0  0  0  0  0
   19.6152   20.5815   27.0354 H   0  0  0  0  0  0  0  0  0  0  0  0
  1  2  1  0  0  0  0
  1  3  1  0  0  0  0
  1  4  1  0  0  0  0
  4  5  1  0  0  0  0
  4  6  1  0  0  0  0
  4  7  1  0  0  0  0
  7  8  1  0  0  0  0
  7  9  1  0  0  0  0
  7 10  1  0  0  0  0
 10 11  1  0  0  0  0
 10 12  1  0  0  0  0
 10 13  1  0  0  0  0
 13 14  1  0  0  0  0
 13 15  1  0  0  0  0
 13 16  1  0  0  0  0
 16 17  1  0  0  0  0
 16 18  1  0  0  0  0
 16 19  1  0  0  0  0
 19 20  1  0  0  0  0
 19 21  1  0  0  0  0
 19 22  1  0  0  0  0
  1 23  1  0  0  0  0
 23 24  1  0  0  0  0
 23 25  1  0  0  0  0
 23 26  1  0  0  0  0
M  END
> <VM2 Rank>
21

> <Conf_Id>
1317

> <Probability>
1.35

> <Sum Probability>
51.74

> <Delta G>
0.958

> <G>
76.424

> <E>
43.981

> <-TS>
32.443

> <U+W>
22.519

> <U>
71.429

> <W>
-48.910

> <W(PB)>
-51.184

> <W(SA)>
2.273

> <Valence>
2.501

> <Coulomb>
68.364

> <VdW>
0.564

> <VdW6>
-6.585

> <VdW12>
7.149

> <Bond>
0.197

> <Angle>
0.717

> <Pdih>
1.587

> <Idih>
0.000

> <Tether>
0.000

$$$$
VeraChem MOL file


 26 25  0  0  0  0  0  0  0  0999 V2000     
   20.0416   18.7969   26.4299 N   0  3  0  0  0  0  0  0  0  0  0  0
   20.4504   17.8498   26.4150 H   0  0  0  0  0  0  0  0  0  0  0  0
   19.4595   18.8221   27.2823 H   0  0  0  0  0  0  0  0  0  0  0  0
   19.1630   19.0094   25.2083 C   0  0  0  0  0  0  0  0  0  0  0  0
   18.7831   20.0336   25.2408 H   0  0  0  0  0  0  0  0  0  0  0  0
   18.3121   18.3293   25.2987 H   0  0  0  0  0  0  0  0  0  0  0  0
   19.8674   18.7537   23.8604 C   0  0  0  0  0  0  0  0  0  0  0  0
   20.7053   19.4526   23.7504 H   0  0  0  0  0  0  0  0  0  0  0  0
   20.2883   17.7396   23.8566 H   0  0  0  0  0  0  0  0  0  0  0  0
   18.8866   18.9148   22.6750 C   0  0  0  0  0  0  0  0  0  0  0  0
   18.5020   19.9440   22.6498 H   0  0  0  0  0  0  0  0  0  0  0  0
   18.0160   18.2651   22.8417 H   0  0  0  0  0  0  0  0  0  0  0  0
   19.5085   18.5591   21.3019 C   0  0  0  0  0  0  0  0  0  0  0  0
   19.8773   17.5242   21.3214 H   0  0  0  0  0  0  0  0  0  0  0  0
   18.7148   18.5884   20.5426 H   0  0  0  0  0  0  0  0  0  0  0  0
   20.6498   19.5116   20.8724 C   0  0  0  0  0  0  0  0  0  0  0  0
   21.4899   19.4392   21.5757 H   0  0  0  0  0  0  0  0  0  0  0  0
   20.2967   20.5519   20.9034 H   0  0  0  0  0  0  0  0  0  0  0  0
   21.1581   19.1866   19.4514 C   0  0  0  0  0  0  0  0  0  0  0  0
   21.9685   19.8690   19.1640 H   0  0  0  0  0  0  0  0  0  0  0  0
   20.3541   19.2886   18.7109 H   0  0  0  0  0  0  0  0  0  0  0  0
   21.5458   18.1610   19.3960 H   0  0  0  0  0  0  0  0  0  0  0  0
   21.1330   19.8578   26.5176 C   0  0  0  0  0  0  0  0  0  0  0  0
   20.6704   20.8466   26.5501 H   0  0  0  0  0  0  0  0  0  0  0  0
   21.7177   19.6943   27.4257 H   0  0  0  0  0  0  0  0  0  0  0  0
   21.7835   19.7811   25.6441 H   0  0  0  0  0  0  0  0  0  0  0  0
  1  2  1  0  0  0  0
  1  3  1  0  0  0  0
  1  4  1  0  0  0  0
  4  5  1  0  0  0  0
  4  6  1  0  0  0  0
  4  7  1  0  0  0  0
  7  8  1  0  0  0  0
  7  9  1  0  0  0  0
  7 10  1  0  0  0  0
 10 11  1  0  0  0  0
 10 12  1  0  0  0  0
 10 13  1  0  0  0  0
 13 14  1  0  0  0  0
 13 15  1  0  0  0  0
 13 16  1  0  0  0  0
 16 17  1  0  0  0  0
 16 18  1  0  0  0  0
 16 19  1  0  0  0  0
 19 20  1  0  0  0  0
 19 21  1  0  0  0  0
 19 22  1  0  0  0  0
  1 23  1  0  0  0  0
 23 24  1  0  0  0  0
 23 25  1  0  0  0  0
 23 26  1  0  0  0  0
M  END
> <VM2 Rank>
22

> <Conf_Id>
1257

> <Probability>
1.30

> <Sum Probability>
53.04

> <Delta G>
0.978

> <G>
76.445

> <E>
44.013

> <-TS>
32.432

> <U+W>
22.551

> <U>
71.707

> <W>
-49.156

> <W(PB)>
-51.437

> <W(SA)>
2.281

> <Valence>
2.540

> <Coulomb>
68.632

> <VdW>
0.535

> <VdW6>
-6.648

> <VdW12>
7.183

> <Bond>
0.201

> <Angle>
0.741

> <Pdih>
1.598

> <Idih>
0.000

> <Tether>
0.000

$$$$
VeraChem MOL file


 26 25  0  0  0  0  0  0  0  0999 V2000     
   19.3814   18.7687   26.3198 N   0  3  0  0  0  0  0  0  0  0  0  0
   18.8437   17.9295   26.0532 H   0  0  0  0  0  0  0  0  0  0  0  0
   18.8520   19.1868   27.1014 H   0  0  0  0  0  0  0  0  0  0  0  0
   19.4347   19.7493   25.1601 C   0  0  0  0  0  0  0  0  0  0  0  0
   20.0422   20.6035   25.4694 H   0  0  0  0  0  0  0  0  0  0  0  0
   18.4151   20.1033   24.9873 H   0  0  0  0  0  0  0  0  0  0  0  0
   19.9890   19.1594   23.8473 C   0  0  0  0  0  0  0  0  0  0  0  0
   21.0250   18.8295   23.9974 H   0  0  0  0  0  0  0  0  0  0  0  0
   19.4018   18.2721   23.5801 H   0  0  0  0  0  0  0  0  0  0  0  0
   19.9391   20.1968   22.7008 C   0  0  0  0  0  0  0  0  0  0  0  0
   20.4614   21.1086   23.0226 H   0  0  0  0  0  0  0  0  0  0  0  0
   18.8971   20.4898   22.5111 H   0  0  0  0  0  0  0  0  0  0  0  0
   20.5862   19.6989   21.3848 C   0  0  0  0  0  0  0  0  0  0  0  0
   20.6091   20.5339   20.6708 H   0  0  0  0  0  0  0  0  0  0  0  0
   21.6338   19.4242   21.5701 H   0  0  0  0  0  0  0  0  0  0  0  0
   19.8406   18.5065   20.7395 C   0  0  0  0  0  0  0  0  0  0  0  0
   18.7807   18.7622   20.6014 H   0  0  0  0  0  0  0  0  0  0  0  0
   19.8736   17.6333   21.4044 H   0  0  0  0  0  0  0  0  0  0  0  0
   20.4551   18.1209   19.3769 C   0  0  0  0  0  0  0  0  0  0  0  0
   20.4032   18.9579   18.6685 H   0  0  0  0  0  0  0  0  0  0  0  0
   19.9167   17.2724   18.9349 H   0  0  0  0  0  0  0  0  0  0  0  0
   21.5083   17.8309   19.4868 H   0  0  0  0  0  0  0  0  0  0  0  0
   20.7819   18.3895   26.7879 C   0  0  0  0  0  0  0  0  0  0  0  0
   21.3122   17.8895   25.9750 H   0  0  0  0  0  0  0  0  0  0  0  0
   21.3195   19.2941   27.0805 H   0  0  0  0  0  0  0  0  0  0  0  0
   20.7021   17.7152   27.6434 H   0  0  0  0  0  0  0  0  0  0  0  0
  1  2  1  0  0  0  0
  1  3  1  0  0  0  0
  1  4  1  0  0  0  0
  4  5  1  0  0  0  0
  4  6  1  0  0  0  0
  4  7  1  0  0  0  0
  7  8  1  0  0  0  0
  7  9  1  0  0  0  0
  7 10  1  0  0  0  0
 10 11  1  0  0  0  0
 10 12  1  0  0  0  0
 10 13  1  0  0  0  0
 13 14  1  0  0  0  0
 13 15  1  0  0  0  0
 13 16  1  0  0  0  0
 16 17  1  0  0  0  0
 16 18  1  0  0  0  0
 16 19  1  0  0  0  0
 19 20  1  0  0  0  0
 19 21  1  0  0  0  0
 19 22  1  0  0  0  0
  1 23  1  0  0  0  0
 23 24  1  0  0  0  0
 23 25  1  0  0  0  0
 23 26  1  0  0  0  0
M  END
> <VM2 Rank>
23

> <Conf_Id>
827

> <Probability>
1.28

> <Sum Probability>
54.32

> <Delta G>
0.989

> <G>
76.456

> <E>
44.023

> <-TS>
32.433

> <U+W>
22.561

> <U>
71.722

> <W>
-49.162

> <W(PB)>
-51.478

> <W(SA)>
2.316

> <Valence>
2.540

> <Coulomb>
68.643

> <VdW>
0.540

> <VdW6>
-6.633

> <VdW12>
7.173

> <Bond>
0.200

> <Angle>
0.745

> <Pdih>
1.594

> <Idih>
0.000

> <Tether>
0.000

$$$$
VeraChem MOL file


 26 25  0  0  0  0  0  0  0  0999 V2000     
   20.5538   18.8868   26.3613 N   0  3  0  0  0  0  0  0  0  0  0  0
   20.9332   19.3964   27.1751 H   0  0  0  0  0  0  0  0  0  0  0  0
   21.2653   18.1735   26.1388 H   0  0  0  0  0  0  0  0  0  0  0  0
   20.3875   19.8454   25.1939 C   0  0  0  0  0  0  0  0  0  0  0  0
   21.3257   20.3967   25.0905 H   0  0  0  0  0  0  0  0  0  0  0  0
   19.6018   20.5591   25.4538 H   0  0  0  0  0  0  0  0  0  0  0  0
   20.0553   19.1662   23.8497 C   0  0  0  0  0  0  0  0  0  0  0  0
   20.8247   18.4154   23.6306 H   0  0  0  0  0  0  0  0  0  0  0  0
   19.0978   18.6356   23.9290 H   0  0  0  0  0  0  0  0  0  0  0  0
   19.9780   20.2008   22.7022 C   0  0  0  0  0  0  0  0  0  0  0  0
   20.9515   20.6967   22.5840 H   0  0  0  0  0  0  0  0  0  0  0  0
   19.2633   20.9881   22.9800 H   0  0  0  0  0  0  0  0  0  0  0  0
   19.5370   19.5933   21.3475 C   0  0  0  0  0  0  0  0  0  0  0  0
   18.5546   19.1143   21.4608 H   0  0  0  0  0  0  0  0  0  0  0  0
   19.3987   20.4120   20.6277 H   0  0  0  0  0  0  0  0  0  0  0  0
   20.5484   18.5776   20.7647 C   0  0  0  0  0  0  0  0  0  0  0  0
   20.6429   17.7106   21.4319 H   0  0  0  0  0  0  0  0  0  0  0  0
   21.5433   19.0399   20.6998 H   0  0  0  0  0  0  0  0  0  0  0  0
   20.1203   18.0871   19.3650 C   0  0  0  0  0  0  0  0  0  0  0  0
   19.1407   17.5929   19.4025 H   0  0  0  0  0  0  0  0  0  0  0  0
   20.8464   17.3659   18.9681 H   0  0  0  0  0  0  0  0  0  0  0  0
   20.0545   18.9228   18.6562 H   0  0  0  0  0  0  0  0  0  0  0  0
   19.2277   18.2328   26.7327 C   0  0  0  0  0  0  0  0  0  0  0  0
   18.8659   17.6429   25.8882 H   0  0  0  0  0  0  0  0  0  0  0  0
   19.3801   17.5818   27.5965 H   0  0  0  0  0  0  0  0  0  0  0  0
   18.5014   19.0100   26.9806 H   0  0  0  0  0  0  0  0  0  0  0  0
  1  2  1  0  0  0  0
  1  3  1  0  0  0  0
  1  4  1  0  0  0  0
  4  5  1  0  0  0  0
  4  6  1  0  0  0  0
  4  7  1  0  0  0  0
  7  8  1  0  0  0  0
  7  9  1  0  0  0  0
  7 10  1  0  0  0  0
 10 11  1  0  0  0  0
 10 12  1  0  0  0  0
 10 13  1  0  0  0  0
 13 14  1  0  0  0  0
 13 15  1  0  0  0  0
 13 16  1  0  0  0  0
 16 17  1  0  0  0  0
 16 18  1  0  0  0  0
 16 19  1  0  0  0  0
 19 20  1  0  0  0  0
 19 21  1  0  0  0  0
 19 22  1  0  0  0  0
  1 23  1  0  0  0  0
 23 24  1  0  0  0  0
 23 25  1  0  0  0  0
 23 26  1  0  0  0  0
M  END
> <VM2 Rank>
24

> <Conf_Id>
441

> <Probability>
1.25

> <Sum Probability>
55.57

> <Delta G>
1.001

> <G>
76.467

> <E>
44.034

> <-TS>
32.433

> <U+W>
22.573

> <U>
71.723

> <W>
-49.150

> <W(PB)>
-51.448

> <W(SA)>
2.298

> <Valence>
2.539

> <Coulomb>
68.643

> <VdW>
0.540

> <VdW6>
-6.633

> <VdW12>
7.173

> <Bond>
0.200

> <Angle>
0.745

> <Pdih>
1.595

> <Idih>
0.000

> <Tether>
0.000

$$$$
VeraChem MOL file


 26 25  0  0  0  0  0  0  0  0999 V2000     
   19.8963   18.7821   26.4248 N   0  3  0  0  0  0  0  0  0  0  0  0
   20.4001   18.9184   27.3156 H   0  0  0  0  0  0  0  0  0  0  0  0
   19.6895   17.7720   26.3881 H   0  0  0  0  0  0  0  0  0  0  0  0
   20.7971   19.1765   25.2662 C   0  0  0  0  0  0  0  0  0  0  0  0
   21.7595   18.6818   25.4208 H   0  0  0  0  0  0  0  0  0  0  0  0
   20.9588   20.2561   25.3178 H   0  0  0  0  0  0  0  0  0  0  0  0
   20.2551   18.7933   23.8741 C   0  0  0  0  0  0  0  0  0  0  0  0
   20.0494   17.7150   23.8482 H   0  0  0  0  0  0  0  0  0  0  0  0
   19.3030   19.3090   23.7008 H   0  0  0  0  0  0  0  0  0  0  0  0
   21.2636   19.1580   22.7592 C   0  0  0  0  0  0  0  0  0  0  0  0
   22.2337   18.6966   22.9911 H   0  0  0  0  0  0  0  0  0  0  0  0
   21.4329   20.2438   22.7536 H   0  0  0  0  0  0  0  0  0  0  0  0
   20.8242   18.6938   21.3485 C   0  0  0  0  0  0  0  0  0  0  0  0
   21.6467   18.8886   20.6464 H   0  0  0  0  0  0  0  0  0  0  0  0
   20.6721   17.6056   21.3494 H   0  0  0  0  0  0  0  0  0  0  0  0
   19.5467   19.3987   20.8334 C   0  0  0  0  0  0  0  0  0  0  0  0
   19.6789   20.4886   20.8818 H   0  0  0  0  0  0  0  0  0  0  0  0
   18.6915   19.1526   21.4766 H   0  0  0  0  0  0  0  0  0  0  0  0
   19.2155   18.9880   19.3826 C   0  0  0  0  0  0  0  0  0  0  0  0
   19.0483   17.9056   19.3073 H   0  0  0  0  0  0  0  0  0  0  0  0
   20.0320   19.2561   18.6995 H   0  0  0  0  0  0  0  0  0  0  0  0
   18.3059   19.4942   19.0344 H   0  0  0  0  0  0  0  0  0  0  0  0
   18.6094   19.5997   26.4281 C   0  0  0  0  0  0  0  0  0  0  0  0
   18.8591   20.6614   26.4857 H   0  0  0  0  0  0  0  0  0  0  0  0
   18.0507   19.3992   25.5118 H   0  0  0  0  0  0  0  0  0  0  0  0
   18.0078   19.3151   27.2942 H   0  0  0  0  0  0  0  0  0  0  0  0
  1  2  1  0  0  0  0
  1  3  1  0  0  0  0
  1  4  1  0  0  0  0
  4  5  1  0  0  0  0
  4  6  1  0  0  0  0
  4  7  1  0  0  0  0
  7  8  1  0  0  0  0
  7  9  1  0  0  0  0
  7 10  1  0  0  0  0
 10 11  1  0  0  0  0
 10 12  1  0  0  0  0
 10 13  1  0  0  0  0
 13 14  1  0  0  0  0
 13 15  1  0  0  0  0
 13 16  1  0  0  0  0
 16 17  1  0  0  0  0
 16 18  1  0  0  0  0
 16 19  1  0  0  0  0
 19 20  1  0  0  0  0
 19 21  1  0  0  0  0
 19 22  1  0  0  0  0
  1 23  1  0  0  0  0
 23 24  1  0  0  0  0
 23 25  1  0  0  0  0
 23 26  1  0  0  0  0
M  END
> <VM2 Rank>
25

> <Conf_Id>
1088

> <Probability>
1.21

> <Sum Probability>
56.78

> <Delta G>
1.023

> <G>
76.490

> <E>
44.058

> <-TS>
32.432

> <U+W>
22.596

> <U>
71.707

> <W>
-49.110

> <W(PB)>
-51.411

> <W(SA)>
2.301

> <Valence>
2.540

> <Coulomb>
68.632

> <VdW>
0.535

> <VdW6>
-6.648

> <VdW12>
7.184

> <Bond>
0.201

> <Angle>
0.741

> <Pdih>
1.598

> <Idih>
0.000

> <Tether>
0.000

$$$$
VeraChem MOL file


 26 25  0  0  0  0  0  0  0  0999 V2000     
   19.2942   18.8526   25.6646 N   0  3  0  0  0  0  0  0  0  0  0  0
   19.2357   17.8226   25.6840 H   0  0  0  0  0  0  0  0  0  0  0  0
   18.6312   19.1536   24.9345 H   0  0  0  0  0  0  0  0  0  0  0  0
   20.7010   19.2884   25.3028 C   0  0  0  0  0  0  0  0  0  0  0  0
   21.3661   18.9497   26.1013 H   0  0  0  0  0  0  0  0  0  0  0  0
   20.7212   20.3809   25.2825 H   0  0  0  0  0  0  0  0  0  0  0  0
   21.2005   18.7352   23.9535 C   0  0  0  0  0  0  0  0  0  0  0  0
   22.2549   19.0172   23.8328 H   0  0  0  0  0  0  0  0  0  0  0  0
   21.1705   17.6376   23.9732 H   0  0  0  0  0  0  0  0  0  0  0  0
   20.3863   19.2672   22.7500 C   0  0  0  0  0  0  0  0  0  0  0  0
   20.4006   20.3660   22.7559 H   0  0  0  0  0  0  0  0  0  0  0  0
   19.3379   18.9602   22.8520 H   0  0  0  0  0  0  0  0  0  0  0  0
   20.9496   18.7508   21.4040 C   0  0  0  0  0  0  0  0  0  0  0  0
   22.0165   19.0056   21.3395 H   0  0  0  0  0  0  0  0  0  0  0  0
   20.8921   17.6539   21.3744 H   0  0  0  0  0  0  0  0  0  0  0  0
   20.2293   19.3395   20.1666 C   0  0  0  0  0  0  0  0  0  0  0  0
   20.7563   19.0071   19.2612 H   0  0  0  0  0  0  0  0  0  0  0  0
   20.3036   20.4359   20.1797 H   0  0  0  0  0  0  0  0  0  0  0  0
   18.7452   18.9202   20.0606 C   0  0  0  0  0  0  0  0  0  0  0  0
   18.3097   19.2840   19.1210 H   0  0  0  0  0  0  0  0  0  0  0  0
   18.1486   19.3355   20.8821 H   0  0  0  0  0  0  0  0  0  0  0  0
   18.6412   17.8275   20.0773 H   0  0  0  0  0  0  0  0  0  0  0  0
   18.9018   19.4361   27.0148 C   0  0  0  0  0  0  0  0  0  0  0  0
   18.9407   20.5263   26.9599 H   0  0  0  0  0  0  0  0  0  0  0  0
   17.8877   19.1151   27.2629 H   0  0  0  0  0  0  0  0  0  0  0  0
   19.5985   19.0789   27.7764 H   0  0  0  0  0  0  0  0  0  0  0  0
  1  2  1  0  0  0  0
  1  3  1  0  0  0  0
  1  4  1  0  0  0  0
  4  5  1  0  0  0  0
  4  6  1  0  0  0  0
  4  7  1  0  0  0  0
  7  8  1  0  0  0  0
  7  9  1  0  0  0  0
  7 10  1  0  0  0  0
 10 11  1  0  0  0  0
 10 12  1  0  0  0  0
 10 13  1  0  0  0  0
 13 14  1  0  0  0  0
 13 15  1  0  0  0  0
 13 16  1  0  0  0  0
 16 17  1  0  0  0  0
 16 18  1  0  0  0  0
 16 19  1  0  0  0  0
 19 20  1  0  0  0  0
 19 21  1  0  0  0  0
 19 22  1  0  0  0  0
  1 23  1  0  0  0  0
 23 24  1  0  0  0  0
 23 25  1  0  0  0  0
 23 26  1  0  0  0  0
M  END
> <VM2 Rank>
26

> <Conf_Id>
463

> <Probability>
1.11

> <Sum Probability>
57.89

> <Delta G>
1.072

> <G>
76.539

> <E>
44.179

> <-TS>
32.360

> <U+W>
22.717

> <U>
71.970

> <W>
-49.253

> <W(PB)>
-51.560

> <W(SA)>
2.307

> <Valence>
2.341

> <Coulomb>
69.301

> <VdW>
0.327

> <VdW6>
-6.486

> <VdW12>
6.813

> <Bond>
0.179

> <Angle>
0.655

> <Pdih>
1.507

> <Idih>
0.000

> <Tether>
0.000

$$$$
VeraChem MOL file


 26 25  0  0  0  0  0  0  0  0999 V2000     
   20.3575   19.5883   25.8077 N   0  3  0  0  0  0  0  0  0  0  0  0
   20.5066   20.3500   25.1290 H   0  0  0  0  0  0  0  0  0  0  0  0
   21.2927   19.1913   25.9880 H   0  0  0  0  0  0  0  0  0  0  0  0
   19.4479   18.5308   25.2126 C   0  0  0  0  0  0  0  0  0  0  0  0
   18.4733   18.9894   25.0274 H   0  0  0  0  0  0  0  0  0  0  0  0
   19.3189   17.7468   25.9632 H   0  0  0  0  0  0  0  0  0  0  0  0
   19.9835   17.9066   23.9089 C   0  0  0  0  0  0  0  0  0  0  0  0
   20.9652   17.4517   24.0967 H   0  0  0  0  0  0  0  0  0  0  0  0
   19.3114   17.0897   23.6139 H   0  0  0  0  0  0  0  0  0  0  0  0
   20.0835   18.9299   22.7526 C   0  0  0  0  0  0  0  0  0  0  0  0
   20.7858   19.7302   23.0209 H   0  0  0  0  0  0  0  0  0  0  0  0
   19.1025   19.4005   22.6050 H   0  0  0  0  0  0  0  0  0  0  0  0
   20.5508   18.2628   21.4365 C   0  0  0  0  0  0  0  0  0  0  0  0
   21.4958   17.7325   21.6186 H   0  0  0  0  0  0  0  0  0  0  0  0
   19.8229   17.4995   21.1285 H   0  0  0  0  0  0  0  0  0  0  0  0
   20.7668   19.2671   20.2783 C   0  0  0  0  0  0  0  0  0  0  0  0
   21.1938   18.7290   19.4204 H   0  0  0  0  0  0  0  0  0  0  0  0
   21.5135   20.0182   20.5717 H   0  0  0  0  0  0  0  0  0  0  0  0
   19.4683   19.9737   19.8266 C   0  0  0  0  0  0  0  0  0  0  0  0
   19.0674   20.6235   20.6143 H   0  0  0  0  0  0  0  0  0  0  0  0
   18.6948   19.2435   19.5556 H   0  0  0  0  0  0  0  0  0  0  0  0
   19.6591   20.6020   18.9470 H   0  0  0  0  0  0  0  0  0  0  0  0
   19.7497   20.1309   27.0937 C   0  0  0  0  0  0  0  0  0  0  0  0
   19.6306   19.3129   27.8076 H   0  0  0  0  0  0  0  0  0  0  0  0
   20.4139   20.8909   27.5111 H   0  0  0  0  0  0  0  0  0  0  0  0
   18.7760   20.5733   26.8720 H   0  0  0  0  0  0  0  0  0  0  0  0
  1  2  1  0  0  0  0
  1  3  1  0  0  0  0
  1  4  1  0  0  0  0
  4  5  1  0  0  0  0
  4  6  1  0  0  0  0
  4  7  1  0  0  0  0
  7  8  1  0  0  0  0
  7  9  1  0  0  0  0
  7 10  1  0  0  0  0
 10 11  1  0  0  0  0
 10 12  1  0  0  0  0
 10 13  1  0  0  0  0
 13 14  1  0  0  0  0
 13 15  1  0  0  0  0
 13 16  1  0  0  0  0
 16 17  1  0  0  0  0
 16 18  1  0  0  0  0
 16 19  1  0  0  0  0
 19 20  1  0  0  0  0
 19 21  1  0  0  0  0
 19 22  1  0  0  0  0
  1 23  1  0  0  0  0
 23 24  1  0  0  0  0
 23 25  1  0  0  0  0
 23 26  1  0  0  0  0
M  END
> <VM2 Rank>
27

> <Conf_Id>
976

> <Probability>
1.10

> <Sum Probability>
58.99

> <Delta G>
1.076

> <G>
76.543

> <E>
44.176

> <-TS>
32.367

> <U+W>
22.714

> <U>
71.833

> <W>
-49.119

> <W(PB)>
-51.436

> <W(SA)>
2.317

> <Valence>
2.344

> <Coulomb>
69.159

> <VdW>
0.330

> <VdW6>
-6.476

> <VdW12>
6.806

> <Bond>
0.178

> <Angle>
0.658

> <Pdih>
1.508

> <Idih>
0.000

> <Tether>
0.000

$$$$
VeraChem MOL file


 26 25  0  0  0  0  0  0  0  0999 V2000     
   20.6688   18.9934   25.7132 N   0  3  0  0  0  0  0  0  0  0  0  0
   21.3064   19.4278   25.0293 H   0  0  0  0  0  0  0  0  0  0  0  0
   20.9331   17.9964   25.7438 H   0  0  0  0  0  0  0  0  0  0  0  0
   19.2316   19.1380   25.2508 C   0  0  0  0  0  0  0  0  0  0  0  0
   18.9922   20.2039   25.2215 H   0  0  0  0  0  0  0  0  0  0  0  0
   18.5947   18.6659   26.0032 H   0  0  0  0  0  0  0  0  0  0  0  0
   18.9501   18.5050   23.8738 C   0  0  0  0  0  0  0  0  0  0  0  0
   19.2000   17.4360   23.9033 H   0  0  0  0  0  0  0  0  0  0  0  0
   17.8715   18.5688   23.6775 H   0  0  0  0  0  0  0  0  0  0  0  0
   19.7221   19.1994   22.7265 C   0  0  0  0  0  0  0  0  0  0  0  0
   20.8011   19.1099   22.9038 H   0  0  0  0  0  0  0  0  0  0  0  0
   19.4856   20.2725   22.7236 H   0  0  0  0  0  0  0  0  0  0  0  0
   19.3704   18.5895   21.3481 C   0  0  0  0  0  0  0  0  0  0  0  0
   19.6503   17.5271   21.3303 H   0  0  0  0  0  0  0  0  0  0  0  0
   18.2812   18.6240   21.2072 H   0  0  0  0  0  0  0  0  0  0  0  0
   20.0418   19.3204   20.1600 C   0  0  0  0  0  0  0  0  0  0  0  0
   19.7469   20.3791   20.1601 H   0  0  0  0  0  0  0  0  0  0  0  0
   19.6575   18.8951   19.2223 H   0  0  0  0  0  0  0  0  0  0  0  0
   21.5837   19.2102   20.1612 C   0  0  0  0  0  0  0  0  0  0  0  0
   22.0015   19.6613   19.2519 H   0  0  0  0  0  0  0  0  0  0  0  0
   21.9048   18.1609   20.1927 H   0  0  0  0  0  0  0  0  0  0  0  0
   22.0252   19.7314   21.0195 H   0  0  0  0  0  0  0  0  0  0  0  0
   20.8394   19.6342   27.0835 C   0  0  0  0  0  0  0  0  0  0  0  0
   20.5844   20.6942   27.0185 H   0  0  0  0  0  0  0  0  0  0  0  0
   20.1781   19.1375   27.7969 H   0  0  0  0  0  0  0  0  0  0  0  0
   21.8777   19.5234   27.4041 H   0  0  0  0  0  0  0  0  0  0  0  0
  1  2  1  0  0  0  0
  1  3  1  0  0  0  0
  1  4  1  0  0  0  0
  4  5  1  0  0  0  0
  4  6  1  0  0  0  0
  4  7  1  0  0  0  0
  7  8  1  0  0  0  0
  7  9  1  0  0  0  0
  7 10  1  0  0  0  0
 10 11  1  0  0  0  0
 10 12  1  0  0  0  0
 10 13  1  0  0  0  0
 13 14  1  0  0  0  0
 13 15  1  0  0  0  0
 13 16  1  0  0  0  0
 16 17  1  0  0  0  0
 16 18  1  0  0  0  0
 16 19  1  0  0  0  0
 19 20  1  0  0  0  0
 19 21  1  0  0  0  0
 19 22  1  0  0  0  0
  1 23  1  0  0  0  0
 23 24  1  0  0  0  0
 23 25  1  0  0  0  0
 23 26  1  0  0  0  0
M  END
> <VM2 Rank>
28

> <Conf_Id>
1459

> <Probability>
1.09

> <Sum Probability>
60.08

> <Delta G>
1.084

> <G>
76.551

> <E>
44.191

> <-TS>
32.360

> <U+W>
22.729

> <U>
71.970

> <W>
-49.241

> <W(PB)>
-51.540

> <W(SA)>
2.299

> <Valence>
2.341

> <Coulomb>
69.301

> <VdW>
0.327

> <VdW6>
-6.486

> <VdW12>
6.813

> <Bond>
0.179

> <Angle>
0.655

> <Pdih>
1.507

> <Idih>
0.000

> <Tether>
0.000

$$$$
VeraChem MOL file


 26 25  0  0  0  0  0  0  0  0999 V2000     
   19.8923   18.9397   26.2620 N   0  3  0  0  0  0  0  0  0  0  0  0
   20.6019   18.2950   26.6436 H   0  0  0  0  0  0  0  0  0  0  0  0
   18.9881   18.4592   26.3896 H   0  0  0  0  0  0  0  0  0  0  0  0
   20.1494   19.1882   24.7894 C   0  0  0  0  0  0  0  0  0  0  0  0
   21.1173   19.6872   24.6973 H   0  0  0  0  0  0  0  0  0  0  0  0
   19.3750   19.8682   24.4265 H   0  0  0  0  0  0  0  0  0  0  0  0
   20.1487   17.8993   23.9452 C   0  0  0  0  0  0  0  0  0  0  0  0
   20.9019   17.2073   24.3450 H   0  0  0  0  0  0  0  0  0  0  0  0
   19.1773   17.3959   24.0405 H   0  0  0  0  0  0  0  0  0  0  0  0
   20.4527   18.1650   22.4519 C   0  0  0  0  0  0  0  0  0  0  0  0
   20.5177   17.2014   21.9281 H   0  0  0  0  0  0  0  0  0  0  0  0
   21.4416   18.6345   22.3652 H   0  0  0  0  0  0  0  0  0  0  0  0
   19.3816   19.0488   21.7637 C   0  0  0  0  0  0  0  0  0  0  0  0
   18.3879   18.6174   21.9477 H   0  0  0  0  0  0  0  0  0  0  0  0
   19.3724   20.0508   22.2132 H   0  0  0  0  0  0  0  0  0  0  0  0
   19.5843   19.1802   20.2348 C   0  0  0  0  0  0  0  0  0  0  0  0
   18.7331   19.7322   19.8121 H   0  0  0  0  0  0  0  0  0  0  0  0
   19.5654   18.1845   19.7700 H   0  0  0  0  0  0  0  0  0  0  0  0
   20.8918   19.9091   19.8496 C   0  0  0  0  0  0  0  0  0  0  0  0
   20.9446   20.0547   18.7629 H   0  0  0  0  0  0  0  0  0  0  0  0
   21.7771   19.3341   20.1482 H   0  0  0  0  0  0  0  0  0  0  0  0
   20.9474   20.8977   20.3234 H   0  0  0  0  0  0  0  0  0  0  0  0
   19.9074   20.2598   27.0204 C   0  0  0  0  0  0  0  0  0  0  0  0
   19.1272   20.9120   26.6217 H   0  0  0  0  0  0  0  0  0  0  0  0
   19.7212   20.0667   28.0792 H   0  0  0  0  0  0  0  0  0  0  0  0
   20.8840   20.7332   26.8979 H   0  0  0  0  0  0  0  0  0  0  0  0
  1  2  1  0  0  0  0
  1  3  1  0  0  0  0
  1  4  1  0  0  0  0
  4  5  1  0  0  0  0
  4  6  1  0  0  0  0
  4  7  1  0  0  0  0
  7  8  1  0  0  0  0
  7  9  1  0  0  0  0
  7 10  1  0  0  0  0
 10 11  1  0  0  0  0
 10 12  1  0  0  0  0
 10 13  1  0  0  0  0
 13 14  1  0  0  0  0
 13 15  1  0  0  0  0
 13 16  1  0  0  0  0
 16 17  1  0  0  0  0
 16 18  1  0  0  0  0
 16 19  1  0  0  0  0
 19 20  1  0  0  0  0
 19 21  1  0  0  0  0
 19 22  1  0  0  0  0
  1 23  1  0  0  0  0
 23 24  1  0  0  0  0
 23 25  1  0  0  0  0
 23 26  1  0  0  0  0
M  END
> <VM2 Rank>
29

> <Conf_Id>
1490

> <Probability>
1.08

> <Sum Probability>
61.16

> <Delta G>
1.087

> <G>
76.553

> <E>
44.175

> <-TS>
32.379

> <U+W>
22.713

> <U>
71.734

> <W>
-49.021

> <W(PB)>
-51.333

> <W(SA)>
2.311

> <Valence>
2.508

> <Coulomb>
68.926

> <VdW>
0.300

> <VdW6>
-6.530

> <VdW12>
6.830

> <Bond>
0.185

> <Angle>
0.693

> <Pdih>
1.631

> <Idih>
0.000

> <Tether>
0.000

$$$$
VeraChem MOL file


 26 25  0  0  0  0  0  0  0  0999 V2000     
   19.4709   19.4970   25.7765 N   0  3  0  0  0  0  0  0  0  0  0  0
   18.6257   18.9169   25.8937 H   0  0  0  0  0  0  0  0  0  0  0  0
   19.2179   20.2174   25.0835 H   0  0  0  0  0  0  0  0  0  0  0  0
   20.6159   18.6509   25.2539 C   0  0  0  0  0  0  0  0  0  0  0  0
   20.8488   17.9042   26.0173 H   0  0  0  0  0  0  0  0  0  0  0  0
   21.4874   19.2995   25.1341 H   0  0  0  0  0  0  0  0  0  0  0  0
   20.3109   17.9403   23.9205 C   0  0  0  0  0  0  0  0  0  0  0  0
   21.1539   17.2793   23.6790 H   0  0  0  0  0  0  0  0  0  0  0  0
   19.4314   17.2940   24.0424 H   0  0  0  0  0  0  0  0  0  0  0  0
   20.0859   18.9303   22.7528 C   0  0  0  0  0  0  0  0  0  0  0  0
   20.9587   19.5915   22.6706 H   0  0  0  0  0  0  0  0  0  0  0  0
   19.2186   19.5692   22.9655 H   0  0  0  0  0  0  0  0  0  0  0  0
   19.8571   18.1917   21.4120 C   0  0  0  0  0  0  0  0  0  0  0  0
   20.7445   17.5943   21.1612 H   0  0  0  0  0  0  0  0  0  0  0  0
   19.0291   17.4792   21.5314 H   0  0  0  0  0  0  0  0  0  0  0  0
   19.5233   19.1394   20.2343 C   0  0  0  0  0  0  0  0  0  0  0  0
   18.6212   19.7214   20.4694 H   0  0  0  0  0  0  0  0  0  0  0  0
   19.2753   18.5320   19.3526 H   0  0  0  0  0  0  0  0  0  0  0  0
   20.6798   20.0979   19.8692 C   0  0  0  0  0  0  0  0  0  0  0  0
   21.6023   19.5416   19.6580 H   0  0  0  0  0  0  0  0  0  0  0  0
   20.8847   20.8098   20.6783 H   0  0  0  0  0  0  0  0  0  0  0  0
   20.4275   20.6807   18.9739 H   0  0  0  0  0  0  0  0  0  0  0  0
   19.8642   20.1425   27.0979 C   0  0  0  0  0  0  0  0  0  0  0  0
   20.7407   20.7753   26.9417 H   0  0  0  0  0  0  0  0  0  0  0  0
   19.0318   20.7486   27.4624 H   0  0  0  0  0  0  0  0  0  0  0  0
   20.0969   19.3606   27.8242 H   0  0  0  0  0  0  0  0  0  0  0  0
  1  2  1  0  0  0  0
  1  3  1  0  0  0  0
  1  4  1  0  0  0  0
  4  5  1  0  0  0  0
  4  6  1  0  0  0  0
  4  7  1  0  0  0  0
  7  8  1  0  0  0  0
  7  9  1  0  0  0  0
  7 10  1  0  0  0  0
 10 11  1  0  0  0  0
 10 12  1  0  0  0  0
 10 13  1  0  0  0  0
 13 14  1  0  0  0  0
 13 15  1  0  0  0  0
 13 16  1  0  0  0  0
 16 17  1  0  0  0  0
 16 18  1  0  0  0  0
 16 19  1  0  0  0  0
 19 20  1  0  0  0  0
 19 21  1  0  0  0  0
 19 22  1  0  0  0  0
  1 23  1  0  0  0  0
 23 24  1  0  0  0  0
 23 25  1  0  0  0  0
 23 26  1  0  0  0  0
M  END
> <VM2 Rank>
30

> <Conf_Id>
975

> <Probability>
1.04

> <Sum Probability>
62.20

> <Delta G>
1.111

> <G>
76.577

> <E>
44.211

> <-TS>
32.367

> <U+W>
22.749

> <U>
71.833

> <W>
-49.084

> <W(PB)>
-51.405

> <W(SA)>
2.321

> <Valence>
2.344

> <Coulomb>
69.159

> <VdW>
0.330

> <VdW6>
-6.475

> <VdW12>
6.805

> <Bond>
0.178

> <Angle>
0.658

> <Pdih>
1.508

> <Idih>
0.000

> <Tether>
0.000

$$$$
VeraChem MOL file


 26 25  0  0  0  0  0  0  0  0999 V2000     
   20.4254   19.6109   25.8093 N   0  3  0  0  0  0  0  0  0  0  0  0
   20.0765   20.4660   25.3508 H   0  0  0  0  0  0  0  0  0  0  0  0
   21.4368   19.5813   25.6069 H   0  0  0  0  0  0  0  0  0  0  0  0
   19.7404   18.3905   25.2251 C   0  0  0  0  0  0  0  0  0  0  0  0
   18.6735   18.4621   25.4511 H   0  0  0  0  0  0  0  0  0  0  0  0
   20.1394   17.5113   25.7374 H   0  0  0  0  0  0  0  0  0  0  0  0
   19.9391   18.2306   23.7050 C   0  0  0  0  0  0  0  0  0  0  0  0
   21.0125   18.1578   23.4893 H   0  0  0  0  0  0  0  0  0  0  0  0
   19.4901   17.2777   23.3949 H   0  0  0  0  0  0  0  0  0  0  0  0
   19.2993   19.3871   22.8965 C   0  0  0  0  0  0  0  0  0  0  0  0
   19.8014   20.3351   23.1312 H   0  0  0  0  0  0  0  0  0  0  0  0
   18.2526   19.5050   23.2101 H   0  0  0  0  0  0  0  0  0  0  0  0
   19.3296   19.1593   21.3650 C   0  0  0  0  0  0  0  0  0  0  0  0
   18.8073   18.2239   21.1209 H   0  0  0  0  0  0  0  0  0  0  0  0
   18.7594   19.9648   20.8817 H   0  0  0  0  0  0  0  0  0  0  0  0
   20.7584   19.1291   20.7721 C   0  0  0  0  0  0  0  0  0  0  0  0
   21.3232   18.2832   21.1858 H   0  0  0  0  0  0  0  0  0  0  0  0
   21.2983   20.0428   21.0573 H   0  0  0  0  0  0  0  0  0  0  0  0
   20.7338   19.0095   19.2332 C   0  0  0  0  0  0  0  0  0  0  0  0
   21.7545   18.9866   18.8298 H   0  0  0  0  0  0  0  0  0  0  0  0
   20.2115   19.8614   18.7786 H   0  0  0  0  0  0  0  0  0  0  0  0
   20.2260   18.0890   18.9170 H   0  0  0  0  0  0  0  0  0  0  0  0
   20.1820   19.6731   27.3107 C   0  0  0  0  0  0  0  0  0  0  0  0
   20.5872   18.7728   27.7778 H   0  0  0  0  0  0  0  0  0  0  0  0
   20.6797   20.5560   27.7181 H   0  0  0  0  0  0  0  0  0  0  0  0
   19.1078   19.7358   27.4981 H   0  0  0  0  0  0  0  0  0  0  0  0
  1  2  1  0  0  0  0
  1  3  1  0  0  0  0
  1  4  1  0  0  0  0
  4  5  1  0  0  0  0
  4  6  1  0  0  0  0
  4  7  1  0  0  0  0
  7  8  1  0  0  0  0
  7  9  1  0  0  0  0
  7 10  1  0  0  0  0
 10 11  1  0  0  0  0
 10 12  1  0  0  0  0
 10 13  1  0  0  0  0
 13 14  1  0  0  0  0
 13 15  1  0  0  0  0
 13 16  1  0  0  0  0
 16 17  1  0  0  0  0
 16 18  1  0  0  0  0
 16 19  1  0  0  0  0
 19 20  1  0  0  0  0
 19 21  1  0  0  0  0
 19 22  1  0  0  0  0
  1 23  1  0  0  0  0
 23 24  1  0  0  0  0
 23 25  1  0  0  0  0
 23 26  1  0  0  0  0
M  END
> <VM2 Rank>
31

> <Conf_Id>
1492

> <Probability>
1.03

> <Sum Probability>
63.23

> <Delta G>
1.119

> <G>
76.585

> <E>
44.220

> <-TS>
32.365

> <U+W>
22.758

> <U>
71.994

> <W>
-49.236

> <W(PB)>
-51.536

> <W(SA)>
2.300

> <Valence>
2.376

> <Coulomb>
69.315

> <VdW>
0.303

> <VdW6>
-6.508

> <VdW12>
6.810

> <Bond>
0.182

> <Angle>
0.660

> <Pdih>
1.534

> <Idih>
0.000

> <Tether>
0.000

$$$$
VeraChem MOL file


 26 25  0  0  0  0  0  0  0  0999 V2000     
   20.0251   18.9534   26.2667 N   0  3  0  0  0  0  0  0  0  0  0  0
   20.9971   18.6663   26.4608 H   0  0  0  0  0  0  0  0  0  0  0  0
   19.4368   18.1749   26.6023 H   0  0  0  0  0  0  0  0  0  0  0  0
   19.8266   19.1549   24.7780 C   0  0  0  0  0  0  0  0  0  0  0  0
   20.4694   19.9811   24.4652 H   0  0  0  0  0  0  0  0  0  0  0  0
   18.7860   19.4466   24.6147 H   0  0  0  0  0  0  0  0  0  0  0  0
   20.1494   17.8993   23.9452 C   0  0  0  0  0  0  0  0  0  0  0  0
   21.1939   17.6041   24.1119 H   0  0  0  0  0  0  0  0  0  0  0  0
   19.5271   17.0654   24.2962 H   0  0  0  0  0  0  0  0  0  0  0  0
   19.9028   18.1082   22.4324 C   0  0  0  0  0  0  0  0  0  0  0  0
   18.8475   18.3666   22.2732 H   0  0  0  0  0  0  0  0  0  0  0  0
   20.0728   17.1554   21.9123 H   0  0  0  0  0  0  0  0  0  0  0  0
   20.8166   19.1969   21.8146 C   0  0  0  0  0  0  0  0  0  0  0  0
   20.5896   20.1765   22.2564 H   0  0  0  0  0  0  0  0  0  0  0  0
   21.8620   18.9761   22.0708 H   0  0  0  0  0  0  0  0  0  0  0  0
   20.6989   19.2953   20.2743 C   0  0  0  0  0  0  0  0  0  0  0  0
   20.9531   18.3278   19.8191 H   0  0  0  0  0  0  0  0  0  0  0  0
   21.4469   20.0125   19.9083 H   0  0  0  0  0  0  0  0  0  0  0  0
   19.3003   19.7448   19.7932 C   0  0  0  0  0  0  0  0  0  0  0  0
   19.0110   20.6977   20.2549 H   0  0  0  0  0  0  0  0  0  0  0  0
   18.5324   18.9990   20.0332 H   0  0  0  0  0  0  0  0  0  0  0  0
   19.2951   19.8845   18.7045 H   0  0  0  0  0  0  0  0  0  0  0  0
   19.6884   20.2373   27.0125 C   0  0  0  0  0  0  0  0  0  0  0  0
   18.6468   20.5026   26.8185 H   0  0  0  0  0  0  0  0  0  0  0  0
   19.8353   20.0786   28.0832 H   0  0  0  0  0  0  0  0  0  0  0  0
   20.3452   21.0376   26.6647 H   0  0  0  0  0  0  0  0  0  0  0  0
  1  2  1  0  0  0  0
  1  3  1  0  0  0  0
  1  4  1  0  0  0  0
  4  5  1  0  0  0  0
  4  6  1  0  0  0  0
  4  7  1  0  0  0  0
  7  8  1  0  0  0  0
  7  9  1  0  0  0  0
  7 10  1  0  0  0  0
 10 11  1  0  0  0  0
 10 12  1  0  0  0  0
 10 13  1  0  0  0  0
 13 14  1  0  0  0  0
 13 15  1  0  0  0  0
 13 16  1  0  0  0  0
 16 17  1  0  0  0  0
 16 18  1  0  0  0  0
 16 19  1  0  0  0  0
 19 20  1  0  0  0  0
 19 21  1  0  0  0  0
 19 22  1  0  0  0  0
  1 23  1  0  0  0  0
 23 24  1  0  0  0  0
 23 25  1  0  0  0  0
 23 26  1  0  0  0  0
M  END
> <VM2 Rank>
32

> <Conf_Id>
978

> <Probability>
1.02

> <Sum Probability>
64.25

> <Delta G>
1.121

> <G>
76.588

> <E>
44.209

> <-TS>
32.379

> <U+W>
22.747

> <U>
71.734

> <W>
-48.987

> <W(PB)>
-51.298

> <W(SA)>
2.311

> <Valence>
2.508

> <Coulomb>
68.926

> <VdW>
0.300

> <VdW6>
-6.530

> <VdW12>
6.830

> <Bond>
0.185

> <Angle>
0.693

> <Pdih>
1.631

> <Idih>
0.000

> <Tether>
0.000

$$$$
VeraChem MOL file


 26 25  0  0  0  0  0  0  0  0999 V2000     
   19.7871   19.6956   25.5550 N   0  3  0  0  0  0  0  0  0  0  0  0
   18.8772   19.6118   26.0344 H   0  0  0  0  0  0  0  0  0  0  0  0
   19.6262   20.3397   24.7661 H   0  0  0  0  0  0  0  0  0  0  0  0
   20.2297   18.3416   25.0360 C   0  0  0  0  0  0  0  0  0  0  0  0
   20.3764   17.6877   25.8994 H   0  0  0  0  0  0  0  0  0  0  0  0
   21.1948   18.4701   24.5403 H   0  0  0  0  0  0  0  0  0  0  0  0
   19.2266   17.6878   24.0630 C   0  0  0  0  0  0  0  0  0  0  0  0
   19.6051   16.6960   23.7824 H   0  0  0  0  0  0  0  0  0  0  0  0
   18.2773   17.5153   24.5873 H   0  0  0  0  0  0  0  0  0  0  0  0
   18.9608   18.5146   22.7797 C   0  0  0  0  0  0  0  0  0  0  0  0
   18.4895   19.4714   23.0417 H   0  0  0  0  0  0  0  0  0  0  0  0
   18.2295   17.9748   22.1622 H   0  0  0  0  0  0  0  0  0  0  0  0
   20.2382   18.7717   21.9442 C   0  0  0  0  0  0  0  0  0  0  0  0
   20.9620   19.3522   22.5317 H   0  0  0  0  0  0  0  0  0  0  0  0
   20.7190   17.8131   21.7047 H   0  0  0  0  0  0  0  0  0  0  0  0
   19.9252   19.5308   20.6355 C   0  0  0  0  0  0  0  0  0  0  0  0
   19.4421   20.4900   20.8689 H   0  0  0  0  0  0  0  0  0  0  0  0
   19.2090   18.9538   20.0336 H   0  0  0  0  0  0  0  0  0  0  0  0
   21.2003   19.7889   19.8047 C   0  0  0  0  0  0  0  0  0  0  0  0
   21.9227   20.3943   20.3676 H   0  0  0  0  0  0  0  0  0  0  0  0
   20.9579   20.3278   18.8797 H   0  0  0  0  0  0  0  0  0  0  0  0
   21.6882   18.8455   19.5267 H   0  0  0  0  0  0  0  0  0  0  0  0
   20.8401   20.2590   26.4989 C   0  0  0  0  0  0  0  0  0  0  0  0
   20.5092   21.2338   26.8640 H   0  0  0  0  0  0  0  0  0  0  0  0
   20.9707   19.5749   27.3403 H   0  0  0  0  0  0  0  0  0  0  0  0
   21.7840   20.3677   25.9602 H   0  0  0  0  0  0  0  0  0  0  0  0
  1  2  1  0  0  0  0
  1  3  1  0  0  0  0
  1  4  1  0  0  0  0
  4  5  1  0  0  0  0
  4  6  1  0  0  0  0
  4  7  1  0  0  0  0
  7  8  1  0  0  0  0
  7  9  1  0  0  0  0
  7 10  1  0  0  0  0
 10 11  1  0  0  0  0
 10 12  1  0  0  0  0
 10 13  1  0  0  0  0
 13 14  1  0  0  0  0
 13 15  1  0  0  0  0
 13 16  1  0  0  0  0
 16 17  1  0  0  0  0
 16 18  1  0  0  0  0
 16 19  1  0  0  0  0
 19 20  1  0  0  0  0
 19 21  1  0  0  0  0
 19 22  1  0  0  0  0
  1 23  1  0  0  0  0
 23 24  1  0  0  0  0
 23 25  1  0  0  0  0
 23 26  1  0  0  0  0
M  END
> <VM2 Rank>
33

> <Conf_Id>
129

> <Probability>
0.98

> <Sum Probability>
65.23

> <Delta G>
1.145

> <G>
76.612

> <E>
44.169

> <-TS>
32.443

> <U+W>
22.707

> <U>
71.905

> <W>
-49.198

> <W(PB)>
-51.490

> <W(SA)>
2.292

> <Valence>
2.125

> <Coulomb>
69.686

> <VdW>
0.094

> <VdW6>
-6.766

> <VdW12>
6.860

> <Bond>
0.169

> <Angle>
0.621

> <Pdih>
1.336

> <Idih>
0.000

> <Tether>
0.000

$$$$
VeraChem MOL file


 26 25  0  0  0  0  0  0  0  0999 V2000     
   20.4244   18.8025   25.9413 N   0  3  0  0  0  0  0  0  0  0  0  0
   21.1899   18.1422   25.7350 H   0  0  0  0  0  0  0  0  0  0  0  0
   19.7483   18.2701   26.5107 H   0  0  0  0  0  0  0  0  0  0  0  0
   19.7727   19.2670   24.6545 C   0  0  0  0  0  0  0  0  0  0  0  0
   20.5214   19.8210   24.0831 H   0  0  0  0  0  0  0  0  0  0  0  0
   18.9623   19.9518   24.9165 H   0  0  0  0  0  0  0  0  0  0  0  0
   19.2184   18.1109   23.8002 C   0  0  0  0  0  0  0  0  0  0  0  0
   20.0291   17.4159   23.5471 H   0  0  0  0  0  0  0  0  0  0  0  0
   18.4971   17.5371   24.3971 H   0  0  0  0  0  0  0  0  0  0  0  0
   18.5182   18.6027   22.5087 C   0  0  0  0  0  0  0  0  0  0  0  0
   17.6270   19.1825   22.7865 H   0  0  0  0  0  0  0  0  0  0  0  0
   18.1489   17.7319   21.9496 H   0  0  0  0  0  0  0  0  0  0  0  0
   19.4029   19.4687   21.5746 C   0  0  0  0  0  0  0  0  0  0  0  0
   18.7966   19.7756   20.7111 H   0  0  0  0  0  0  0  0  0  0  0  0
   19.6920   20.3973   22.0848 H   0  0  0  0  0  0  0  0  0  0  0  0
   20.6679   18.7378   21.0656 C   0  0  0  0  0  0  0  0  0  0  0  0
   20.3824   17.7881   20.5918 H   0  0  0  0  0  0  0  0  0  0  0  0
   21.3264   18.4882   21.9083 H   0  0  0  0  0  0  0  0  0  0  0  0
   21.4547   19.5983   20.0541 C   0  0  0  0  0  0  0  0  0  0  0  0
   22.3494   19.0662   19.7058 H   0  0  0  0  0  0  0  0  0  0  0  0
   21.7804   20.5430   20.5088 H   0  0  0  0  0  0  0  0  0  0  0  0
   20.8411   19.8356   19.1752 H   0  0  0  0  0  0  0  0  0  0  0  0
   20.9489   20.0021   26.7181 C   0  0  0  0  0  0  0  0  0  0  0  0
   20.1168   20.6694   26.9534 H   0  0  0  0  0  0  0  0  0  0  0  0
   21.4154   19.6541   27.6424 H   0  0  0  0  0  0  0  0  0  0  0  0
   21.6860   20.5301   26.1090 H   0  0  0  0  0  0  0  0  0  0  0  0
  1  2  1  0  0  0  0
  1  3  1  0  0  0  0
  1  4  1  0  0  0  0
  4  5  1  0  0  0  0
  4  6  1  0  0  0  0
  4  7  1  0  0  0  0
  7  8  1  0  0  0  0
  7  9  1  0  0  0  0
  7 10  1  0  0  0  0
 10 11  1  0  0  0  0
 10 12  1  0  0  0  0
 10 13  1  0  0  0  0
 13 14  1  0  0  0  0
 13 15  1  0  0  0  0
 13 16  1  0  0  0  0
 16 17  1  0  0  0  0
 16 18  1  0  0  0  0
 16 19  1  0  0  0  0
 19 20  1  0  0  0  0
 19 21  1  0  0  0  0
 19 22  1  0  0  0  0
  1 23  1  0  0  0  0
 23 24  1  0  0  0  0
 23 25  1  0  0  0  0
 23 26  1  0  0  0  0
M  END
> <VM2 Rank>
34

> <Conf_Id>
1489

> <Probability>
0.97

> <Sum Probability>
66.21

> <Delta G>
1.151

> <G>
76.617

> <E>
44.120

> <-TS>
32.497

> <U+W>
22.659

> <U>
72.035

> <W>
-49.377

> <W(PB)>
-51.686

> <W(SA)>
2.310

> <Valence>
2.479

> <Coulomb>
69.414

> <VdW>
0.142

> <VdW6>
-6.882

> <VdW12>
7.024

> <Bond>
0.193

> <Angle>
0.854

> <Pdih>
1.433

> <Idih>
0.000

> <Tether>
0.000

$$$$
VeraChem MOL file


 26 25  0  0  0  0  0  0  0  0999 V2000     
   20.0234   19.7200   25.5634 N   0  3  0  0  0  0  0  0  0  0  0  0
   20.1044   20.3890   24.7831 H   0  0  0  0  0  0  0  0  0  0  0  0
   20.8954   19.8199   26.1059 H   0  0  0  0  0  0  0  0  0  0  0  0
   19.9036   18.3079   25.0244 C   0  0  0  0  0  0  0  0  0  0  0  0
   18.9697   18.2406   24.4614 H   0  0  0  0  0  0  0  0  0  0  0  0
   19.8332   17.6317   25.8801 H   0  0  0  0  0  0  0  0  0  0  0  0
   21.0845   17.8795   24.1288 C   0  0  0  0  0  0  0  0  0  0  0  0
   22.0099   17.9004   24.7195 H   0  0  0  0  0  0  0  0  0  0  0  0
   20.9367   16.8334   23.8295 H   0  0  0  0  0  0  0  0  0  0  0  0
   21.2653   18.7524   22.8613 C   0  0  0  0  0  0  0  0  0  0  0  0
   22.1326   18.3775   22.3004 H   0  0  0  0  0  0  0  0  0  0  0  0
   21.5121   19.7832   23.1487 H   0  0  0  0  0  0  0  0  0  0  0  0
   20.0239   18.7497   21.9367 C   0  0  0  0  0  0  0  0  0  0  0  0
   19.7666   17.7150   21.6711 H   0  0  0  0  0  0  0  0  0  0  0  0
   19.1577   19.1663   22.4678 H   0  0  0  0  0  0  0  0  0  0  0  0
   20.2664   19.5659   20.6475 C   0  0  0  0  0  0  0  0  0  0  0  0
   21.1254   19.1513   20.1013 H   0  0  0  0  0  0  0  0  0  0  0  0
   20.5264   20.6017   20.9071 H   0  0  0  0  0  0  0  0  0  0  0  0
   19.0267   19.5646   19.7278 C   0  0  0  0  0  0  0  0  0  0  0  0
   19.2183   20.1482   18.8180 H   0  0  0  0  0  0  0  0  0  0  0  0
   18.1585   20.0061   20.2343 H   0  0  0  0  0  0  0  0  0  0  0  0
   18.7620   18.5437   19.4232 H   0  0  0  0  0  0  0  0  0  0  0  0
   18.8142   20.0499   26.4272 C   0  0  0  0  0  0  0  0  0  0  0  0
   18.7672   19.3475   27.2622 H   0  0  0  0  0  0  0  0  0  0  0  0
   18.9131   21.0691   26.8077 H   0  0  0  0  0  0  0  0  0  0  0  0
   17.9081   19.9679   25.8230 H   0  0  0  0  0  0  0  0  0  0  0  0
  1  2  1  0  0  0  0
  1  3  1  0  0  0  0
  1  4  1  0  0  0  0
  4  5  1  0  0  0  0
  4  6  1  0  0  0  0
  4  7  1  0  0  0  0
  7  8  1  0  0  0  0
  7  9  1  0  0  0  0
  7 10  1  0  0  0  0
 10 11  1  0  0  0  0
 10 12  1  0  0  0  0
 10 13  1  0  0  0  0
 13 14  1  0  0  0  0
 13 15  1  0  0  0  0
 13 16  1  0  0  0  0
 16 17  1  0  0  0  0
 16 18  1  0  0  0  0
 16 19  1  0  0  0  0
 19 20  1  0  0  0  0
 19 21  1  0  0  0  0
 19 22  1  0  0  0  0
  1 23  1  0  0  0  0
 23 24  1  0  0  0  0
 23 25  1  0  0  0  0
 23 26  1  0  0  0  0
M  END
> <VM2 Rank>
35

> <Conf_Id>
1341

> <Probability>
0.95

> <Sum Probability>
67.16

> <Delta G>
1.164

> <G>
76.631

> <E>
44.187

> <-TS>
32.443

> <U+W>
22.726

> <U>
71.905

> <W>
-49.180

> <W(PB)>
-51.495

> <W(SA)>
2.315

> <Valence>
2.125

> <Coulomb>
69.686

> <VdW>
0.094

> <VdW6>
-6.766

> <VdW12>
6.860

> <Bond>
0.169

> <Angle>
0.621

> <Pdih>
1.336

> <Idih>
0.000

> <Tether>
0.000

$$$$
VeraChem MOL file


 26 25  0  0  0  0  0  0  0  0999 V2000     
   19.4000   19.5055   25.7731 N   0  3  0  0  0  0  0  0  0  0  0  0
   18.4324   19.2728   25.5006 H   0  0  0  0  0  0  0  0  0  0  0  0
   19.5992   20.4170   25.3340 H   0  0  0  0  0  0  0  0  0  0  0  0
   20.3576   18.4539   25.2470 C   0  0  0  0  0  0  0  0  0  0  0  0
   20.1105   17.5083   25.7363 H   0  0  0  0  0  0  0  0  0  0  0  0
   21.3692   18.7389   25.5465 H   0  0  0  0  0  0  0  0  0  0  0  0
   20.3023   18.2680   23.7179 C   0  0  0  0  0  0  0  0  0  0  0  0
   20.9560   17.4283   23.4467 H   0  0  0  0  0  0  0  0  0  0  0  0
   19.2838   17.9804   23.4281 H   0  0  0  0  0  0  0  0  0  0  0  0
   20.7489   19.5361   22.9478 C   0  0  0  0  0  0  0  0  0  0  0  0
   21.7252   19.8619   23.3331 H   0  0  0  0  0  0  0  0  0  0  0  0
   20.0496   20.3607   23.1400 H   0  0  0  0  0  0  0  0  0  0  0  0
   20.8729   19.3180   21.4197 C   0  0  0  0  0  0  0  0  0  0  0  0
   21.2999   20.2259   20.9717 H   0  0  0  0  0  0  0  0  0  0  0  0
   21.5901   18.5100   21.2195 H   0  0  0  0  0  0  0  0  0  0  0  0
   19.5251   19.0023   20.7283 C   0  0  0  0  0  0  0  0  0  0  0  0
   18.7922   19.7852   20.9686 H   0  0  0  0  0  0  0  0  0  0  0  0
   19.1165   18.0563   21.1076 H   0  0  0  0  0  0  0  0  0  0  0  0
   19.6812   18.9013   19.1959 C   0  0  0  0  0  0  0  0  0  0  0  0
   20.0499   19.8448   18.7729 H   0  0  0  0  0  0  0  0  0  0  0  0
   18.7173   18.6743   18.7221 H   0  0  0  0  0  0  0  0  0  0  0  0
   20.3864   18.1055   18.9226 H   0  0  0  0  0  0  0  0  0  0  0  0
   19.5201   19.6050   27.2874 C   0  0  0  0  0  0  0  0  0  0  0  0
   18.8262   20.3654   27.6527 H   0  0  0  0  0  0  0  0  0  0  0  0
   19.2744   18.6378   27.7313 H   0  0  0  0  0  0  0  0  0  0  0  0
   20.5434   19.8831   27.5490 H   0  0  0  0  0  0  0  0  0  0  0  0
  1  2  1  0  0  0  0
  1  3  1  0  0  0  0
  1  4  1  0  0  0  0
  4  5  1  0  0  0  0
  4  6  1  0  0  0  0
  4  7  1  0  0  0  0
  7  8  1  0  0  0  0
  7  9  1  0  0  0  0
  7 10  1  0  0  0  0
 10 11  1  0  0  0  0
 10 12  1  0  0  0  0
 10 13  1  0  0  0  0
 13 14  1  0  0  0  0
 13 15  1  0  0  0  0
 13 16  1  0  0  0  0
 16 17  1  0  0  0  0
 16 18  1  0  0  0  0
 16 19  1  0  0  0  0
 19 20  1  0  0  0  0
 19 21  1  0  0  0  0
 19 22  1  0  0  0  0
  1 23  1  0  0  0  0
 23 24  1  0  0  0  0
 23 25  1  0  0  0  0
 23 26  1  0  0  0  0
M  END
> <VM2 Rank>
36

> <Conf_Id>
248

> <Probability>
0.90

> <Sum Probability>
68.06

> <Delta G>
1.197

> <G>
76.664

> <E>
44.298

> <-TS>
32.365

> <U+W>
22.837

> <U>
71.994

> <W>
-49.157

> <W(PB)>
-51.476

> <W(SA)>
2.318

> <Valence>
2.376

> <Coulomb>
69.315

> <VdW>
0.303

> <VdW6>
-6.508

> <VdW12>
6.811

> <Bond>
0.182

> <Angle>
0.660

> <Pdih>
1.534

> <Idih>
0.000

> <Tether>
0.000

$$$$
VeraChem MOL file


 26 25  0  0  0  0  0  0  0  0999 V2000     
   19.7308   18.7293   26.0268 N   0  3  0  0  0  0  0  0  0  0  0  0
   20.1163   17.7727   26.0565 H   0  0  0  0  0  0  0  0  0  0  0  0
   18.7855   18.6339   25.6264 H   0  0  0  0  0  0  0  0  0  0  0  0
   20.5876   19.6097   25.1374 C   0  0  0  0  0  0  0  0  0  0  0  0
   21.5749   19.6824   25.6007 H   0  0  0  0  0  0  0  0  0  0  0  0
   20.1438   20.6083   25.1221 H   0  0  0  0  0  0  0  0  0  0  0  0
   20.7388   19.0869   23.6950 C   0  0  0  0  0  0  0  0  0  0  0  0
   21.4675   19.7249   23.1800 H   0  0  0  0  0  0  0  0  0  0  0  0
   21.1653   18.0752   23.7149 H   0  0  0  0  0  0  0  0  0  0  0  0
   19.3990   19.0849   22.9163 C   0  0  0  0  0  0  0  0  0  0  0  0
   18.9919   20.1049   22.8778 H   0  0  0  0  0  0  0  0  0  0  0  0
   18.6618   18.4793   23.4596 H   0  0  0  0  0  0  0  0  0  0  0  0
   19.5193   18.5205   21.4790 C   0  0  0  0  0  0  0  0  0  0  0  0
   19.9200   17.4981   21.5167 H   0  0  0  0  0  0  0  0  0  0  0  0
   18.5099   18.4393   21.0523 H   0  0  0  0  0  0  0  0  0  0  0  0
   20.3910   19.3887   20.5405 C   0  0  0  0  0  0  0  0  0  0  0  0
   21.4273   19.4171   20.9024 H   0  0  0  0  0  0  0  0  0  0  0  0
   20.0233   20.4244   20.5447 H   0  0  0  0  0  0  0  0  0  0  0  0
   20.3819   18.8490   19.0943 C   0  0  0  0  0  0  0  0  0  0  0  0
   19.3651   18.8442   18.6804 H   0  0  0  0  0  0  0  0  0  0  0  0
   20.7725   17.8239   19.0531 H   0  0  0  0  0  0  0  0  0  0  0  0
   21.0070   19.4739   18.4433 H   0  0  0  0  0  0  0  0  0  0  0  0
   19.6595   19.3210   27.4276 C   0  0  0  0  0  0  0  0  0  0  0  0
   19.0401   18.6781   28.0570 H   0  0  0  0  0  0  0  0  0  0  0  0
   20.6678   19.3828   27.8430 H   0  0  0  0  0  0  0  0  0  0  0  0
   19.2195   20.3192   27.3739 H   0  0  0  0  0  0  0  0  0  0  0  0
  1  2  1  0  0  0  0
  1  3  1  0  0  0  0
  1  4  1  0  0  0  0
  4  5  1  0  0  0  0
  4  6  1  0  0  0  0
  4  7  1  0  0  0  0
  7  8  1  0  0  0  0
  7  9  1  0  0  0  0
  7 10  1  0  0  0  0
 10 11  1  0  0  0  0
 10 12  1  0  0  0  0
 10 13  1  0  0  0  0
 13 14  1  0  0  0  0
 13 15  1  0  0  0  0
 13 16  1  0  0  0  0
 16 17  1  0  0  0  0
 16 18  1  0  0  0  0
 16 19  1  0  0  0  0
 19 20  1  0  0  0  0
 19 21  1  0  0  0  0
 19 22  1  0  0  0  0
  1 23  1  0  0  0  0
 23 24  1  0  0  0  0
 23 25  1  0  0  0  0
 23 26  1  0  0  0  0
M  END
> <VM2 Rank>
37

> <Conf_Id>
952

> <Probability>
0.90

> <Sum Probability>
68.95

> <Delta G>
1.200

> <G>
76.667

> <E>
44.336

> <-TS>
32.330

> <U+W>
22.875

> <U>
71.903

> <W>
-49.029

> <W(PB)>
-51.326

> <W(SA)>
2.298

> <Valence>
2.410

> <Coulomb>
69.133

> <VdW>
0.360

> <VdW6>
-6.461

> <VdW12>
6.821

> <Bond>
0.187

> <Angle>
0.708

> <Pdih>
1.514

> <Idih>
0.000

> <Tether>
0.000

$$$$
VeraChem MOL file


 26 25  0  0  0  0  0  0  0  0999 V2000     
   19.5560   18.7133   25.9105 N   0  3  0  0  0  0  0  0  0  0  0  0
   20.2846   18.3255   26.5297 H   0  0  0  0  0  0  0  0  0  0  0  0
   18.9571   17.9125   25.6560 H   0  0  0  0  0  0  0  0  0  0  0  0
   20.1880   19.3096   24.6690 C   0  0  0  0  0  0  0  0  0  0  0  0
   20.8217   20.1431   24.9821 H   0  0  0  0  0  0  0  0  0  0  0  0
   19.3841   19.7037   24.0426 H   0  0  0  0  0  0  0  0  0  0  0  0
   21.0242   18.2965   23.8642 C   0  0  0  0  0  0  0  0  0  0  0  0
   21.8035   17.8772   24.5143 H   0  0  0  0  0  0  0  0  0  0  0  0
   20.3915   17.4529   23.5601 H   0  0  0  0  0  0  0  0  0  0  0  0
   21.6985   18.9295   22.6213 C   0  0  0  0  0  0  0  0  0  0  0  0
   22.2752   18.1559   22.0957 H   0  0  0  0  0  0  0  0  0  0  0  0
   22.4316   19.6763   22.9566 H   0  0  0  0  0  0  0  0  0  0  0  0
   20.7239   19.6045   21.6213 C   0  0  0  0  0  0  0  0  0  0  0  0
   20.2172   20.4513   22.1034 H   0  0  0  0  0  0  0  0  0  0  0  0
   21.3141   20.0342   20.8002 H   0  0  0  0  0  0  0  0  0  0  0  0
   19.6724   18.6354   21.0305 C   0  0  0  0  0  0  0  0  0  0  0  0
   19.0212   18.2512   21.8269 H   0  0  0  0  0  0  0  0  0  0  0  0
   20.1773   17.7671   20.5845 H   0  0  0  0  0  0  0  0  0  0  0  0
   18.7998   19.3255   19.9604 C   0  0  0  0  0  0  0  0  0  0  0  0
   18.0584   18.6253   19.5542 H   0  0  0  0  0  0  0  0  0  0  0  0
   19.4122   19.6889   19.1249 H   0  0  0  0  0  0  0  0  0  0  0  0
   18.2580   20.1810   20.3845 H   0  0  0  0  0  0  0  0  0  0  0  0
   18.7453   19.7756   26.6398 C   0  0  0  0  0  0  0  0  0  0  0  0
   17.9607   20.1468   25.9768 H   0  0  0  0  0  0  0  0  0  0  0  0
   18.2959   19.3335   27.5318 H   0  0  0  0  0  0  0  0  0  0  0  0
   19.4057   20.5966   26.9277 H   0  0  0  0  0  0  0  0  0  0  0  0
  1  2  1  0  0  0  0
  1  3  1  0  0  0  0
  1  4  1  0  0  0  0
  4  5  1  0  0  0  0
  4  6  1  0  0  0  0
  4  7  1  0  0  0  0
  7  8  1  0  0  0  0
  7  9  1  0  0  0  0
  7 10  1  0  0  0  0
 10 11  1  0  0  0  0
 10 12  1  0  0  0  0
 10 13  1  0  0  0  0
 13 14  1  0  0  0  0
 13 15  1  0  0  0  0
 13 16  1  0  0  0  0
 16 17  1  0  0  0  0
 16 18  1  0  0  0  0
 16 19  1  0  0  0  0
 19 20  1  0  0  0  0
 19 21  1  0  0  0  0
 19 22  1  0  0  0  0
  1 23  1  0  0  0  0
 23 24  1  0  0  0  0
 23 25  1  0  0  0  0
 23 26  1  0  0  0  0
M  END
> <VM2 Rank>
38

> <Conf_Id>
1232

> <Probability>
0.89

> <Sum Probability>
69.84

> <Delta G>
1.206

> <G>
76.672

> <E>
44.175

> <-TS>
32.497

> <U+W>
22.714

> <U>
72.035

> <W>
-49.322

> <W(PB)>
-51.621

> <W(SA)>
2.300

> <Valence>
2.479

> <Coulomb>
69.414

> <VdW>
0.142

> <VdW6>
-6.883

> <VdW12>
7.025

> <Bond>
0.193

> <Angle>
0.854

> <Pdih>
1.432

> <Idih>
0.000

> <Tether>
0.000

$$$$
VeraChem MOL file


 26 25  0  0  0  0  0  0  0  0999 V2000     
   20.8182   19.1960   25.8740 N   0  3  0  0  0  0  0  0  0  0  0  0
   21.4327   19.6313   25.1700 H   0  0  0  0  0  0  0  0  0  0  0  0
   21.4549   18.8568   26.6125 H   0  0  0  0  0  0  0  0  0  0  0  0
   20.0749   18.0185   25.2626 C   0  0  0  0  0  0  0  0  0  0  0  0
   19.4312   17.5954   26.0379 H   0  0  0  0  0  0  0  0  0  0  0  0
   20.8203   17.2647   24.9969 H   0  0  0  0  0  0  0  0  0  0  0  0
   19.2290   18.3493   24.0134 C   0  0  0  0  0  0  0  0  0  0  0  0
   18.7225   17.4314   23.6869 H   0  0  0  0  0  0  0  0  0  0  0  0
   18.4367   19.0612   24.2784 H   0  0  0  0  0  0  0  0  0  0  0  0
   20.0765   18.9091   22.8463 C   0  0  0  0  0  0  0  0  0  0  0  0
   20.8849   18.2018   22.6184 H   0  0  0  0  0  0  0  0  0  0  0  0
   20.5503   19.8522   23.1495 H   0  0  0  0  0  0  0  0  0  0  0  0
   19.2187   19.1545   21.5817 C   0  0  0  0  0  0  0  0  0  0  0  0
   18.7859   18.2052   21.2368 H   0  0  0  0  0  0  0  0  0  0  0  0
   18.3713   19.8032   21.8432 H   0  0  0  0  0  0  0  0  0  0  0  0
   20.0034   19.8154   20.4224 C   0  0  0  0  0  0  0  0  0  0  0  0
   20.4172   20.7778   20.7546 H   0  0  0  0  0  0  0  0  0  0  0  0
   19.3016   20.0476   19.6091 H   0  0  0  0  0  0  0  0  0  0  0  0
   21.1379   18.9272   19.8626 C   0  0  0  0  0  0  0  0  0  0  0  0
   21.6000   19.4010   18.9868 H   0  0  0  0  0  0  0  0  0  0  0  0
   20.7547   17.9471   19.5503 H   0  0  0  0  0  0  0  0  0  0  0  0
   21.9289   18.7668   20.6055 H   0  0  0  0  0  0  0  0  0  0  0  0
   19.8494   20.2200   26.4542 C   0  0  0  0  0  0  0  0  0  0  0  0
   19.2234   20.6188   25.6534 H   0  0  0  0  0  0  0  0  0  0  0  0
   19.2245   19.7357   27.2076 H   0  0  0  0  0  0  0  0  0  0  0  0
   20.4192   21.0309   26.9133 H   0  0  0  0  0  0  0  0  0  0  0  0
  1  2  1  0  0  0  0
  1  3  1  0  0  0  0
  1  4  1  0  0  0  0
  4  5  1  0  0  0  0
  4  6  1  0  0  0  0
  4  7  1  0  0  0  0
  7  8  1  0  0  0  0
  7  9  1  0  0  0  0
  7 10  1  0  0  0  0
 10 11  1  0  0  0  0
 10 12  1  0  0  0  0
 10 13  1  0  0  0  0
 13 14  1  0  0  0  0
 13 15  1  0  0  0  0
 13 16  1  0  0  0  0
 16 17  1  0  0  0  0
 16 18  1  0  0  0  0
 16 19  1  0  0  0  0
 19 20  1  0  0  0  0
 19 21  1  0  0  0  0
 19 22  1  0  0  0  0
  1 23  1  0  0  0  0
 23 24  1  0  0  0  0
 23 25  1  0  0  0  0
 23 26  1  0  0  0  0
M  END
> <VM2 Rank>
39

> <Conf_Id>
1036

> <Probability>
0.87

> <Sum Probability>
70.71

> <Delta G>
1.216

> <G>
76.682

> <E>
44.091

> <-TS>
32.591

> <U+W>
22.629

> <U>
72.184

> <W>
-49.554

> <W(PB)>
-51.790

> <W(SA)>
2.236

> <Valence>
2.592

> <Coulomb>
69.072

> <VdW>
0.519

> <VdW6>
-7.380

> <VdW12>
7.899

> <Bond>
0.219

> <Angle>
0.818

> <Pdih>
1.555

> <Idih>
0.000

> <Tether>
0.000

$$$$
VeraChem MOL file


 26 25  0  0  0  0  0  0  0  0999 V2000     
   20.0305   18.7533   26.3059 N   0  3  0  0  0  0  0  0  0  0  0  0
   20.8205   18.0920   26.3628 H   0  0  0  0  0  0  0  0  0  0  0  0
   19.2008   18.2158   26.6016 H   0  0  0  0  0  0  0  0  0  0  0  0
   19.8576   19.2402   24.8813 C   0  0  0  0  0  0  0  0  0  0  0  0
   20.7572   19.7971   24.6091 H   0  0  0  0  0  0  0  0  0  0  0  0
   19.0077   19.9270   24.8624 H   0  0  0  0  0  0  0  0  0  0  0  0
   19.6241   18.0992   23.8723 C   0  0  0  0  0  0  0  0  0  0  0  0
   20.4780   17.4088   23.8904 H   0  0  0  0  0  0  0  0  0  0  0  0
   18.7451   17.5199   24.1847 H   0  0  0  0  0  0  0  0  0  0  0  0
   19.3996   18.6107   22.4294 C   0  0  0  0  0  0  0  0  0  0  0  0
   18.5378   19.2921   22.4124 H   0  0  0  0  0  0  0  0  0  0  0  0
   19.1308   17.7531   21.7992 H   0  0  0  0  0  0  0  0  0  0  0  0
   20.6421   19.3230   21.8363 C   0  0  0  0  0  0  0  0  0  0  0  0
   20.9249   20.1661   22.4803 H   0  0  0  0  0  0  0  0  0  0  0  0
   21.4985   18.6345   21.8348 H   0  0  0  0  0  0  0  0  0  0  0  0
   20.4155   19.8669   20.4046 C   0  0  0  0  0  0  0  0  0  0  0  0
   21.2962   20.4536   20.1078 H   0  0  0  0  0  0  0  0  0  0  0  0
   19.5669   20.5652   20.4020 H   0  0  0  0  0  0  0  0  0  0  0  0
   20.1805   18.7584   19.3531 C   0  0  0  0  0  0  0  0  0  0  0  0
   19.2408   18.2223   19.5338 H   0  0  0  0  0  0  0  0  0  0  0  0
   21.0003   18.0283   19.3585 H   0  0  0  0  0  0  0  0  0  0  0  0
   20.1237   19.1908   18.3457 H   0  0  0  0  0  0  0  0  0  0  0  0
   20.2579   19.9383   27.2342 C   0  0  0  0  0  0  0  0  0  0  0  0
   20.3806   19.5739   28.2567 H   0  0  0  0  0  0  0  0  0  0  0  0
   21.1587   20.4714   26.9221 H   0  0  0  0  0  0  0  0  0  0  0  0
   19.3955   20.6064   27.1818 H   0  0  0  0  0  0  0  0  0  0  0  0
  1  2  1  0  0  0  0
  1  3  1  0  0  0  0
  1  4  1  0  0  0  0
  4  5  1  0  0  0  0
  4  6  1  0  0  0  0
  4  7  1  0  0  0  0
  7  8  1  0  0  0  0
  7  9  1  0  0  0  0
  7 10  1  0  0  0  0
 10 11  1  0  0  0  0
 10 12  1  0  0  0  0
 10 13  1  0  0  0  0
 13 14  1  0  0  0  0
 13 15  1  0  0  0  0
 13 16  1  0  0  0  0
 16 17  1  0  0  0  0
 16 18  1  0  0  0  0
 16 19  1  0  0  0  0
 19 20  1  0  0  0  0
 19 21  1  0  0  0  0
 19 22  1  0  0  0  0
  1 23  1  0  0  0  0
 23 24  1  0  0  0  0
 23 25  1  0  0  0  0
 23 26  1  0  0  0  0
M  END
> <VM2 Rank>
40

> <Conf_Id>
247

> <Probability>
0.87

> <Sum Probability>
71.59

> <Delta G>
1.216

> <G>
76.683

> <E>
44.337

> <-TS>
32.346

> <U+W>
22.875

> <U>
71.810

> <W>
-48.935

> <W(PB)>
-51.227

> <W(SA)>
2.291

> <Valence>
2.568

> <Coulomb>
68.877

> <VdW>
0.364

> <VdW6>
-6.470

> <VdW12>
6.834

> <Bond>
0.191

> <Angle>
0.752

> <Pdih>
1.625

> <Idih>
0.000

> <Tether>
0.000

$$$$
VeraChem MOL file


 26 25  0  0  0  0  0  0  0  0999 V2000     
   19.9246   18.7424   26.3021 N   0  3  0  0  0  0  0  0  0  0  0  0
   20.8231   18.3818   26.6591 H   0  0  0  0  0  0  0  0  0  0  0  0
   19.2827   17.9345   26.3082 H   0  0  0  0  0  0  0  0  0  0  0  0
   20.0948   19.2645   24.8897 C   0  0  0  0  0  0  0  0  0  0  0  0
   20.7873   20.1093   24.9256 H   0  0  0  0  0  0  0  0  0  0  0  0
   19.1224   19.6298   24.5512 H   0  0  0  0  0  0  0  0  0  0  0  0
   20.6246   18.2017   23.9077 C   0  0  0  0  0  0  0  0  0  0  0  0
   21.5786   17.8102   24.2851 H   0  0  0  0  0  0  0  0  0  0  0  0
   19.9290   17.3527   23.8709 H   0  0  0  0  0  0  0  0  0  0  0  0
   20.8413   18.7585   22.4805 C   0  0  0  0  0  0  0  0  0  0  0  0
   21.3216   17.9776   21.8768 H   0  0  0  0  0  0  0  0  0  0  0  0
   21.5464   19.6003   22.5189 H   0  0  0  0  0  0  0  0  0  0  0  0
   19.5250   19.2087   21.7967 C   0  0  0  0  0  0  0  0  0  0  0  0
   18.8280   18.3612   21.7404 H   0  0  0  0  0  0  0  0  0  0  0  0
   19.0331   19.9725   22.4133 H   0  0  0  0  0  0  0  0  0  0  0  0
   19.7365   19.7973   20.3805 C   0  0  0  0  0  0  0  0  0  0  0  0
   20.4244   20.6529   20.4322 H   0  0  0  0  0  0  0  0  0  0  0  0
   18.7783   20.1959   20.0186 H   0  0  0  0  0  0  0  0  0  0  0  0
   20.2637   18.7667   19.3560 C   0  0  0  0  0  0  0  0  0  0  0  0
   19.6103   17.8859   19.3094 H   0  0  0  0  0  0  0  0  0  0  0  0
   21.2775   18.4306   19.6058 H   0  0  0  0  0  0  0  0  0  0  0  0
   20.3021   19.2088   18.3520 H   0  0  0  0  0  0  0  0  0  0  0  0
   19.3975   19.8501   27.2038 C   0  0  0  0  0  0  0  0  0  0  0  0
   18.4317   20.1922   26.8255 H   0  0  0  0  0  0  0  0  0  0  0  0
   19.2797   19.4610   28.2176 H   0  0  0  0  0  0  0  0  0  0  0  0
   20.1085   20.6792   27.2072 H   0  0  0  0  0  0  0  0  0  0  0  0
  1  2  1  0  0  0  0
  1  3  1  0  0  0  0
  1  4  1  0  0  0  0
  4  5  1  0  0  0  0
  4  6  1  0  0  0  0
  4  7  1  0  0  0  0
  7  8  1  0  0  0  0
  7  9  1  0  0  0  0
  7 10  1  0  0  0  0
 10 11  1  0  0  0  0
 10 12  1  0  0  0  0
 10 13  1  0  0  0  0
 13 14  1  0  0  0  0
 13 15  1  0  0  0  0
 13 16  1  0  0  0  0
 16 17  1  0  0  0  0
 16 18  1  0  0  0  0
 16 19  1  0  0  0  0
 19 20  1  0  0  0  0
 19 21  1  0  0  0  0
 19 22  1  0  0  0  0
  1 23  1  0  0  0  0
 23 24  1  0  0  0  0
 23 25  1  0  0  0  0
 23 26  1  0  0  0  0
M  END
> <VM2 Rank>
41

> <Conf_Id>
1093

> <Probability>
0.86

> <Sum Probability>
72.45

> <Delta G>
1.222

> <G>
76.688

> <E>
44.342

> <-TS>
32.346

> <U+W>
22.880

> <U>
71.810

> <W>
-48.930

> <W(PB)>
-51.256

> <W(SA)>
2.326

> <Valence>
2.569

> <Coulomb>
68.877

> <VdW>
0.364

> <VdW6>
-6.470

> <VdW12>
6.834

> <Bond>
0.191

> <Angle>
0.752

> <Pdih>
1.626

> <Idih>
0.000

> <Tether>
0.000

$$$$
VeraChem MOL file


 26 25  0  0  0  0  0  0  0  0999 V2000     
   20.2418   18.7817   26.0449 N   0  3  0  0  0  0  0  0  0  0  0  0
   21.2125   18.8822   25.7124 H   0  0  0  0  0  0  0  0  0  0  0  0
   20.0565   17.7666   26.0546 H   0  0  0  0  0  0  0  0  0  0  0  0
   19.2890   19.4768   25.0914 C   0  0  0  0  0  0  0  0  0  0  0  0
   19.5217   20.5446   25.0999 H   0  0  0  0  0  0  0  0  0  0  0  0
   18.2775   19.3451   25.4839 H   0  0  0  0  0  0  0  0  0  0  0  0
   19.3480   18.9444   23.6458 C   0  0  0  0  0  0  0  0  0  0  0  0
   19.1344   17.8673   23.6431 H   0  0  0  0  0  0  0  0  0  0  0  0
   18.5434   19.4257   23.0764 H   0  0  0  0  0  0  0  0  0  0  0  0
   20.7118   19.2187   22.9629 C   0  0  0  0  0  0  0  0  0  0  0  0
   21.5162   18.7705   23.5607 H   0  0  0  0  0  0  0  0  0  0  0  0
   20.9063   20.3002   22.9458 H   0  0  0  0  0  0  0  0  0  0  0  0
   20.8089   18.6522   21.5246 C   0  0  0  0  0  0  0  0  0  0  0  0
   21.8413   18.7794   21.1704 H   0  0  0  0  0  0  0  0  0  0  0  0
   20.6211   17.5697   21.5414 H   0  0  0  0  0  0  0  0  0  0  0  0
   19.8478   19.3334   20.5213 C   0  0  0  0  0  0  0  0  0  0  0  0
   19.9978   20.4218   20.5439 H   0  0  0  0  0  0  0  0  0  0  0  0
   18.8044   19.1495   20.8095 H   0  0  0  0  0  0  0  0  0  0  0  0
   20.0670   18.8171   19.0831 C   0  0  0  0  0  0  0  0  0  0  0  0
   19.3759   19.3078   18.3855 H   0  0  0  0  0  0  0  0  0  0  0  0
   19.8951   17.7346   19.0219 H   0  0  0  0  0  0  0  0  0  0  0  0
   21.0903   19.0206   18.7415 H   0  0  0  0  0  0  0  0  0  0  0  0
   20.0937   19.3657   27.4430 C   0  0  0  0  0  0  0  0  0  0  0  0
   19.0673   19.2193   27.7864 H   0  0  0  0  0  0  0  0  0  0  0  0
   20.7848   18.8570   28.1188 H   0  0  0  0  0  0  0  0  0  0  0  0
   20.3254   20.4326   27.4129 H   0  0  0  0  0  0  0  0  0  0  0  0
  1  2  1  0  0  0  0
  1  3  1  0  0  0  0
  1  4  1  0  0  0  0
  4  5  1  0  0  0  0
  4  6  1  0  0  0  0
  4  7  1  0  0  0  0
  7  8  1  0  0  0  0
  7  9  1  0  0  0  0
  7 10  1  0  0  0  0
 10 11  1  0  0  0  0
 10 12  1  0  0  0  0
 10 13  1  0  0  0  0
 13 14  1  0  0  0  0
 13 15  1  0  0  0  0
 13 16  1  0  0  0  0
 16 17  1  0  0  0  0
 16 18  1  0  0  0  0
 16 19  1  0  0  0  0
 19 20  1  0  0  0  0
 19 21  1  0  0  0  0
 19 22  1  0  0  0  0
  1 23  1  0  0  0  0
 23 24  1  0  0  0  0
 23 25  1  0  0  0  0
 23 26  1  0  0  0  0
M  END
> <VM2 Rank>
42

> <Conf_Id>
422

> <Probability>
0.82

> <Sum Probability>
73.27

> <Delta G>
1.252

> <G>
76.719

> <E>
44.389

> <-TS>
32.330

> <U+W>
22.927

> <U>
71.903

> <W>
-48.976

> <W(PB)>
-51.298

> <W(SA)>
2.321

> <Valence>
2.409

> <Coulomb>
69.133

> <VdW>
0.360

> <VdW6>
-6.461

> <VdW12>
6.822

> <Bond>
0.187

> <Angle>
0.708

> <Pdih>
1.514

> <Idih>
0.000

> <Tether>
0.000

$$$$
VeraChem MOL file


 26 25  0  0  0  0  0  0  0  0999 V2000     
   19.4573   19.1246   26.0201 N   0  3  0  0  0  0  0  0  0  0  0  0
   19.2760   18.7968   26.9821 H   0  0  0  0  0  0  0  0  0  0  0  0
   18.5630   19.0016   25.5223 H   0  0  0  0  0  0  0  0  0  0  0  0
   20.5335   18.2598   25.3821 C   0  0  0  0  0  0  0  0  0  0  0  0
   20.2412   17.2165   25.5259 H   0  0  0  0  0  0  0  0  0  0  0  0
   21.4624   18.4274   25.9329 H   0  0  0  0  0  0  0  0  0  0  0  0
   20.7729   18.5108   23.8772 C   0  0  0  0  0  0  0  0  0  0  0  0
   21.1307   19.5373   23.7319 H   0  0  0  0  0  0  0  0  0  0  0  0
   21.5822   17.8492   23.5413 H   0  0  0  0  0  0  0  0  0  0  0  0
   19.5083   18.2510   23.0208 C   0  0  0  0  0  0  0  0  0  0  0  0
   18.7195   18.9668   23.2884 H   0  0  0  0  0  0  0  0  0  0  0  0
   19.1152   17.2527   23.2583 H   0  0  0  0  0  0  0  0  0  0  0  0
   19.7692   18.3265   21.4963 C   0  0  0  0  0  0  0  0  0  0  0  0
   20.5434   17.5981   21.2180 H   0  0  0  0  0  0  0  0  0  0  0  0
   18.8546   18.0188   20.9708 H   0  0  0  0  0  0  0  0  0  0  0  0
   20.1793   19.7363   21.0081 C   0  0  0  0  0  0  0  0  0  0  0  0
   21.1338   20.0327   21.4630 H   0  0  0  0  0  0  0  0  0  0  0  0
   19.4304   20.4732   21.3302 H   0  0  0  0  0  0  0  0  0  0  0  0
   20.3199   19.7884   19.4718 C   0  0  0  0  0  0  0  0  0  0  0  0
   21.0843   19.0826   19.1212 H   0  0  0  0  0  0  0  0  0  0  0  0
   20.6138   20.7937   19.1432 H   0  0  0  0  0  0  0  0  0  0  0  0
   19.3714   19.5375   18.9792 H   0  0  0  0  0  0  0  0  0  0  0  0
   19.8676   20.5926   26.0407 C   0  0  0  0  0  0  0  0  0  0  0  0
   19.9945   20.9464   25.0155 H   0  0  0  0  0  0  0  0  0  0  0  0
   19.0875   21.1748   26.5362 H   0  0  0  0  0  0  0  0  0  0  0  0
   20.8075   20.6946   26.5876 H   0  0  0  0  0  0  0  0  0  0  0  0
  1  2  1  0  0  0  0
  1  3  1  0  0  0  0
  1  4  1  0  0  0  0
  4  5  1  0  0  0  0
  4  6  1  0  0  0  0
  4  7  1  0  0  0  0
  7  8  1  0  0  0  0
  7  9  1  0  0  0  0
  7 10  1  0  0  0  0
 10 11  1  0  0  0  0
 10 12  1  0  0  0  0
 10 13  1  0  0  0  0
 13 14  1  0  0  0  0
 13 15  1  0  0  0  0
 13 16  1  0  0  0  0
 16 17  1  0  0  0  0
 16 18  1  0  0  0  0
 16 19  1  0  0  0  0
 19 20  1  0  0  0  0
 19 21  1  0  0  0  0
 19 22  1  0  0  0  0
  1 23  1  0  0  0  0
 23 24  1  0  0  0  0
 23 25  1  0  0  0  0
 23 26  1  0  0  0  0
M  END
> <VM2 Rank>
43

> <Conf_Id>
205

> <Probability>
0.81

> <Sum Probability>
74.08

> <Delta G>
1.263

> <G>
76.730

> <E>
44.139

> <-TS>
32.591

> <U+W>
22.677

> <U>
72.280

> <W>
-49.603

> <W(PB)>
-51.851

> <W(SA)>
2.248

> <Valence>
2.616

> <Coulomb>
69.198

> <VdW>
0.465

> <VdW6>
-7.468

> <VdW12>
7.934

> <Bond>
0.224

> <Angle>
0.811

> <Pdih>
1.582

> <Idih>
0.000

> <Tether>
0.000

$$$$
VeraChem MOL file


 26 25  0  0  0  0  0  0  0  0999 V2000     
   19.0960   19.0194   25.8131 N   0  3  0  0  0  0  0  0  0  0  0  0
   18.4912   18.5529   26.5076 H   0  0  0  0  0  0  0  0  0  0  0  0
   18.4568   19.3263   25.0647 H   0  0  0  0  0  0  0  0  0  0  0  0
   20.1034   18.0214   25.2636 C   0  0  0  0  0  0  0  0  0  0  0  0
   19.5466   17.1341   24.9517 H   0  0  0  0  0  0  0  0  0  0  0  0
   20.7636   17.7320   26.0850 H   0  0  0  0  0  0  0  0  0  0  0  0
   20.9500   18.5258   24.0743 C   0  0  0  0  0  0  0  0  0  0  0  0
   21.5610   19.3816   24.3890 H   0  0  0  0  0  0  0  0  0  0  0  0
   21.6537   17.7320   23.7906 H   0  0  0  0  0  0  0  0  0  0  0  0
   20.0904   18.9105   22.8468 C   0  0  0  0  0  0  0  0  0  0  0  0
   19.4151   19.7358   23.1093 H   0  0  0  0  0  0  0  0  0  0  0  0
   19.4603   18.0557   22.5679 H   0  0  0  0  0  0  0  0  0  0  0  0
   20.9670   19.3340   21.6436 C   0  0  0  0  0  0  0  0  0  0  0  0
   21.6448   20.1392   21.9593 H   0  0  0  0  0  0  0  0  0  0  0  0
   21.6065   18.4948   21.3368 H   0  0  0  0  0  0  0  0  0  0  0  0
   20.1478   19.8303   20.4275 C   0  0  0  0  0  0  0  0  0  0  0  0
   20.8431   20.2060   19.6638 H   0  0  0  0  0  0  0  0  0  0  0  0
   19.5250   20.6862   20.7229 H   0  0  0  0  0  0  0  0  0  0  0  0
   19.2593   18.7343   19.7958 C   0  0  0  0  0  0  0  0  0  0  0  0
   18.7731   19.1109   18.8866 H   0  0  0  0  0  0  0  0  0  0  0  0
   18.4673   18.4112   20.4827 H   0  0  0  0  0  0  0  0  0  0  0  0
   19.8544   17.8547   19.5181 H   0  0  0  0  0  0  0  0  0  0  0  0
   19.7941   20.2142   26.4524 C   0  0  0  0  0  0  0  0  0  0  0  0
   20.3808   20.7374   25.6946 H   0  0  0  0  0  0  0  0  0  0  0  0
   19.0411   20.8895   26.8648 H   0  0  0  0  0  0  0  0  0  0  0  0
   20.4499   19.8612   27.2512 H   0  0  0  0  0  0  0  0  0  0  0  0
  1  2  1  0  0  0  0
  1  3  1  0  0  0  0
  1  4  1  0  0  0  0
  4  5  1  0  0  0  0
  4  6  1  0  0  0  0
  4  7  1  0  0  0  0
  7  8  1  0  0  0  0
  7  9  1  0  0  0  0
  7 10  1  0  0  0  0
 10 11  1  0  0  0  0
 10 12  1  0  0  0  0
 10 13  1  0  0  0  0
 13 14  1  0  0  0  0
 13 15  1  0  0  0  0
 13 16  1  0  0  0  0
 16 17  1  0  0  0  0
 16 18  1  0  0  0  0
 16 19  1  0  0  0  0
 19 20  1  0  0  0  0
 19 21  1  0  0  0  0
 19 22  1  0  0  0  0
  1 23  1  0  0  0  0
 23 24  1  0  0  0  0
 23 25  1  0  0  0  0
 23 26  1  0  0  0  0
M  END
> <VM2 Rank>
44

> <Conf_Id>
242

> <Probability>
0.79

> <Sum Probability>
74.87

> <Delta G>
1.271

> <G>
76.738

> <E>
44.147

> <-TS>
32.591

> <U+W>
22.685

> <U>
72.184

> <W>
-49.499

> <W(PB)>
-51.757

> <W(SA)>
2.258

> <Valence>
2.592

> <Coulomb>
69.072

> <VdW>
0.519

> <VdW6>
-7.380

> <VdW12>
7.899

> <Bond>
0.219

> <Angle>
0.818

> <Pdih>
1.555

> <Idih>
0.000

> <Tether>
0.000

$$$$
VeraChem MOL file


 26 25  0  0  0  0  0  0  0  0999 V2000     
   19.3186   19.6973   25.7466 N   0  3  0  0  0  0  0  0  0  0  0  0
   18.7496   20.0397   24.9581 H   0  0  0  0  0  0  0  0  0  0  0  0
   19.1556   20.3745   26.5086 H   0  0  0  0  0  0  0  0  0  0  0  0
   20.7918   19.7014   25.3689 C   0  0  0  0  0  0  0  0  0  0  0  0
   21.3541   19.3270   26.2281 H   0  0  0  0  0  0  0  0  0  0  0  0
   21.0834   20.7419   25.2044 H   0  0  0  0  0  0  0  0  0  0  0  0
   21.1546   18.8749   24.1155 C   0  0  0  0  0  0  0  0  0  0  0  0
   22.2411   18.9327   23.9677 H   0  0  0  0  0  0  0  0  0  0  0  0
   20.9227   17.8159   24.2877 H   0  0  0  0  0  0  0  0  0  0  0  0
   20.4358   19.3733   22.8392 C   0  0  0  0  0  0  0  0  0  0  0  0
   20.6520   20.4402   22.6899 H   0  0  0  0  0  0  0  0  0  0  0  0
   19.3507   19.2808   22.9724 H   0  0  0  0  0  0  0  0  0  0  0  0
   20.8741   18.5767   21.5866 C   0  0  0  0  0  0  0  0  0  0  0  0
   21.9685   18.6204   21.4977 H   0  0  0  0  0  0  0  0  0  0  0  0
   20.6169   17.5160   21.7131 H   0  0  0  0  0  0  0  0  0  0  0  0
   20.2537   19.1052   20.2705 C   0  0  0  0  0  0  0  0  0  0  0  0
   20.6972   18.5576   19.4272 H   0  0  0  0  0  0  0  0  0  0  0  0
   20.5261   20.1604   20.1283 H   0  0  0  0  0  0  0  0  0  0  0  0
   18.7166   18.9523   20.2097 C   0  0  0  0  0  0  0  0  0  0  0  0
   18.4161   17.9104   20.3803 H   0  0  0  0  0  0  0  0  0  0  0  0
   18.3396   19.2526   19.2235 H   0  0  0  0  0  0  0  0  0  0  0  0
   18.2183   19.5813   20.9576 H   0  0  0  0  0  0  0  0  0  0  0  0
   18.8629   18.3088   26.1802 C   0  0  0  0  0  0  0  0  0  0  0  0
   19.4705   17.9798   27.0259 H   0  0  0  0  0  0  0  0  0  0  0  0
   17.8124   18.3536   26.4760 H   0  0  0  0  0  0  0  0  0  0  0  0
   18.9801   17.6137   25.3464 H   0  0  0  0  0  0  0  0  0  0  0  0
  1  2  1  0  0  0  0
  1  3  1  0  0  0  0
  1  4  1  0  0  0  0
  4  5  1  0  0  0  0
  4  6  1  0  0  0  0
  4  7  1  0  0  0  0
  7  8  1  0  0  0  0
  7  9  1  0  0  0  0
  7 10  1  0  0  0  0
 10 11  1  0  0  0  0
 10 12  1  0  0  0  0
 10 13  1  0  0  0  0
 13 14  1  0  0  0  0
 13 15  1  0  0  0  0
 13 16  1  0  0  0  0
 16 17  1  0  0  0  0
 16 18  1  0  0  0  0
 16 19  1  0  0  0  0
 19 20  1  0  0  0  0
 19 21  1  0  0  0  0
 19 22  1  0  0  0  0
  1 23  1  0  0  0  0
 23 24  1  0  0  0  0
 23 25  1  0  0  0  0
 23 26  1  0  0  0  0
M  END
> <VM2 Rank>
45

> <Conf_Id>
850

> <Probability>
0.78

> <Sum Probability>
75.66

> <Delta G>
1.280

> <G>
76.747

> <E>
44.160

> <-TS>
32.586

> <U+W>
22.699

> <U>
72.301

> <W>
-49.602

> <W(PB)>
-51.868

> <W(SA)>
2.265

> <Valence>
2.588

> <Coulomb>
69.202

> <VdW>
0.511

> <VdW6>
-7.409

> <VdW12>
7.920

> <Bond>
0.221

> <Angle>
0.820

> <Pdih>
1.547

> <Idih>
0.000

> <Tether>
0.000

$$$$
VeraChem MOL file


 26 25  0  0  0  0  0  0  0  0999 V2000     
   20.4294   19.2248   26.0544 N   0  3  0  0  0  0  0  0  0  0  0  0
   21.3627   19.2901   25.6214 H   0  0  0  0  0  0  0  0  0  0  0  0
   20.6060   18.9338   27.0291 H   0  0  0  0  0  0  0  0  0  0  0  0
   19.5993   18.1636   25.3490 C   0  0  0  0  0  0  0  0  0  0  0  0
   18.6195   18.1345   25.8323 H   0  0  0  0  0  0  0  0  0  0  0  0
   20.0871   17.2007   25.5204 H   0  0  0  0  0  0  0  0  0  0  0  0
   19.4196   18.3714   23.8293 C   0  0  0  0  0  0  0  0  0  0  0  0
   18.7873   17.5614   23.4424 H   0  0  0  0  0  0  0  0  0  0  0  0
   18.8714   19.3046   23.6520 H   0  0  0  0  0  0  0  0  0  0  0  0
   20.7673   18.3806   23.0654 C   0  0  0  0  0  0  0  0  0  0  0  0
   21.3377   17.4814   23.3369 H   0  0  0  0  0  0  0  0  0  0  0  0
   21.3733   19.2400   23.3823 H   0  0  0  0  0  0  0  0  0  0  0  0
   20.6037   18.4124   21.5258 C   0  0  0  0  0  0  0  0  0  0  0  0
   21.5963   18.3012   21.0678 H   0  0  0  0  0  0  0  0  0  0  0  0
   20.0154   17.5437   21.1993 H   0  0  0  0  0  0  0  0  0  0  0  0
   19.9504   19.7127   21.0001 C   0  0  0  0  0  0  0  0  0  0  0  0
   20.5093   20.5843   21.3685 H   0  0  0  0  0  0  0  0  0  0  0  0
   18.9262   19.8053   21.3849 H   0  0  0  0  0  0  0  0  0  0  0  0
   19.9100   19.7462   19.4573 C   0  0  0  0  0  0  0  0  0  0  0  0
   20.9218   19.6972   19.0341 H   0  0  0  0  0  0  0  0  0  0  0  0
   19.4413   20.6730   19.1017 H   0  0  0  0  0  0  0  0  0  0  0  0
   19.3318   18.9022   19.0592 H   0  0  0  0  0  0  0  0  0  0  0  0
   19.7283   20.5783   26.0358 C   0  0  0  0  0  0  0  0  0  0  0  0
   20.3369   21.3035   26.5805 H   0  0  0  0  0  0  0  0  0  0  0  0
   19.6041   20.9062   25.0017 H   0  0  0  0  0  0  0  0  0  0  0  0
   18.7514   20.4828   26.5148 H   0  0  0  0  0  0  0  0  0  0  0  0
  1  2  1  0  0  0  0
  1  3  1  0  0  0  0
  1  4  1  0  0  0  0
  4  5  1  0  0  0  0
  4  6  1  0  0  0  0
  4  7  1  0  0  0  0
  7  8  1  0  0  0  0
  7  9  1  0  0  0  0
  7 10  1  0  0  0  0
 10 11  1  0  0  0  0
 10 12  1  0  0  0  0
 10 13  1  0  0  0  0
 13 14  1  0  0  0  0
 13 15  1  0  0  0  0
 13 16  1  0  0  0  0
 16 17  1  0  0  0  0
 16 18  1  0  0  0  0
 16 19  1  0  0  0  0
 19 20  1  0  0  0  0
 19 21  1  0  0  0  0
 19 22  1  0  0  0  0
  1 23  1  0  0  0  0
 23 24  1  0  0  0  0
 23 25  1  0  0  0  0
 23 26  1  0  0  0  0
M  END
> <VM2 Rank>
46

> <Conf_Id>
779

> <Probability>
0.77

> <Sum Probability>
76.42

> <Delta G>
1.292

> <G>
76.759

> <E>
44.168

> <-TS>
32.591

> <U+W>
22.706

> <U>
72.280

> <W>
-49.573

> <W(PB)>
-51.820

> <W(SA)>
2.246

> <Valence>
2.616

> <Coulomb>
69.198

> <VdW>
0.465

> <VdW6>
-7.468

> <VdW12>
7.934

> <Bond>
0.224

> <Angle>
0.811

> <Pdih>
1.582

> <Idih>
0.000

> <Tether>
0.000

$$$$
VeraChem MOL file


 26 25  0  0  0  0  0  0  0  0999 V2000     
   19.7801   18.4758   26.0479 N   0  3  0  0  0  0  0  0  0  0  0  0
   20.6695   17.9777   26.2083 H   0  0  0  0  0  0  0  0  0  0  0  0
   19.1073   17.7496   25.7568 H   0  0  0  0  0  0  0  0  0  0  0  0
   19.9481   19.5046   24.9478 C   0  0  0  0  0  0  0  0  0  0  0  0
   20.6719   20.2478   25.2916 H   0  0  0  0  0  0  0  0  0  0  0  0
   18.9856   20.0020   24.8041 H   0  0  0  0  0  0  0  0  0  0  0  0
   20.4217   18.8984   23.6144 C   0  0  0  0  0  0  0  0  0  0  0  0
   21.3810   18.3861   23.7662 H   0  0  0  0  0  0  0  0  0  0  0  0
   19.6972   18.1414   23.2886 H   0  0  0  0  0  0  0  0  0  0  0  0
   20.5788   19.9860   22.5258 C   0  0  0  0  0  0  0  0  0  0  0  0
   21.2464   20.7735   22.9023 H   0  0  0  0  0  0  0  0  0  0  0  0
   19.6113   20.4729   22.3447 H   0  0  0  0  0  0  0  0  0  0  0  0
   21.1601   19.4500   21.1917 C   0  0  0  0  0  0  0  0  0  0  0  0
   21.2752   20.2913   20.4944 H   0  0  0  0  0  0  0  0  0  0  0  0
   22.1748   19.0688   21.3715 H   0  0  0  0  0  0  0  0  0  0  0  0
   20.3249   18.3402   20.5031 C   0  0  0  0  0  0  0  0  0  0  0  0
   20.2990   17.4393   21.1308 H   0  0  0  0  0  0  0  0  0  0  0  0
   20.8346   18.0441   19.5756 H   0  0  0  0  0  0  0  0  0  0  0  0
   18.8831   18.7787   20.1598 C   0  0  0  0  0  0  0  0  0  0  0  0
   18.3669   17.9932   19.5929 H   0  0  0  0  0  0  0  0  0  0  0  0
   18.8829   19.6898   19.5475 H   0  0  0  0  0  0  0  0  0  0  0  0
   18.2949   18.9726   21.0654 H   0  0  0  0  0  0  0  0  0  0  0  0
   19.3112   19.1564   27.3265 C   0  0  0  0  0  0  0  0  0  0  0  0
   18.3536   19.6480   27.1413 H   0  0  0  0  0  0  0  0  0  0  0  0
   19.1944   18.4047   28.1104 H   0  0  0  0  0  0  0  0  0  0  0  0
   20.0541   19.8962   27.6327 H   0  0  0  0  0  0  0  0  0  0  0  0
  1  2  1  0  0  0  0
  1  3  1  0  0  0  0
  1  4  1  0  0  0  0
  4  5  1  0  0  0  0
  4  6  1  0  0  0  0
  4  7  1  0  0  0  0
  7  8  1  0  0  0  0
  7  9  1  0  0  0  0
  7 10  1  0  0  0  0
 10 11  1  0  0  0  0
 10 12  1  0  0  0  0
 10 13  1  0  0  0  0
 13 14  1  0  0  0  0
 13 15  1  0  0  0  0
 13 16  1  0  0  0  0
 16 17  1  0  0  0  0
 16 18  1  0  0  0  0
 16 19  1  0  0  0  0
 19 20  1  0  0  0  0
 19 21  1  0  0  0  0
 19 22  1  0  0  0  0
  1 23  1  0  0  0  0
 23 24  1  0  0  0  0
 23 25  1  0  0  0  0
 23 26  1  0  0  0  0
M  END
> <VM2 Rank>
47

> <Conf_Id>
868

> <Probability>
0.74

> <Sum Probability>
77.17

> <Delta G>
1.310

> <G>
76.777

> <E>
44.188

> <-TS>
32.588

> <U+W>
22.726

> <U>
71.870

> <W>
-49.144

> <W(PB)>
-51.404

> <W(SA)>
2.260

> <Valence>
2.682

> <Coulomb>
68.933

> <VdW>
0.255

> <VdW6>
-6.833

> <VdW12>
7.088

> <Bond>
0.205

> <Angle>
1.003

> <Pdih>
1.473

> <Idih>
0.000

> <Tether>
0.000

$$$$
VeraChem MOL file


 26 25  0  0  0  0  0  0  0  0999 V2000     
   19.4264   19.0852   26.1425 N   0  3  0  0  0  0  0  0  0  0  0  0
   18.7702   18.4093   25.7240 H   0  0  0  0  0  0  0  0  0  0  0  0
   18.9198   19.4868   26.9474 H   0  0  0  0  0  0  0  0  0  0  0  0
   19.7509   20.1864   25.1449 C   0  0  0  0  0  0  0  0  0  0  0  0
   20.4529   20.8713   25.6273 H   0  0  0  0  0  0  0  0  0  0  0  0
   18.8256   20.7353   24.9521 H   0  0  0  0  0  0  0  0  0  0  0  0
   20.3400   19.7086   23.7993 C   0  0  0  0  0  0  0  0  0  0  0  0
   20.5716   20.5980   23.2006 H   0  0  0  0  0  0  0  0  0  0  0  0
   21.2942   19.1945   23.9723 H   0  0  0  0  0  0  0  0  0  0  0  0
   19.3736   18.7848   23.0160 C   0  0  0  0  0  0  0  0  0  0  0  0
   18.4298   19.3136   22.8232 H   0  0  0  0  0  0  0  0  0  0  0  0
   19.1197   17.9153   23.6366 H   0  0  0  0  0  0  0  0  0  0  0  0
   19.9599   18.2659   21.6797 C   0  0  0  0  0  0  0  0  0  0  0  0
   20.9005   17.7316   21.8728 H   0  0  0  0  0  0  0  0  0  0  0  0
   19.2658   17.5242   21.2608 H   0  0  0  0  0  0  0  0  0  0  0  0
   20.1971   19.3783   20.6306 C   0  0  0  0  0  0  0  0  0  0  0  0
   20.9513   20.0889   20.9935 H   0  0  0  0  0  0  0  0  0  0  0  0
   19.2698   19.9479   20.4773 H   0  0  0  0  0  0  0  0  0  0  0  0
   20.6683   18.7963   19.2806 C   0  0  0  0  0  0  0  0  0  0  0  0
   20.8346   19.5982   18.5496 H   0  0  0  0  0  0  0  0  0  0  0  0
   19.9198   18.1104   18.8628 H   0  0  0  0  0  0  0  0  0  0  0  0
   21.6106   18.2450   19.3959 H   0  0  0  0  0  0  0  0  0  0  0  0
   20.6919   18.3845   26.6234 C   0  0  0  0  0  0  0  0  0  0  0  0
   20.4220   17.6271   27.3627 H   0  0  0  0  0  0  0  0  0  0  0  0
   21.1861   17.9086   25.7740 H   0  0  0  0  0  0  0  0  0  0  0  0
   21.3594   19.1207   27.0765 H   0  0  0  0  0  0  0  0  0  0  0  0
  1  2  1  0  0  0  0
  1  3  1  0  0  0  0
  1  4  1  0  0  0  0
  4  5  1  0  0  0  0
  4  6  1  0  0  0  0
  4  7  1  0  0  0  0
  7  8  1  0  0  0  0
  7  9  1  0  0  0  0
  7 10  1  0  0  0  0
 10 11  1  0  0  0  0
 10 12  1  0  0  0  0
 10 13  1  0  0  0  0
 13 14  1  0  0  0  0
 13 15  1  0  0  0  0
 13 16  1  0  0  0  0
 16 17  1  0  0  0  0
 16 18  1  0  0  0  0
 16 19  1  0  0  0  0
 19 20  1  0  0  0  0
 19 21  1  0  0  0  0
 19 22  1  0  0  0  0
  1 23  1  0  0  0  0
 23 24  1  0  0  0  0
 23 25  1  0  0  0  0
 23 26  1  0  0  0  0
M  END
> <VM2 Rank>
48

> <Conf_Id>
1021

> <Probability>
0.72

> <Sum Probability>
77.89

> <Delta G>
1.330

> <G>
76.797

> <E>
44.248

> <-TS>
32.549

> <U+W>
22.786

> <U>
72.239

> <W>
-49.453

> <W(PB)>
-51.696

> <W(SA)>
2.243

> <Valence>
2.658

> <Coulomb>
69.025

> <VdW>
0.556

> <VdW6>
-7.358

> <VdW12>
7.913

> <Bond>
0.230

> <Angle>
0.883

> <Pdih>
1.546

> <Idih>
0.000

> <Tether>
0.000

$$$$
VeraChem MOL file


 26 25  0  0  0  0  0  0  0  0999 V2000     
   20.2429   18.5229   26.0643 N   0  3  0  0  0  0  0  0  0  0  0  0
   21.0669   17.9492   25.8262 H   0  0  0  0  0  0  0  0  0  0  0  0
   19.4630   17.8547   26.1654 H   0  0  0  0  0  0  0  0  0  0  0  0
   19.9487   19.5046   24.9479 C   0  0  0  0  0  0  0  0  0  0  0  0
   20.7989   20.1868   24.8685 H   0  0  0  0  0  0  0  0  0  0  0  0
   19.0677   20.0843   25.2348 H   0  0  0  0  0  0  0  0  0  0  0  0
   19.7015   18.8251   23.5888 C   0  0  0  0  0  0  0  0  0  0  0  0
   20.5846   18.2319   23.3201 H   0  0  0  0  0  0  0  0  0  0  0  0
   18.8568   18.1290   23.6767 H   0  0  0  0  0  0  0  0  0  0  0  0
   19.4052   19.8665   22.4842 C   0  0  0  0  0  0  0  0  0  0  0  0
   20.2652   20.5396   22.3679 H   0  0  0  0  0  0  0  0  0  0  0  0
   18.5680   20.5008   22.8074 H   0  0  0  0  0  0  0  0  0  0  0  0
   19.0386   19.2340   21.1165 C   0  0  0  0  0  0  0  0  0  0  0  0
   18.1113   18.6552   21.2275 H   0  0  0  0  0  0  0  0  0  0  0  0
   18.8057   20.0399   20.4069 H   0  0  0  0  0  0  0  0  0  0  0  0
   20.1263   18.3199   20.4961 C   0  0  0  0  0  0  0  0  0  0  0  0
   19.7528   17.9340   19.5373 H   0  0  0  0  0  0  0  0  0  0  0  0
   20.2889   17.4383   21.1304 H   0  0  0  0  0  0  0  0  0  0  0  0
   21.4707   19.0421   20.2515 C   0  0  0  0  0  0  0  0  0  0  0  0
   22.1729   18.3806   19.7278 H   0  0  0  0  0  0  0  0  0  0  0  0
   21.9429   19.3439   21.1947 H   0  0  0  0  0  0  0  0  0  0  0  0
   21.3304   19.9389   19.6342 H   0  0  0  0  0  0  0  0  0  0  0  0
   20.4742   19.2748   27.3677 C   0  0  0  0  0  0  0  0  0  0  0  0
   19.5780   19.8476   27.6158 H   0  0  0  0  0  0  0  0  0  0  0  0
   20.6848   18.5564   28.1632 H   0  0  0  0  0  0  0  0  0  0  0  0
   21.3237   19.9505   27.2466 H   0  0  0  0  0  0  0  0  0  0  0  0
  1  2  1  0  0  0  0
  1  3  1  0  0  0  0
  1  4  1  0  0  0  0
  4  5  1  0  0  0  0
  4  6  1  0  0  0  0
  4  7  1  0  0  0  0
  7  8  1  0  0  0  0
  7  9  1  0  0  0  0
  7 10  1  0  0  0  0
 10 11  1  0  0  0  0
 10 12  1  0  0  0  0
 10 13  1  0  0  0  0
 13 14  1  0  0  0  0
 13 15  1  0  0  0  0
 13 16  1  0  0  0  0
 16 17  1  0  0  0  0
 16 18  1  0  0  0  0
 16 19  1  0  0  0  0
 19 20  1  0  0  0  0
 19 21  1  0  0  0  0
 19 22  1  0  0  0  0
  1 23  1  0  0  0  0
 23 24  1  0  0  0  0
 23 25  1  0  0  0  0
 23 26  1  0  0  0  0
M  END
> <VM2 Rank>
49

> <Conf_Id>
1129

> <Probability>
0.71

> <Sum Probability>
78.60

> <Delta G>
1.335

> <G>
76.802

> <E>
44.214

> <-TS>
32.588

> <U+W>
22.752

> <U>
71.870

> <W>
-49.118

> <W(PB)>
-51.408

> <W(SA)>
2.290

> <Valence>
2.682

> <Coulomb>
68.933

> <VdW>
0.255

> <VdW6>
-6.833

> <VdW12>
7.088

> <Bond>
0.205

> <Angle>
1.003

> <Pdih>
1.473

> <Idih>
0.000

> <Tether>
0.000

$$$$
VeraChem MOL file


 26 25  0  0  0  0  0  0  0  0999 V2000     
   20.3480   18.8961   26.0771 N   0  3  0  0  0  0  0  0  0  0  0  0
   21.0124   18.2774   26.5687 H   0  0  0  0  0  0  0  0  0  0  0  0
   19.4927   18.8799   26.6537 H   0  0  0  0  0  0  0  0  0  0  0  0
   20.0604   18.3371   24.6941 C   0  0  0  0  0  0  0  0  0  0  0  0
   19.8242   17.2766   24.8134 H   0  0  0  0  0  0  0  0  0  0  0  0
   20.9769   18.4169   24.1046 H   0  0  0  0  0  0  0  0  0  0  0  0
   18.8969   19.0293   23.9531 C   0  0  0  0  0  0  0  0  0  0  0  0
   17.9967   18.9862   24.5802 H   0  0  0  0  0  0  0  0  0  0  0  0
   19.1206   20.0937   23.8115 H   0  0  0  0  0  0  0  0  0  0  0  0
   18.5857   18.3725   22.5852 C   0  0  0  0  0  0  0  0  0  0  0  0
   17.7530   18.9111   22.1122 H   0  0  0  0  0  0  0  0  0  0  0  0
   18.2244   17.3488   22.7559 H   0  0  0  0  0  0  0  0  0  0  0  0
   19.7822   18.3197   21.5997 C   0  0  0  0  0  0  0  0  0  0  0  0
   20.5810   17.6888   22.0121 H   0  0  0  0  0  0  0  0  0  0  0  0
   19.4497   17.8215   20.6785 H   0  0  0  0  0  0  0  0  0  0  0  0
   20.3517   19.7127   21.2405 C   0  0  0  0  0  0  0  0  0  0  0  0
   20.7604   20.1977   22.1371 H   0  0  0  0  0  0  0  0  0  0  0  0
   19.5445   20.3588   20.8681 H   0  0  0  0  0  0  0  0  0  0  0  0
   21.4633   19.6158   20.1740 C   0  0  0  0  0  0  0  0  0  0  0  0
   21.8576   20.6117   19.9334 H   0  0  0  0  0  0  0  0  0  0  0  0
   21.0825   19.1715   19.2452 H   0  0  0  0  0  0  0  0  0  0  0  0
   22.2993   18.9997   20.5300 H   0  0  0  0  0  0  0  0  0  0  0  0
   20.9199   20.3068   25.9933 C   0  0  0  0  0  0  0  0  0  0  0  0
   21.1485   20.6599   27.0013 H   0  0  0  0  0  0  0  0  0  0  0  0
   21.8323   20.2889   25.3932 H   0  0  0  0  0  0  0  0  0  0  0  0
   20.1847   20.9685   25.5310 H   0  0  0  0  0  0  0  0  0  0  0  0
  1  2  1  0  0  0  0
  1  3  1  0  0  0  0
  1  4  1  0  0  0  0
  4  5  1  0  0  0  0
  4  6  1  0  0  0  0
  4  7  1  0  0  0  0
  7  8  1  0  0  0  0
  7  9  1  0  0  0  0
  7 10  1  0  0  0  0
 10 11  1  0  0  0  0
 10 12  1  0  0  0  0
 10 13  1  0  0  0  0
 13 14  1  0  0  0  0
 13 15  1  0  0  0  0
 13 16  1  0  0  0  0
 16 17  1  0  0  0  0
 16 18  1  0  0  0  0
 16 19  1  0  0  0  0
 19 20  1  0  0  0  0
 19 21  1  0  0  0  0
 19 22  1  0  0  0  0
  1 23  1  0  0  0  0
 23 24  1  0  0  0  0
 23 25  1  0  0  0  0
 23 26  1  0  0  0  0
M  END
> <VM2 Rank>
50

> <Conf_Id>
1007

> <Probability>
0.71

> <Sum Probability>
79.31

> <Delta G>
1.343

> <G>
76.809

> <E>
44.140

> <-TS>
32.670

> <U+W>
22.678

> <U>
72.352

> <W>
-49.674

> <W(PB)>
-51.909

> <W(SA)>
2.235

> <Valence>
2.742

> <Coulomb>
69.271

> <VdW>
0.339

> <VdW6>
-7.703

> <VdW12>
8.042

> <Bond>
0.229

> <Angle>
0.954

> <Pdih>
1.560

> <Idih>
0.000

> <Tether>
0.000

$$$$
VeraChem MOL file


 26 25  0  0  0  0  0  0  0  0999 V2000     
   20.4592   19.1898   26.1791 N   0  3  0  0  0  0  0  0  0  0  0  0
   20.8173   19.6790   27.0147 H   0  0  0  0  0  0  0  0  0  0  0  0
   21.2652   18.6621   25.8124 H   0  0  0  0  0  0  0  0  0  0  0  0
   19.9914   20.2109   25.1534 C   0  0  0  0  0  0  0  0  0  0  0  0
   20.7991   20.9353   25.0221 H   0  0  0  0  0  0  0  0  0  0  0  0
   19.1344   20.7377   25.5806 H   0  0  0  0  0  0  0  0  0  0  0  0
   19.6056   19.6344   23.7733 C   0  0  0  0  0  0  0  0  0  0  0  0
   18.7640   18.9384   23.8826 H   0  0  0  0  0  0  0  0  0  0  0  0
   19.2432   20.4636   23.1536 H   0  0  0  0  0  0  0  0  0  0  0  0
   20.7900   18.9283   23.0663 C   0  0  0  0  0  0  0  0  0  0  0  0
   21.1687   18.1228   23.7093 H   0  0  0  0  0  0  0  0  0  0  0  0
   21.6199   19.6366   22.9363 H   0  0  0  0  0  0  0  0  0  0  0  0
   20.4145   18.3119   21.6959 C   0  0  0  0  0  0  0  0  0  0  0  0
   21.2707   17.7271   21.3320 H   0  0  0  0  0  0  0  0  0  0  0  0
   19.5887   17.5989   21.8263 H   0  0  0  0  0  0  0  0  0  0  0  0
   20.0337   19.3617   20.6248 C   0  0  0  0  0  0  0  0  0  0  0  0
   20.8366   20.1065   20.5328 H   0  0  0  0  0  0  0  0  0  0  0  0
   19.1290   19.9044   20.9288 H   0  0  0  0  0  0  0  0  0  0  0  0
   19.7844   18.7067   19.2493 C   0  0  0  0  0  0  0  0  0  0  0  0
   19.5127   19.4642   18.5027 H   0  0  0  0  0  0  0  0  0  0  0  0
   18.9658   17.9772   19.3022 H   0  0  0  0  0  0  0  0  0  0  0  0
   20.6824   18.1874   18.8900 H   0  0  0  0  0  0  0  0  0  0  0  0
   19.3292   18.2463   26.5750 C   0  0  0  0  0  0  0  0  0  0  0  0
   19.0011   17.6873   25.6964 H   0  0  0  0  0  0  0  0  0  0  0  0
   19.6929   17.5530   27.3367 H   0  0  0  0  0  0  0  0  0  0  0  0
   18.4977   18.8306   26.9750 H   0  0  0  0  0  0  0  0  0  0  0  0
  1  2  1  0  0  0  0
  1  3  1  0  0  0  0
  1  4  1  0  0  0  0
  4  5  1  0  0  0  0
  4  6  1  0  0  0  0
  4  7  1  0  0  0  0
  7  8  1  0  0  0  0
  7  9  1  0  0  0  0
  7 10  1  0  0  0  0
 10 11  1  0  0  0  0
 10 12  1  0  0  0  0
 10 13  1  0  0  0  0
 13 14  1  0  0  0  0
 13 15  1  0  0  0  0
 13 16  1  0  0  0  0
 16 17  1  0  0  0  0
 16 18  1  0  0  0  0
 16 19  1  0  0  0  0
 19 20  1  0  0  0  0
 19 21  1  0  0  0  0
 19 22  1  0  0  0  0
  1 23  1  0  0  0  0
 23 24  1  0  0  0  0
 23 25  1  0  0  0  0
 23 26  1  0  0  0  0
M  END
> <VM2 Rank>
51

> <Conf_Id>
1038

> <Probability>
0.70

> <Sum Probability>
80.01

> <Delta G>
1.348

> <G>
76.814

> <E>
44.265

> <-TS>
32.549

> <U+W>
22.804

> <U>
72.239

> <W>
-49.435

> <W(PB)>
-51.689

> <W(SA)>
2.253

> <Valence>
2.658

> <Coulomb>
69.025

> <VdW>
0.556

> <VdW6>
-7.358

> <VdW12>
7.914

> <Bond>
0.229

> <Angle>
0.883

> <Pdih>
1.546

> <Idih>
0.000

> <Tether>
0.000

$$$$
VeraChem MOL file


 26 25  0  0  0  0  0  0  0  0999 V2000     
   19.6018   18.8195   26.0506 N   0  3  0  0  0  0  0  0  0  0  0  0
   20.4001   18.9732   26.6858 H   0  0  0  0  0  0  0  0  0  0  0  0
   19.0442   18.0752   26.4989 H   0  0  0  0  0  0  0  0  0  0  0  0
   20.0932   18.3404   24.6952 C   0  0  0  0  0  0  0  0  0  0  0  0
   19.2232   18.2367   24.0423 H   0  0  0  0  0  0  0  0  0  0  0  0
   20.5308   17.3492   24.8384 H   0  0  0  0  0  0  0  0  0  0  0  0
   21.1409   19.2598   24.0326 C   0  0  0  0  0  0  0  0  0  0  0  0
   20.7163   20.2576   23.8681 H   0  0  0  0  0  0  0  0  0  0  0  0
   21.9850   19.3957   24.7215 H   0  0  0  0  0  0  0  0  0  0  0  0
   21.6739   18.6897   22.6945 C   0  0  0  0  0  0  0  0  0  0  0  0
   22.2227   17.7595   22.8974 H   0  0  0  0  0  0  0  0  0  0  0  0
   22.4109   19.3896   22.2771 H   0  0  0  0  0  0  0  0  0  0  0  0
   20.5850   18.4022   21.6282 C   0  0  0  0  0  0  0  0  0  0  0  0
   21.0753   17.9886   20.7360 H   0  0  0  0  0  0  0  0  0  0  0  0
   19.9041   17.6192   21.9881 H   0  0  0  0  0  0  0  0  0  0  0  0
   19.7709   19.6531   21.2202 C   0  0  0  0  0  0  0  0  0  0  0  0
   20.4541   20.4524   20.9006 H   0  0  0  0  0  0  0  0  0  0  0  0
   19.2105   20.0383   22.0825 H   0  0  0  0  0  0  0  0  0  0  0  0
   18.7796   19.3402   20.0791 C   0  0  0  0  0  0  0  0  0  0  0  0
   18.0634   18.5645   20.3801 H   0  0  0  0  0  0  0  0  0  0  0  0
   19.3068   18.9893   19.1824 H   0  0  0  0  0  0  0  0  0  0  0  0
   18.2090   20.2369   19.8045 H   0  0  0  0  0  0  0  0  0  0  0  0
   18.7626   20.0852   25.9166 C   0  0  0  0  0  0  0  0  0  0  0  0
   18.3972   20.3774   26.9036 H   0  0  0  0  0  0  0  0  0  0  0  0
   19.3786   20.8856   25.5020 H   0  0  0  0  0  0  0  0  0  0  0  0
   17.9171   19.8866   25.2544 H   0  0  0  0  0  0  0  0  0  0  0  0
  1  2  1  0  0  0  0
  1  3  1  0  0  0  0
  1  4  1  0  0  0  0
  4  5  1  0  0  0  0
  4  6  1  0  0  0  0
  4  7  1  0  0  0  0
  7  8  1  0  0  0  0
  7  9  1  0  0  0  0
  7 10  1  0  0  0  0
 10 11  1  0  0  0  0
 10 12  1  0  0  0  0
 10 13  1  0  0  0  0
 13 14  1  0  0  0  0
 13 15  1  0  0  0  0
 13 16  1  0  0  0  0
 16 17  1  0  0  0  0
 16 18  1  0  0  0  0
 16 19  1  0  0  0  0
 19 20  1  0  0  0  0
 19 21  1  0  0  0  0
 19 22  1  0  0  0  0
  1 23  1  0  0  0  0
 23 24  1  0  0  0  0
 23 25  1  0  0  0  0
 23 26  1  0  0  0  0
M  END
> <VM2 Rank>
52

> <Conf_Id>
1296

> <Probability>
0.70

> <Sum Probability>
80.71

> <Delta G>
1.348

> <G>
76.815

> <E>
44.145

> <-TS>
32.670

> <U+W>
22.683

> <U>
72.352

> <W>
-49.669

> <W(PB)>
-51.907

> <W(SA)>
2.238

> <Valence>
2.742

> <Coulomb>
69.271

> <VdW>
0.339

> <VdW6>
-7.704

> <VdW12>
8.043

> <Bond>
0.229

> <Angle>
0.954

> <Pdih>
1.560

> <Idih>
0.000

> <Tether>
0.000

$$$$
VeraChem MOL file


 26 25  0  0  0  0  0  0  0  0999 V2000     
   19.1144   18.6973   25.4294 N   0  3  0  0  0  0  0  0  0  0  0  0
   18.5470   17.9012   25.7612 H   0  0  0  0  0  0  0  0  0  0  0  0
   18.5922   19.0865   24.6303 H   0  0  0  0  0  0  0  0  0  0  0  0
   20.4742   18.1975   24.9677 C   0  0  0  0  0  0  0  0  0  0  0  0
   20.3006   17.3601   24.2876 H   0  0  0  0  0  0  0  0  0  0  0  0
   21.0013   17.8124   25.8443 H   0  0  0  0  0  0  0  0  0  0  0  0
   21.3538   19.2511   24.2569 C   0  0  0  0  0  0  0  0  0  0  0  0
   21.6166   20.0458   24.9670 H   0  0  0  0  0  0  0  0  0  0  0  0
   22.3021   18.7785   23.9690 H   0  0  0  0  0  0  0  0  0  0  0  0
   20.6962   19.8813   23.0035 C   0  0  0  0  0  0  0  0  0  0  0  0
   21.3867   20.6262   22.5844 H   0  0  0  0  0  0  0  0  0  0  0  0
   19.7929   20.4339   23.2948 H   0  0  0  0  0  0  0  0  0  0  0  0
   20.3469   18.8424   21.9106 C   0  0  0  0  0  0  0  0  0  0  0  0
   21.2502   18.2794   21.6379 H   0  0  0  0  0  0  0  0  0  0  0  0
   19.6242   18.1135   22.3006 H   0  0  0  0  0  0  0  0  0  0  0  0
   19.7587   19.5125   20.6489 C   0  0  0  0  0  0  0  0  0  0  0  0
   20.4787   20.2371   20.2431 H   0  0  0  0  0  0  0  0  0  0  0  0
   18.8557   20.0793   20.9161 H   0  0  0  0  0  0  0  0  0  0  0  0
   19.4085   18.4753   19.5606 C   0  0  0  0  0  0  0  0  0  0  0  0
   18.9933   18.9699   18.6730 H   0  0  0  0  0  0  0  0  0  0  0  0
   18.6630   17.7566   19.9251 H   0  0  0  0  0  0  0  0  0  0  0  0
   20.2992   17.9149   19.2480 H   0  0  0  0  0  0  0  0  0  0  0  0
   19.2553   19.7326   26.5392 C   0  0  0  0  0  0  0  0  0  0  0  0
   19.7960   19.2881   27.3776 H   0  0  0  0  0  0  0  0  0  0  0  0
   19.8050   20.5961   26.1594 H   0  0  0  0  0  0  0  0  0  0  0  0
   18.2607   20.0445   26.8655 H   0  0  0  0  0  0  0  0  0  0  0  0
  1  2  1  0  0  0  0
  1  3  1  0  0  0  0
  1  4  1  0  0  0  0
  4  5  1  0  0  0  0
  4  6  1  0  0  0  0
  4  7  1  0  0  0  0
  7  8  1  0  0  0  0
  7  9  1  0  0  0  0
  7 10  1  0  0  0  0
 10 11  1  0  0  0  0
 10 12  1  0  0  0  0
 10 13  1  0  0  0  0
 13 14  1  0  0  0  0
 13 15  1  0  0  0  0
 13 16  1  0  0  0  0
 16 17  1  0  0  0  0
 16 18  1  0  0  0  0
 16 19  1  0  0  0  0
 19 20  1  0  0  0  0
 19 21  1  0  0  0  0
 19 22  1  0  0  0  0
  1 23  1  0  0  0  0
 23 24  1  0  0  0  0
 23 25  1  0  0  0  0
 23 26  1  0  0  0  0
M  END
> <VM2 Rank>
53

> <Conf_Id>
1581

> <Probability>
0.69

> <Sum Probability>
81.40

> <Delta G>
1.356

> <G>
76.822

> <E>
44.139

> <-TS>
32.683

> <U+W>
22.677

> <U>
72.375

> <W>
-49.698

> <W(PB)>
-51.947

> <W(SA)>
2.249

> <Valence>
2.386

> <Coulomb>
69.689

> <VdW>
0.300

> <VdW6>
-7.603

> <VdW12>
7.903

> <Bond>
0.210

> <Angle>
0.753

> <Pdih>
1.423

> <Idih>
0.000

> <Tether>
0.000

$$$$
VeraChem MOL file


 26 25  0  0  0  0  0  0  0  0999 V2000     
   20.3334   18.5431   26.2745 N   0  3  0  0  0  0  0  0  0  0  0  0
   21.1969   18.1444   26.6761 H   0  0  0  0  0  0  0  0  0  0  0  0
   19.5785   17.9140   26.5889 H   0  0  0  0  0  0  0  0  0  0  0  0
   20.4267   18.5352   24.7580 C   0  0  0  0  0  0  0  0  0  0  0  0
   20.7459   17.5342   24.4570 H   0  0  0  0  0  0  0  0  0  0  0  0
   21.2072   19.2423   24.4674 H   0  0  0  0  0  0  0  0  0  0  0  0
   19.1075   18.8792   24.0340 C   0  0  0  0  0  0  0  0  0  0  0  0
   18.3177   18.2032   24.3873 H   0  0  0  0  0  0  0  0  0  0  0  0
   18.7901   19.8969   24.2955 H   0  0  0  0  0  0  0  0  0  0  0  0
   19.2248   18.7557   22.4966 C   0  0  0  0  0  0  0  0  0  0  0  0
   18.2356   18.9315   22.0518 H   0  0  0  0  0  0  0  0  0  0  0  0
   19.5040   17.7253   22.2394 H   0  0  0  0  0  0  0  0  0  0  0  0
   20.2433   19.7517   21.8862 C   0  0  0  0  0  0  0  0  0  0  0  0
   20.0077   20.7661   22.2367 H   0  0  0  0  0  0  0  0  0  0  0  0
   21.2555   19.5265   22.2481 H   0  0  0  0  0  0  0  0  0  0  0  0
   20.2464   19.7552   20.3383 C   0  0  0  0  0  0  0  0  0  0  0  0
   20.9155   20.5539   19.9886 H   0  0  0  0  0  0  0  0  0  0  0  0
   19.2444   20.0090   19.9648 H   0  0  0  0  0  0  0  0  0  0  0  0
   20.7065   18.4141   19.7226 C   0  0  0  0  0  0  0  0  0  0  0  0
   21.6955   18.1244   20.1006 H   0  0  0  0  0  0  0  0  0  0  0  0
   20.7762   18.4968   18.6302 H   0  0  0  0  0  0  0  0  0  0  0  0
   20.0014   17.6043   19.9472 H   0  0  0  0  0  0  0  0  0  0  0  0
   20.1194   19.9556   26.8067 C   0  0  0  0  0  0  0  0  0  0  0  0
   19.1723   20.3452   26.4281 H   0  0  0  0  0  0  0  0  0  0  0  0
   20.0938   19.9260   27.8983 H   0  0  0  0  0  0  0  0  0  0  0  0
   20.9419   20.5927   26.4744 H   0  0  0  0  0  0  0  0  0  0  0  0
  1  2  1  0  0  0  0
  1  3  1  0  0  0  0
  1  4  1  0  0  0  0
  4  5  1  0  0  0  0
  4  6  1  0  0  0  0
  4  7  1  0  0  0  0
  7  8  1  0  0  0  0
  7  9  1  0  0  0  0
  7 10  1  0  0  0  0
 10 11  1  0  0  0  0
 10 12  1  0  0  0  0
 10 13  1  0  0  0  0
 13 14  1  0  0  0  0
 13 15  1  0  0  0  0
 13 16  1  0  0  0  0
 16 17  1  0  0  0  0
 16 18  1  0  0  0  0
 16 19  1  0  0  0  0
 19 20  1  0  0  0  0
 19 21  1  0  0  0  0
 19 22  1  0  0  0  0
  1 23  1  0  0  0  0
 23 24  1  0  0  0  0
 23 25  1  0  0  0  0
 23 26  1  0  0  0  0
M  END
> <VM2 Rank>
54

> <Conf_Id>
203

> <Probability>
0.68

> <Sum Probability>
82.08

> <Delta G>
1.363

> <G>
76.829

> <E>
44.285

> <-TS>
32.544

> <U+W>
22.823

> <U>
72.114

> <W>
-49.291

> <W(PB)>
-51.567

> <W(SA)>
2.276

> <Valence>
2.783

> <Coulomb>
68.782

> <VdW>
0.549

> <VdW6>
-7.241

> <VdW12>
7.790

> <Bond>
0.221

> <Angle>
0.803

> <Pdih>
1.759

> <Idih>
0.000

> <Tether>
0.000

$$$$
VeraChem MOL file


 26 25  0  0  0  0  0  0  0  0999 V2000     
   20.8922   18.8791   25.4924 N   0  3  0  0  0  0  0  0  0  0  0  0
   21.3794   19.3717   24.7291 H   0  0  0  0  0  0  0  0  0  0  0  0
   21.5842   18.2118   25.8686 H   0  0  0  0  0  0  0  0  0  0  0  0
   19.6973   18.1181   24.9402 C   0  0  0  0  0  0  0  0  0  0  0  0
   19.1989   17.6281   25.7804 H   0  0  0  0  0  0  0  0  0  0  0  0
   20.0838   17.3380   24.2799 H   0  0  0  0  0  0  0  0  0  0  0  0
   18.6748   18.9772   24.1620 C   0  0  0  0  0  0  0  0  0  0  0  0
   17.8642   18.3247   23.8118 H   0  0  0  0  0  0  0  0  0  0  0  0
   18.2077   19.6972   24.8462 H   0  0  0  0  0  0  0  0  0  0  0  0
   19.2775   19.7362   22.9532 C   0  0  0  0  0  0  0  0  0  0  0  0
   20.0278   20.4579   23.3030 H   0  0  0  0  0  0  0  0  0  0  0  0
   18.4818   20.3293   22.4815 H   0  0  0  0  0  0  0  0  0  0  0  0
   19.9052   18.7973   21.8949 C   0  0  0  0  0  0  0  0  0  0  0  0
   20.7312   18.2266   22.3398 H   0  0  0  0  0  0  0  0  0  0  0  0
   19.1556   18.0654   21.5636 H   0  0  0  0  0  0  0  0  0  0  0  0
   20.4329   19.5815   20.6728 C   0  0  0  0  0  0  0  0  0  0  0  0
   21.1819   20.3169   20.9985 H   0  0  0  0  0  0  0  0  0  0  0  0
   19.6117   20.1486   20.2125 H   0  0  0  0  0  0  0  0  0  0  0  0
   21.0606   18.6442   19.6191 C   0  0  0  0  0  0  0  0  0  0  0  0
   21.9084   18.0881   20.0399 H   0  0  0  0  0  0  0  0  0  0  0  0
   21.4285   19.2189   18.7592 H   0  0  0  0  0  0  0  0  0  0  0  0
   20.3254   17.9178   19.2487 H   0  0  0  0  0  0  0  0  0  0  0  0
   20.4674   19.8564   26.5823 C   0  0  0  0  0  0  0  0  0  0  0  0
   19.9705   19.3057   27.3839 H   0  0  0  0  0  0  0  0  0  0  0  0
   21.3531   20.3607   26.9752 H   0  0  0  0  0  0  0  0  0  0  0  0
   19.7824   20.5937   26.1589 H   0  0  0  0  0  0  0  0  0  0  0  0
  1  2  1  0  0  0  0
  1  3  1  0  0  0  0
  1  4  1  0  0  0  0
  4  5  1  0  0  0  0
  4  6  1  0  0  0  0
  4  7  1  0  0  0  0
  7  8  1  0  0  0  0
  7  9  1  0  0  0  0
  7 10  1  0  0  0  0
 10 11  1  0  0  0  0
 10 12  1  0  0  0  0
 10 13  1  0  0  0  0
 13 14  1  0  0  0  0
 13 15  1  0  0  0  0
 13 16  1  0  0  0  0
 16 17  1  0  0  0  0
 16 18  1  0  0  0  0
 16 19  1  0  0  0  0
 19 20  1  0  0  0  0
 19 21  1  0  0  0  0
 19 22  1  0  0  0  0
  1 23  1  0  0  0  0
 23 24  1  0  0  0  0
 23 25  1  0  0  0  0
 23 26  1  0  0  0  0
M  END
> <VM2 Rank>
55

> <Conf_Id>
276

> <Probability>
0.67

> <Sum Probability>
82.75

> <Delta G>
1.374

> <G>
76.841

> <E>
44.158

> <-TS>
32.683

> <U+W>
22.696

> <U>
72.375

> <W>
-49.679

> <W(PB)>
-51.929

> <W(SA)>
2.250

> <Valence>
2.386

> <Coulomb>
69.689

> <VdW>
0.300

> <VdW6>
-7.603

> <VdW12>
7.903

> <Bond>
0.210

> <Angle>
0.753

> <Pdih>
1.423

> <Idih>
0.000

> <Tether>
0.000

$$$$
VeraChem MOL file


 26 25  0  0  0  0  0  0  0  0999 V2000     
   19.8196   18.3994   26.2069 N   0  3  0  0  0  0  0  0  0  0  0  0
   20.7689   18.0344   26.3801 H   0  0  0  0  0  0  0  0  0  0  0  0
   19.1843   17.6454   26.5132 H   0  0  0  0  0  0  0  0  0  0  0  0
   19.6197   18.6609   24.7233 C   0  0  0  0  0  0  0  0  0  0  0  0
   18.6234   19.0891   24.5880 H   0  0  0  0  0  0  0  0  0  0  0  0
   19.6438   17.6916   24.2199 H   0  0  0  0  0  0  0  0  0  0  0  0
   20.6794   19.5860   24.0873 C   0  0  0  0  0  0  0  0  0  0  0  0
   20.6592   20.5631   24.5867 H   0  0  0  0  0  0  0  0  0  0  0  0
   21.6810   19.1686   24.2549 H   0  0  0  0  0  0  0  0  0  0  0  0
   20.4515   19.7987   22.5720 C   0  0  0  0  0  0  0  0  0  0  0  0
   21.1849   20.5297   22.2046 H   0  0  0  0  0  0  0  0  0  0  0  0
   19.4607   20.2465   22.4178 H   0  0  0  0  0  0  0  0  0  0  0  0
   20.5790   18.4914   21.7494 C   0  0  0  0  0  0  0  0  0  0  0  0
   21.5322   18.0035   21.9959 H   0  0  0  0  0  0  0  0  0  0  0  0
   19.7869   17.7862   22.0347 H   0  0  0  0  0  0  0  0  0  0  0  0
   20.5264   18.7215   20.2196 C   0  0  0  0  0  0  0  0  0  0  0  0
   20.7242   17.7669   19.7121 H   0  0  0  0  0  0  0  0  0  0  0  0
   21.3343   19.4025   19.9178 H   0  0  0  0  0  0  0  0  0  0  0  0
   19.1692   19.2751   19.7287 C   0  0  0  0  0  0  0  0  0  0  0  0
   18.9806   20.2834   20.1176 H   0  0  0  0  0  0  0  0  0  0  0  0
   18.3413   18.6253   20.0406 H   0  0  0  0  0  0  0  0  0  0  0  0
   19.1530   19.3362   18.6329 H   0  0  0  0  0  0  0  0  0  0  0  0
   19.5632   19.6570   27.0297 C   0  0  0  0  0  0  0  0  0  0  0  0
   19.6788   19.4198   28.0897 H   0  0  0  0  0  0  0  0  0  0  0  0
   20.2822   20.4281   26.7461 H   0  0  0  0  0  0  0  0  0  0  0  0
   18.5470   20.0092   26.8395 H   0  0  0  0  0  0  0  0  0  0  0  0
  1  2  1  0  0  0  0
  1  3  1  0  0  0  0
  1  4  1  0  0  0  0
  4  5  1  0  0  0  0
  4  6  1  0  0  0  0
  4  7  1  0  0  0  0
  7  8  1  0  0  0  0
  7  9  1  0  0  0  0
  7 10  1  0  0  0  0
 10 11  1  0  0  0  0
 10 12  1  0  0  0  0
 10 13  1  0  0  0  0
 13 14  1  0  0  0  0
 13 15  1  0  0  0  0
 13 16  1  0  0  0  0
 16 17  1  0  0  0  0
 16 18  1  0  0  0  0
 16 19  1  0  0  0  0
 19 20  1  0  0  0  0
 19 21  1  0  0  0  0
 19 22  1  0  0  0  0
  1 23  1  0  0  0  0
 23 24  1  0  0  0  0
 23 25  1  0  0  0  0
 23 26  1  0  0  0  0
M  END
> <VM2 Rank>
56

> <Conf_Id>
1371

> <Probability>
0.64

> <Sum Probability>
83.39

> <Delta G>
1.399

> <G>
76.865

> <E>
44.317

> <-TS>
32.549

> <U+W>
22.855

> <U>
72.218

> <W>
-49.364

> <W(PB)>
-51.632

> <W(SA)>
2.268

> <Valence>
2.805

> <Coulomb>
68.813

> <VdW>
0.600

> <VdW6>
-7.202

> <VdW12>
7.802

> <Bond>
0.224

> <Angle>
0.821

> <Pdih>
1.760

> <Idih>
0.000

> <Tether>
0.000

$$$$
VeraChem MOL file


 26 25  0  0  0  0  0  0  0  0999 V2000     
   19.4876   19.2032   26.3620 N   0  3  0  0  0  0  0  0  0  0  0  0
   19.1375   18.2832   26.6709 H   0  0  0  0  0  0  0  0  0  0  0  0
   18.8869   19.8918   26.8425 H   0  0  0  0  0  0  0  0  0  0  0  0
   19.3262   19.3490   24.8582 C   0  0  0  0  0  0  0  0  0  0  0  0
   19.7439   20.3164   24.5700 H   0  0  0  0  0  0  0  0  0  0  0  0
   18.2541   19.3650   24.6463 H   0  0  0  0  0  0  0  0  0  0  0  0
   19.9834   18.2225   24.0323 C   0  0  0  0  0  0  0  0  0  0  0  0
   21.0681   18.2170   24.2002 H   0  0  0  0  0  0  0  0  0  0  0  0
   19.6059   17.2540   24.3862 H   0  0  0  0  0  0  0  0  0  0  0  0
   19.6982   18.3482   22.5170 C   0  0  0  0  0  0  0  0  0  0  0  0
   18.6128   18.3396   22.3463 H   0  0  0  0  0  0  0  0  0  0  0  0
   20.0991   17.4570   22.0169 H   0  0  0  0  0  0  0  0  0  0  0  0
   20.3176   19.6216   21.8863 C   0  0  0  0  0  0  0  0  0  0  0  0
   19.9355   20.5112   22.4042 H   0  0  0  0  0  0  0  0  0  0  0  0
   21.4056   19.6190   22.0390 H   0  0  0  0  0  0  0  0  0  0  0  0
   20.0089   19.7743   20.3769 C   0  0  0  0  0  0  0  0  0  0  0  0
   20.3811   20.7516   20.0389 H   0  0  0  0  0  0  0  0  0  0  0  0
   18.9214   19.7892   20.2193 H   0  0  0  0  0  0  0  0  0  0  0  0
   20.6465   18.6709   19.5019 C   0  0  0  0  0  0  0  0  0  0  0  0
   20.4792   18.8807   18.4375 H   0  0  0  0  0  0  0  0  0  0  0  0
   20.2136   17.6857   19.7145 H   0  0  0  0  0  0  0  0  0  0  0  0
   21.7305   18.6136   19.6657 H   0  0  0  0  0  0  0  0  0  0  0  0
   20.9397   19.4002   26.7825 C   0  0  0  0  0  0  0  0  0  0  0  0
   21.2759   20.3878   26.4594 H   0  0  0  0  0  0  0  0  0  0  0  0
   21.0100   19.3243   27.8699 H   0  0  0  0  0  0  0  0  0  0  0  0
   21.5581   18.6283   26.3202 H   0  0  0  0  0  0  0  0  0  0  0  0
  1  2  1  0  0  0  0
  1  3  1  0  0  0  0
  1  4  1  0  0  0  0
  4  5  1  0  0  0  0
  4  6  1  0  0  0  0
  4  7  1  0  0  0  0
  7  8  1  0  0  0  0
  7  9  1  0  0  0  0
  7 10  1  0  0  0  0
 10 11  1  0  0  0  0
 10 12  1  0  0  0  0
 10 13  1  0  0  0  0
 13 14  1  0  0  0  0
 13 15  1  0  0  0  0
 13 16  1  0  0  0  0
 16 17  1  0  0  0  0
 16 18  1  0  0  0  0
 16 19  1  0  0  0  0
 19 20  1  0  0  0  0
 19 21  1  0  0  0  0
 19 22  1  0  0  0  0
  1 23  1  0  0  0  0
 23 24  1  0  0  0  0
 23 25  1  0  0  0  0
 23 26  1  0  0  0  0
M  END
> <VM2 Rank>
57

> <Conf_Id>
1334

> <Probability>
0.63

> <Sum Probability>
84.02

> <Delta G>
1.413

> <G>
76.880

> <E>
44.366

> <-TS>
32.514

> <U+W>
22.904

> <U>
72.180

> <W>
-49.276

> <W(PB)>
-51.572

> <W(SA)>
2.296

> <Valence>
2.842

> <Coulomb>
68.728

> <VdW>
0.611

> <VdW6>
-7.185

> <VdW12>
7.795

> <Bond>
0.227

> <Angle>
0.860

> <Pdih>
1.755

> <Idih>
0.000

> <Tether>
0.000

$$$$
VeraChem MOL file


 26 25  0  0  0  0  0  0  0  0999 V2000     
   20.2090   18.4393   26.2207 N   0  3  0  0  0  0  0  0  0  0  0  0
   20.9605   17.8271   26.5762 H   0  0  0  0  0  0  0  0  0  0  0  0
   19.3433   17.8888   26.3298 H   0  0  0  0  0  0  0  0  0  0  0  0
   20.4552   18.7463   24.7529 C   0  0  0  0  0  0  0  0  0  0  0  0
   20.6629   17.7957   24.2561 H   0  0  0  0  0  0  0  0  0  0  0  0
   21.3514   19.3680   24.6846 H   0  0  0  0  0  0  0  0  0  0  0  0
   19.2777   19.4425   24.0376 C   0  0  0  0  0  0  0  0  0  0  0  0
   18.3719   18.8300   24.1377 H   0  0  0  0  0  0  0  0  0  0  0  0
   19.0649   20.3999   24.5302 H   0  0  0  0  0  0  0  0  0  0  0  0
   19.5634   19.7078   22.5405 C   0  0  0  0  0  0  0  0  0  0  0  0
   20.4514   20.3479   22.4529 H   0  0  0  0  0  0  0  0  0  0  0  0
   18.7248   20.2779   22.1174 H   0  0  0  0  0  0  0  0  0  0  0  0
   19.7611   18.4076   21.7205 C   0  0  0  0  0  0  0  0  0  0  0  0
   20.6576   17.8753   22.0656 H   0  0  0  0  0  0  0  0  0  0  0  0
   18.9115   17.7351   21.9031 H   0  0  0  0  0  0  0  0  0  0  0  0
   19.8730   18.6545   20.1965 C   0  0  0  0  0  0  0  0  0  0  0  0
   18.9670   19.1599   19.8339 H   0  0  0  0  0  0  0  0  0  0  0  0
   19.9087   17.6832   19.6833 H   0  0  0  0  0  0  0  0  0  0  0  0
   21.1208   19.4750   19.7978 C   0  0  0  0  0  0  0  0  0  0  0  0
   21.0736   20.4979   20.1916 H   0  0  0  0  0  0  0  0  0  0  0  0
   21.2011   19.5459   18.7054 H   0  0  0  0  0  0  0  0  0  0  0  0
   22.0393   19.0042   20.1716 H   0  0  0  0  0  0  0  0  0  0  0  0
   20.1478   19.7169   27.0503 C   0  0  0  0  0  0  0  0  0  0  0  0
   20.0087   19.4538   28.1013 H   0  0  0  0  0  0  0  0  0  0  0  0
   21.0826   20.2685   26.9292 H   0  0  0  0  0  0  0  0  0  0  0  0
   19.3095   20.3288   26.7116 H   0  0  0  0  0  0  0  0  0  0  0  0
  1  2  1  0  0  0  0
  1  3  1  0  0  0  0
  1  4  1  0  0  0  0
  4  5  1  0  0  0  0
  4  6  1  0  0  0  0
  4  7  1  0  0  0  0
  7  8  1  0  0  0  0
  7  9  1  0  0  0  0
  7 10  1  0  0  0  0
 10 11  1  0  0  0  0
 10 12  1  0  0  0  0
 10 13  1  0  0  0  0
 13 14  1  0  0  0  0
 13 15  1  0  0  0  0
 13 16  1  0  0  0  0
 16 17  1  0  0  0  0
 16 18  1  0  0  0  0
 16 19  1  0  0  0  0
 19 20  1  0  0  0  0
 19 21  1  0  0  0  0
 19 22  1  0  0  0  0
  1 23  1  0  0  0  0
 23 24  1  0  0  0  0
 23 25  1  0  0  0  0
 23 26  1  0  0  0  0
M  END
> <VM2 Rank>
58

> <Conf_Id>
849

> <Probability>
0.60

> <Sum Probability>
84.62

> <Delta G>
1.438

> <G>
76.905

> <E>
44.356

> <-TS>
32.549

> <U+W>
22.894

> <U>
72.218

> <W>
-49.324

> <W(PB)>
-51.599

> <W(SA)>
2.275

> <Valence>
2.805

> <Coulomb>
68.813

> <VdW>
0.600

> <VdW6>
-7.202

> <VdW12>
7.802

> <Bond>
0.224

> <Angle>
0.821

> <Pdih>
1.760

> <Idih>
0.000

> <Tether>
0.000

$$$$
VeraChem MOL file


 26 25  0  0  0  0  0  0  0  0999 V2000     
   20.3599   19.2926   26.3929 N   0  3  0  0  0  0  0  0  0  0  0  0
   20.7735   20.0851   26.9094 H   0  0  0  0  0  0  0  0  0  0  0  0
   20.8666   18.4604   26.7321 H   0  0  0  0  0  0  0  0  0  0  0  0
   20.5934   19.4788   24.9031 C   0  0  0  0  0  0  0  0  0  0  0  0
   21.6522   19.7133   24.7667 H   0  0  0  0  0  0  0  0  0  0  0  0
   20.0095   20.3436   24.5795 H   0  0  0  0  0  0  0  0  0  0  0  0
   20.2376   18.2485   24.0413 C   0  0  0  0  0  0  0  0  0  0  0  0
   20.7778   17.3741   24.4277 H   0  0  0  0  0  0  0  0  0  0  0  0
   19.1675   18.0221   24.1329 H   0  0  0  0  0  0  0  0  0  0  0  0
   20.5968   18.4404   22.5488 C   0  0  0  0  0  0  0  0  0  0  0  0
   20.4209   17.4900   22.0283 H   0  0  0  0  0  0  0  0  0  0  0  0
   21.6707   18.6531   22.4547 H   0  0  0  0  0  0  0  0  0  0  0  0
   19.7779   19.5663   21.8672 C   0  0  0  0  0  0  0  0  0  0  0  0
   18.7050   19.3421   21.9433 H   0  0  0  0  0  0  0  0  0  0  0  0
   19.9345   20.5111   22.4042 H   0  0  0  0  0  0  0  0  0  0  0  0
   20.1541   19.7892   20.3821 C   0  0  0  0  0  0  0  0  0  0  0  0
   21.2244   20.0252   20.3008 H   0  0  0  0  0  0  0  0  0  0  0  0
   19.6162   20.6732   20.0119 H   0  0  0  0  0  0  0  0  0  0  0  0
   19.8160   18.5858   19.4724 C   0  0  0  0  0  0  0  0  0  0  0  0
   18.7574   18.3091   19.5603 H   0  0  0  0  0  0  0  0  0  0  0  0
   20.4235   17.7072   19.7218 H   0  0  0  0  0  0  0  0  0  0  0  0
   20.0115   18.8328   18.4209 H   0  0  0  0  0  0  0  0  0  0  0  0
   18.8722   19.1884   26.7092 C   0  0  0  0  0  0  0  0  0  0  0  0
   18.4569   18.3106   26.2102 H   0  0  0  0  0  0  0  0  0  0  0  0
   18.7428   19.0918   27.7895 H   0  0  0  0  0  0  0  0  0  0  0  0
   18.3664   20.0898   26.3564 H   0  0  0  0  0  0  0  0  0  0  0  0
  1  2  1  0  0  0  0
  1  3  1  0  0  0  0
  1  4  1  0  0  0  0
  4  5  1  0  0  0  0
  4  6  1  0  0  0  0
  4  7  1  0  0  0  0
  7  8  1  0  0  0  0
  7  9  1  0  0  0  0
  7 10  1  0  0  0  0
 10 11  1  0  0  0  0
 10 12  1  0  0  0  0
 10 13  1  0  0  0  0
 13 14  1  0  0  0  0
 13 15  1  0  0  0  0
 13 16  1  0  0  0  0
 16 17  1  0  0  0  0
 16 18  1  0  0  0  0
 16 19  1  0  0  0  0
 19 20  1  0  0  0  0
 19 21  1  0  0  0  0
 19 22  1  0  0  0  0
  1 23  1  0  0  0  0
 23 24  1  0  0  0  0
 23 25  1  0  0  0  0
 23 26  1  0  0  0  0
M  END
> <VM2 Rank>
59

> <Conf_Id>
790

> <Probability>
0.55

> <Sum Probability>
85.16

> <Delta G>
1.493

> <G>
76.959

> <E>
44.446

> <-TS>
32.514

> <U+W>
22.984

> <U>
72.180

> <W>
-49.196

> <W(PB)>
-51.484

> <W(SA)>
2.287

> <Valence>
2.842

> <Coulomb>
68.728

> <VdW>
0.610

> <VdW6>
-7.184

> <VdW12>
7.795

> <Bond>
0.227

> <Angle>
0.860

> <Pdih>
1.755

> <Idih>
0.000

> <Tether>
0.000

$$$$
VeraChem MOL file


 26 25  0  0  0  0  0  0  0  0999 V2000     
   20.0325   19.0272   26.2947 N   0  3  0  0  0  0  0  0  0  0  0  0
   20.8626   18.4311   26.4366 H   0  0  0  0  0  0  0  0  0  0  0  0
   19.4302   18.8439   27.1130 H   0  0  0  0  0  0  0  0  0  0  0  0
   19.3034   18.6191   25.0255 C   0  0  0  0  0  0  0  0  0  0  0  0
   18.4578   19.2980   24.8900 H   0  0  0  0  0  0  0  0  0  0  0  0
   18.9079   17.6131   25.1877 H   0  0  0  0  0  0  0  0  0  0  0  0
   20.1802   18.6138   23.7568 C   0  0  0  0  0  0  0  0  0  0  0  0
   20.5592   19.6264   23.5728 H   0  0  0  0  0  0  0  0  0  0  0  0
   21.0514   17.9655   23.9186 H   0  0  0  0  0  0  0  0  0  0  0  0
   19.3844   18.1191   22.5262 C   0  0  0  0  0  0  0  0  0  0  0  0
   18.5342   18.7889   22.3402 H   0  0  0  0  0  0  0  0  0  0  0  0
   18.9492   17.1362   22.7543 H   0  0  0  0  0  0  0  0  0  0  0  0
   20.2446   17.9861   21.2426 C   0  0  0  0  0  0  0  0  0  0  0  0
   21.0210   17.2269   21.4099 H   0  0  0  0  0  0  0  0  0  0  0  0
   19.6120   17.5948   20.4339 H   0  0  0  0  0  0  0  0  0  0  0  0
   20.9218   19.2944   20.7597 C   0  0  0  0  0  0  0  0  0  0  0  0
   21.4967   19.0746   19.8492 H   0  0  0  0  0  0  0  0  0  0  0  0
   21.6556   19.6385   21.5008 H   0  0  0  0  0  0  0  0  0  0  0  0
   19.9188   20.4295   20.4524 C   0  0  0  0  0  0  0  0  0  0  0  0
   19.4021   20.7665   21.3597 H   0  0  0  0  0  0  0  0  0  0  0  0
   19.1627   20.1025   19.7269 H   0  0  0  0  0  0  0  0  0  0  0  0
   20.4388   21.2976   20.0271 H   0  0  0  0  0  0  0  0  0  0  0  0
   20.4223   20.5007   26.2591 C   0  0  0  0  0  0  0  0  0  0  0  0
   19.5232   21.1065   26.1262 H   0  0  0  0  0  0  0  0  0  0  0  0
   20.9085   20.7643   27.2010 H   0  0  0  0  0  0  0  0  0  0  0  0
   21.1115   20.6730   25.4300 H   0  0  0  0  0  0  0  0  0  0  0  0
  1  2  1  0  0  0  0
  1  3  1  0  0  0  0
  1  4  1  0  0  0  0
  4  5  1  0  0  0  0
  4  6  1  0  0  0  0
  4  7  1  0  0  0  0
  7  8  1  0  0  0  0
  7  9  1  0  0  0  0
  7 10  1  0  0  0  0
 10 11  1  0  0  0  0
 10 12  1  0  0  0  0
 10 13  1  0  0  0  0
 13 14  1  0  0  0  0
 13 15  1  0  0  0  0
 13 16  1  0  0  0  0
 16 17  1  0  0  0  0
 16 18  1  0  0  0  0
 16 19  1  0  0  0  0
 19 20  1  0  0  0  0
 19 21  1  0  0  0  0
 19 22  1  0  0  0  0
  1 23  1  0  0  0  0
 23 24  1  0  0  0  0
 23 25  1  0  0  0  0
 23 26  1  0  0  0  0
M  END
> <VM2 Rank>
60

> <Conf_Id>
231

> <Probability>
0.52

> <Sum Probability>
85.69

> <Delta G>
1.520

> <G>
76.987

> <E>
44.221

> <-TS>
32.766

> <U+W>
22.759

> <U>
72.216

> <W>
-49.457

> <W(PB)>
-51.691

> <W(SA)>
2.234

> <Valence>
2.957

> <Coulomb>
68.763

> <VdW>
0.496

> <VdW6>
-7.593

> <VdW12>
8.090

> <Bond>
0.241

> <Angle>
1.122

> <Pdih>
1.593

> <Idih>
0.000

> <Tether>
0.000

$$$$
VeraChem MOL file


 26 25  0  0  0  0  0  0  0  0999 V2000     
   19.8707   18.2985   26.1260 N   0  3  0  0  0  0  0  0  0  0  0  0
   20.4404   17.8645   26.8696 H   0  0  0  0  0  0  0  0  0  0  0  0
   19.2479   17.5458   25.7944 H   0  0  0  0  0  0  0  0  0  0  0  0
   20.7766   18.7660   24.9991 C   0  0  0  0  0  0  0  0  0  0  0  0
   21.4390   17.9334   24.7486 H   0  0  0  0  0  0  0  0  0  0  0  0
   21.3913   19.5856   25.3795 H   0  0  0  0  0  0  0  0  0  0  0  0
   20.0336   19.2154   23.7247 C   0  0  0  0  0  0  0  0  0  0  0  0
   19.3811   18.4008   23.3865 H   0  0  0  0  0  0  0  0  0  0  0  0
   19.3890   20.0737   23.9536 H   0  0  0  0  0  0  0  0  0  0  0  0
   21.0259   19.6010   22.6026 C   0  0  0  0  0  0  0  0  0  0  0  0
   21.6445   18.7328   22.3390 H   0  0  0  0  0  0  0  0  0  0  0  0
   21.7210   20.3604   22.9872 H   0  0  0  0  0  0  0  0  0  0  0  0
   20.3384   20.1669   21.3329 C   0  0  0  0  0  0  0  0  0  0  0  0
   19.8179   21.0988   21.5937 H   0  0  0  0  0  0  0  0  0  0  0  0
   21.1146   20.4498   20.6085 H   0  0  0  0  0  0  0  0  0  0  0  0
   19.3332   19.2105   20.6416 C   0  0  0  0  0  0  0  0  0  0  0  0
   18.9145   19.7199   19.7624 H   0  0  0  0  0  0  0  0  0  0  0  0
   18.4813   19.0102   21.3051 H   0  0  0  0  0  0  0  0  0  0  0  0
   19.9665   17.8756   20.1878 C   0  0  0  0  0  0  0  0  0  0  0  0
   19.2394   17.2769   19.6241 H   0  0  0  0  0  0  0  0  0  0  0  0
   20.2952   17.2743   21.0446 H   0  0  0  0  0  0  0  0  0  0  0  0
   20.8332   18.0509   19.5374 H   0  0  0  0  0  0  0  0  0  0  0  0
   19.0631   19.4561   26.7023 C   0  0  0  0  0  0  0  0  0  0  0  0
   18.4154   19.8675   25.9255 H   0  0  0  0  0  0  0  0  0  0  0  0
   18.4541   19.0889   27.5313 H   0  0  0  0  0  0  0  0  0  0  0  0
   19.7478   20.2275   27.0613 H   0  0  0  0  0  0  0  0  0  0  0  0
  1  2  1  0  0  0  0
  1  3  1  0  0  0  0
  1  4  1  0  0  0  0
  4  5  1  0  0  0  0
  4  6  1  0  0  0  0
  4  7  1  0  0  0  0
  7  8  1  0  0  0  0
  7  9  1  0  0  0  0
  7 10  1  0  0  0  0
 10 11  1  0  0  0  0
 10 12  1  0  0  0  0
 10 13  1  0  0  0  0
 13 14  1  0  0  0  0
 13 15  1  0  0  0  0
 13 16  1  0  0  0  0
 16 17  1  0  0  0  0
 16 18  1  0  0  0  0
 16 19  1  0  0  0  0
 19 20  1  0  0  0  0
 19 21  1  0  0  0  0
 19 22  1  0  0  0  0
  1 23  1  0  0  0  0
 23 24  1  0  0  0  0
 23 25  1  0  0  0  0
 23 26  1  0  0  0  0
M  END
> <VM2 Rank>
61

> <Conf_Id>
1466

> <Probability>
0.51

> <Sum Probability>
86.19

> <Delta G>
1.540

> <G>
77.006

> <E>
44.246

> <-TS>
32.760

> <U+W>
22.784

> <U>
72.256

> <W>
-49.472

> <W(PB)>
-51.710

> <W(SA)>
2.238

> <Valence>
2.959

> <Coulomb>
68.784

> <VdW>
0.514

> <VdW6>
-7.552

> <VdW12>
8.066

> <Bond>
0.240

> <Angle>
1.124

> <Pdih>
1.595

> <Idih>
0.000

> <Tether>
0.000

$$$$
VeraChem MOL file


 26 25  0  0  0  0  0  0  0  0999 V2000     
   19.8686   19.0103   26.2890 N   0  3  0  0  0  0  0  0  0  0  0  0
   20.4371   18.9482   27.1486 H   0  0  0  0  0  0  0  0  0  0  0  0
   19.1701   18.2561   26.3770 H   0  0  0  0  0  0  0  0  0  0  0  0
   20.7525   18.7689   25.0767 C   0  0  0  0  0  0  0  0  0  0  0  0
   21.3329   17.8638   25.2734 H   0  0  0  0  0  0  0  0  0  0  0  0
   21.4490   19.6072   24.9957 H   0  0  0  0  0  0  0  0  0  0  0  0
   19.9860   18.5939   23.7500 C   0  0  0  0  0  0  0  0  0  0  0  0
   19.2562   17.7804   23.8553 H   0  0  0  0  0  0  0  0  0  0  0  0
   19.4223   19.5091   23.5325 H   0  0  0  0  0  0  0  0  0  0  0  0
   20.9499   18.2806   22.5816 C   0  0  0  0  0  0  0  0  0  0  0  0
   21.5593   17.4054   22.8467 H   0  0  0  0  0  0  0  0  0  0  0  0
   21.6566   19.1109   22.4506 H   0  0  0  0  0  0  0  0  0  0  0  0
   20.2267   17.9842   21.2421 C   0  0  0  0  0  0  0  0  0  0  0  0
   20.9806   17.7357   20.4824 H   0  0  0  0  0  0  0  0  0  0  0  0
   19.6114   17.0816   21.3602 H   0  0  0  0  0  0  0  0  0  0  0  0
   19.3326   19.1306   20.7035 C   0  0  0  0  0  0  0  0  0  0  0  0
   18.4942   19.3128   21.3890 H   0  0  0  0  0  0  0  0  0  0  0  0
   18.8796   18.8047   19.7567 H   0  0  0  0  0  0  0  0  0  0  0  0
   20.1024   20.4483   20.4587 C   0  0  0  0  0  0  0  0  0  0  0  0
   20.9580   20.2872   19.7901 H   0  0  0  0  0  0  0  0  0  0  0  0
   20.4750   20.8770   21.3973 H   0  0  0  0  0  0  0  0  0  0  0  0
   19.4475   21.1952   19.9918 H   0  0  0  0  0  0  0  0  0  0  0  0
   19.1893   20.3732   26.2155 C   0  0  0  0  0  0  0  0  0  0  0  0
   19.9525   21.1509   26.1413 H   0  0  0  0  0  0  0  0  0  0  0  0
   18.5390   20.4069   25.3391 H   0  0  0  0  0  0  0  0  0  0  0  0
   18.5949   20.5251   27.1193 H   0  0  0  0  0  0  0  0  0  0  0  0
  1  2  1  0  0  0  0
  1  3  1  0  0  0  0
  1  4  1  0  0  0  0
  4  5  1  0  0  0  0
  4  6  1  0  0  0  0
  4  7  1  0  0  0  0
  7  8  1  0  0  0  0
  7  9  1  0  0  0  0
  7 10  1  0  0  0  0
 10 11  1  0  0  0  0
 10 12  1  0  0  0  0
 10 13  1  0  0  0  0
 13 14  1  0  0  0  0
 13 15  1  0  0  0  0
 13 16  1  0  0  0  0
 16 17  1  0  0  0  0
 16 18  1  0  0  0  0
 16 19  1  0  0  0  0
 19 20  1  0  0  0  0
 19 21  1  0  0  0  0
 19 22  1  0  0  0  0
  1 23  1  0  0  0  0
 23 24  1  0  0  0  0
 23 25  1  0  0  0  0
 23 26  1  0  0  0  0
M  END
> <VM2 Rank>
62

> <Conf_Id>
252

> <Probability>
0.49

> <Sum Probability>
86.69

> <Delta G>
1.554

> <G>
77.021

> <E>
44.255

> <-TS>
32.766

> <U+W>
22.793

> <U>
72.216

> <W>
-49.423

> <W(PB)>
-51.678

> <W(SA)>
2.255

> <Valence>
2.957

> <Coulomb>
68.762

> <VdW>
0.497

> <VdW6>
-7.593

> <VdW12>
8.090

> <Bond>
0.241

> <Angle>
1.122

> <Pdih>
1.593

> <Idih>
0.000

> <Tether>
0.000

$$$$
VeraChem MOL file


 26 25  0  0  0  0  0  0  0  0999 V2000     
   19.8384   18.1142   25.7827 N   0  3  0  0  0  0  0  0  0  0  0  0
   20.4097   17.3036   26.0699 H   0  0  0  0  0  0  0  0  0  0  0  0
   18.9304   17.7137   25.5012 H   0  0  0  0  0  0  0  0  0  0  0  0
   20.4969   18.8068   24.6013 C   0  0  0  0  0  0  0  0  0  0  0  0
   20.7447   18.0323   23.8715 H   0  0  0  0  0  0  0  0  0  0  0  0
   21.4301   19.2554   24.9507 H   0  0  0  0  0  0  0  0  0  0  0  0
   19.6223   19.8796   23.9180 C   0  0  0  0  0  0  0  0  0  0  0  0
   18.6689   19.4350   23.6062 H   0  0  0  0  0  0  0  0  0  0  0  0
   19.3717   20.6635   24.6441 H   0  0  0  0  0  0  0  0  0  0  0  0
   20.3231   20.5392   22.7039 C   0  0  0  0  0  0  0  0  0  0  0  0
   21.2032   21.0927   23.0596 H   0  0  0  0  0  0  0  0  0  0  0  0
   19.6499   21.2911   22.2694 H   0  0  0  0  0  0  0  0  0  0  0  0
   20.7708   19.5555   21.5915 C   0  0  0  0  0  0  0  0  0  0  0  0
   21.2695   20.1326   20.8005 H   0  0  0  0  0  0  0  0  0  0  0  0
   21.5289   18.8642   21.9831 H   0  0  0  0  0  0  0  0  0  0  0  0
   19.6047   18.7525   20.9679 C   0  0  0  0  0  0  0  0  0  0  0  0
   18.8265   19.4428   20.6134 H   0  0  0  0  0  0  0  0  0  0  0  0
   19.1389   18.1095   21.7265 H   0  0  0  0  0  0  0  0  0  0  0  0
   20.0830   17.8733   19.7927 C   0  0  0  0  0  0  0  0  0  0  0  0
   20.5197   18.4857   18.9930 H   0  0  0  0  0  0  0  0  0  0  0  0
   19.2445   17.3090   19.3643 H   0  0  0  0  0  0  0  0  0  0  0  0
   20.8411   17.1512   20.1230 H   0  0  0  0  0  0  0  0  0  0  0  0
   19.6688   19.0689   26.9591 C   0  0  0  0  0  0  0  0  0  0  0  0
   19.2291   18.5262   27.7989 H   0  0  0  0  0  0  0  0  0  0  0  0
   20.6465   19.4622   27.2458 H   0  0  0  0  0  0  0  0  0  0  0  0
   19.0099   19.8893   26.6676 H   0  0  0  0  0  0  0  0  0  0  0  0
  1  2  1  0  0  0  0
  1  3  1  0  0  0  0
  1  4  1  0  0  0  0
  4  5  1  0  0  0  0
  4  6  1  0  0  0  0
  4  7  1  0  0  0  0
  7  8  1  0  0  0  0
  7  9  1  0  0  0  0
  7 10  1  0  0  0  0
 10 11  1  0  0  0  0
 10 12  1  0  0  0  0
 10 13  1  0  0  0  0
 13 14  1  0  0  0  0
 13 15  1  0  0  0  0
 13 16  1  0  0  0  0
 16 17  1  0  0  0  0
 16 18  1  0  0  0  0
 16 19  1  0  0  0  0
 19 20  1  0  0  0  0
 19 21  1  0  0  0  0
 19 22  1  0  0  0  0
  1 23  1  0  0  0  0
 23 24  1  0  0  0  0
 23 25  1  0  0  0  0
 23 26  1  0  0  0  0
M  END
> <VM2 Rank>
63

> <Conf_Id>
168

> <Probability>
0.49

> <Sum Probability>
87.18

> <Delta G>
1.556

> <G>
77.022

> <E>
44.350

> <-TS>
32.672

> <U+W>
22.889

> <U>
72.548

> <W>
-49.659

> <W(PB)>
-51.921

> <W(SA)>
2.262

> <Valence>
2.777

> <Coulomb>
69.321

> <VdW>
0.450

> <VdW6>
-7.543

> <VdW12>
7.993

> <Bond>
0.232

> <Angle>
0.994

> <Pdih>
1.552

> <Idih>
0.000

> <Tether>
0.000

$$$$
VeraChem MOL file


 26 25  0  0  0  0  0  0  0  0999 V2000     
   20.2767   18.1587   25.7982 N   0  3  0  0  0  0  0  0  0  0  0  0
   21.2642   17.9508   25.5840 H   0  0  0  0  0  0  0  0  0  0  0  0
   19.8612   17.2478   26.0503 H   0  0  0  0  0  0  0  0  0  0  0  0
   19.5772   18.7133   24.5685 C   0  0  0  0  0  0  0  0  0  0  0  0
   18.5507   18.9628   24.8484 H   0  0  0  0  0  0  0  0  0  0  0  0
   19.5419   17.9100   23.8286 H   0  0  0  0  0  0  0  0  0  0  0  0
   20.2642   19.9448   23.9408 C   0  0  0  0  0  0  0  0  0  0  0  0
   20.3007   20.7578   24.6771 H   0  0  0  0  0  0  0  0  0  0  0  0
   21.3069   19.7030   23.6997 H   0  0  0  0  0  0  0  0  0  0  0  0
   19.5321   20.4590   22.6759 C   0  0  0  0  0  0  0  0  0  0  0  0
   20.0694   21.3337   22.2843 H   0  0  0  0  0  0  0  0  0  0  0  0
   18.5360   20.8220   22.9650 H   0  0  0  0  0  0  0  0  0  0  0  0
   19.3700   19.4134   21.5419 C   0  0  0  0  0  0  0  0  0  0  0  0
   18.7404   18.5813   21.8843 H   0  0  0  0  0  0  0  0  0  0  0  0
   18.8224   19.8842   20.7137 H   0  0  0  0  0  0  0  0  0  0  0  0
   20.7142   18.8650   21.0073 C   0  0  0  0  0  0  0  0  0  0  0  0
   21.2453   18.3232   21.8012 H   0  0  0  0  0  0  0  0  0  0  0  0
   21.3610   19.7000   20.7033 H   0  0  0  0  0  0  0  0  0  0  0  0
   20.5056   17.9162   19.8077 C   0  0  0  0  0  0  0  0  0  0  0  0
   21.4682   17.5346   19.4433 H   0  0  0  0  0  0  0  0  0  0  0  0
   20.0121   18.4341   18.9750 H   0  0  0  0  0  0  0  0  0  0  0  0
   19.8866   17.0543   20.0892 H   0  0  0  0  0  0  0  0  0  0  0  0
   20.1680   19.1196   26.9768 C   0  0  0  0  0  0  0  0  0  0  0  0
   20.6476   18.6702   27.8492 H   0  0  0  0  0  0  0  0  0  0  0  0
   20.6675   20.0576   26.7265 H   0  0  0  0  0  0  0  0  0  0  0  0
   19.1135   19.3065   27.1912 H   0  0  0  0  0  0  0  0  0  0  0  0
  1  2  1  0  0  0  0
  1  3  1  0  0  0  0
  1  4  1  0  0  0  0
  4  5  1  0  0  0  0
  4  6  1  0  0  0  0
  4  7  1  0  0  0  0
  7  8  1  0  0  0  0
  7  9  1  0  0  0  0
  7 10  1  0  0  0  0
 10 11  1  0  0  0  0
 10 12  1  0  0  0  0
 10 13  1  0  0  0  0
 13 14  1  0  0  0  0
 13 15  1  0  0  0  0
 13 16  1  0  0  0  0
 16 17  1  0  0  0  0
 16 18  1  0  0  0  0
 16 19  1  0  0  0  0
 19 20  1  0  0  0  0
 19 21  1  0  0  0  0
 19 22  1  0  0  0  0
  1 23  1  0  0  0  0
 23 24  1  0  0  0  0
 23 25  1  0  0  0  0
 23 26  1  0  0  0  0
M  END
> <VM2 Rank>
64

> <Conf_Id>
207

> <Probability>
0.49

> <Sum Probability>
87.67

> <Delta G>
1.564

> <G>
77.030

> <E>
44.358

> <-TS>
32.672

> <U+W>
22.896

> <U>
72.548

> <W>
-49.652

> <W(PB)>
-51.931

> <W(SA)>
2.279

> <Valence>
2.777

> <Coulomb>
69.321

> <VdW>
0.450

> <VdW6>
-7.543

> <VdW12>
7.993

> <Bond>
0.232

> <Angle>
0.994

> <Pdih>
1.552

> <Idih>
0.000

> <Tether>
0.000

$$$$
VeraChem MOL file


 26 25  0  0  0  0  0  0  0  0999 V2000     
   20.1849   18.3306   26.1372 N   0  3  0  0  0  0  0  0  0  0  0  0
   20.9683   17.7213   25.8554 H   0  0  0  0  0  0  0  0  0  0  0  0
   19.6637   17.7853   26.8421 H   0  0  0  0  0  0  0  0  0  0  0  0
   19.2845   18.6137   24.9462 C   0  0  0  0  0  0  0  0  0  0  0  0
   18.4919   19.2896   25.2768 H   0  0  0  0  0  0  0  0  0  0  0  0
   18.8230   17.6664   24.6559 H   0  0  0  0  0  0  0  0  0  0  0  0
   20.0089   19.2130   23.7238 C   0  0  0  0  0  0  0  0  0  0  0  0
   20.4494   20.1820   23.9912 H   0  0  0  0  0  0  0  0  0  0  0  0
   20.8345   18.5492   23.4380 H   0  0  0  0  0  0  0  0  0  0  0  0
   19.0403   19.3984   22.5323 C   0  0  0  0  0  0  0  0  0  0  0  0
   18.1811   19.9990   22.8617 H   0  0  0  0  0  0  0  0  0  0  0  0
   18.6298   18.4250   22.2322 H   0  0  0  0  0  0  0  0  0  0  0  0
   19.6867   20.1004   21.3098 C   0  0  0  0  0  0  0  0  0  0  0  0
   18.9221   20.2260   20.5308 H   0  0  0  0  0  0  0  0  0  0  0  0
   19.9888   21.1162   21.5997 H   0  0  0  0  0  0  0  0  0  0  0  0
   20.9102   19.3714   20.6974 C   0  0  0  0  0  0  0  0  0  0  0  0
   21.7363   19.3425   21.4204 H   0  0  0  0  0  0  0  0  0  0  0  0
   21.2779   19.9611   19.8460 H   0  0  0  0  0  0  0  0  0  0  0  0
   20.5926   17.9394   20.2100 C   0  0  0  0  0  0  0  0  0  0  0  0
   21.4632   17.5039   19.7029 H   0  0  0  0  0  0  0  0  0  0  0  0
   19.7561   17.9409   19.4993 H   0  0  0  0  0  0  0  0  0  0  0  0
   20.3328   17.2782   21.0460 H   0  0  0  0  0  0  0  0  0  0  0  0
   20.7000   19.6232   26.7602 C   0  0  0  0  0  0  0  0  0  0  0  0
   21.3109   19.3804   27.6326 H   0  0  0  0  0  0  0  0  0  0  0  0
   21.3043   20.1622   26.0279 H   0  0  0  0  0  0  0  0  0  0  0  0
   19.8503   20.2380   27.0648 H   0  0  0  0  0  0  0  0  0  0  0  0
  1  2  1  0  0  0  0
  1  3  1  0  0  0  0
  1  4  1  0  0  0  0
  4  5  1  0  0  0  0
  4  6  1  0  0  0  0
  4  7  1  0  0  0  0
  7  8  1  0  0  0  0
  7  9  1  0  0  0  0
  7 10  1  0  0  0  0
 10 11  1  0  0  0  0
 10 12  1  0  0  0  0
 10 13  1  0  0  0  0
 13 14  1  0  0  0  0
 13 15  1  0  0  0  0
 13 16  1  0  0  0  0
 16 17  1  0  0  0  0
 16 18  1  0  0  0  0
 16 19  1  0  0  0  0
 19 20  1  0  0  0  0
 19 21  1  0  0  0  0
 19 22  1  0  0  0  0
  1 23  1  0  0  0  0
 23 24  1  0  0  0  0
 23 25  1  0  0  0  0
 23 26  1  0  0  0  0
M  END
> <VM2 Rank>
65

> <Conf_Id>
1004

> <Probability>
0.48

> <Sum Probability>
88.15

> <Delta G>
1.567

> <G>
77.034

> <E>
44.273

> <-TS>
32.760

> <U+W>
22.811

> <U>
72.256

> <W>
-49.445

> <W(PB)>
-51.706

> <W(SA)>
2.261

> <Valence>
2.959

> <Coulomb>
68.784

> <VdW>
0.514

> <VdW6>
-7.552

> <VdW12>
8.066

> <Bond>
0.241

> <Angle>
1.124

> <Pdih>
1.594

> <Idih>
0.000

> <Tether>
0.000

$$$$
VeraChem MOL file


 26 25  0  0  0  0  0  0  0  0999 V2000     
   20.5622   18.8383   26.3067 N   0  3  0  0  0  0  0  0  0  0  0  0
   21.4303   19.1547   26.7673 H   0  0  0  0  0  0  0  0  0  0  0  0
   20.6147   17.8080   26.3191 H   0  0  0  0  0  0  0  0  0  0  0  0
   20.5329   19.3457   24.8746 C   0  0  0  0  0  0  0  0  0  0  0  0
   21.5029   19.1101   24.4309 H   0  0  0  0  0  0  0  0  0  0  0  0
   20.4285   20.4332   24.9049 H   0  0  0  0  0  0  0  0  0  0  0  0
   19.4155   18.7353   24.0013 C   0  0  0  0  0  0  0  0  0  0  0  0
   19.5062   17.6411   23.9978 H   0  0  0  0  0  0  0  0  0  0  0  0
   18.4389   18.9675   24.4451 H   0  0  0  0  0  0  0  0  0  0  0  0
   19.4353   19.2632   22.5470 C   0  0  0  0  0  0  0  0  0  0  0  0
   19.3389   20.3578   22.5535 H   0  0  0  0  0  0  0  0  0  0  0  0
   18.5479   18.8759   22.0298 H   0  0  0  0  0  0  0  0  0  0  0  0
   20.7110   18.8542   21.7670 C   0  0  0  0  0  0  0  0  0  0  0  0
   21.5996   19.2229   22.2959 H   0  0  0  0  0  0  0  0  0  0  0  0
   20.7967   17.7590   21.7451 H   0  0  0  0  0  0  0  0  0  0  0  0
   20.7511   19.4035   20.3201 C   0  0  0  0  0  0  0  0  0  0  0  0
   21.7315   19.1694   19.8821 H   0  0  0  0  0  0  0  0  0  0  0  0
   20.6765   20.4998   20.3363 H   0  0  0  0  0  0  0  0  0  0  0  0
   19.6481   18.8202   19.4074 C   0  0  0  0  0  0  0  0  0  0  0  0
   19.7823   19.1661   18.3743 H   0  0  0  0  0  0  0  0  0  0  0  0
   18.6479   19.1331   19.7313 H   0  0  0  0  0  0  0  0  0  0  0  0
   19.6804   17.7230   19.4002 H   0  0  0  0  0  0  0  0  0  0  0  0
   19.3519   19.3296   27.0929 C   0  0  0  0  0  0  0  0  0  0  0  0
   18.4406   18.9361   26.6383 H   0  0  0  0  0  0  0  0  0  0  0  0
   19.4290   18.9774   28.1239 H   0  0  0  0  0  0  0  0  0  0  0  0
   19.3329   20.4215   27.0768 H   0  0  0  0  0  0  0  0  0  0  0  0
  1  2  1  0  0  0  0
  1  3  1  0  0  0  0
  1  4  1  0  0  0  0
  4  5  1  0  0  0  0
  4  6  1  0  0  0  0
  4  7  1  0  0  0  0
  7  8  1  0  0  0  0
  7  9  1  0  0  0  0
  7 10  1  0  0  0  0
 10 11  1  0  0  0  0
 10 12  1  0  0  0  0
 10 13  1  0  0  0  0
 13 14  1  0  0  0  0
 13 15  1  0  0  0  0
 13 16  1  0  0  0  0
 16 17  1  0  0  0  0
 16 18  1  0  0  0  0
 16 19  1  0  0  0  0
 19 20  1  0  0  0  0
 19 21  1  0  0  0  0
 19 22  1  0  0  0  0
  1 23  1  0  0  0  0
 23 24  1  0  0  0  0
 23 25  1  0  0  0  0
 23 26  1  0  0  0  0
M  END
> <VM2 Rank>
66

> <Conf_Id>
1215

> <Probability>
0.48

> <Sum Probability>
88.64

> <Delta G>
1.568

> <G>
77.035

> <E>
44.525

> <-TS>
32.510

> <U+W>
23.063

> <U>
72.298

> <W>
-49.235

> <W(PB)>
-51.503

> <W(SA)>
2.268

> <Valence>
2.869

> <Coulomb>
68.765

> <VdW>
0.665

> <VdW6>
-7.141

> <VdW12>
7.806

> <Bond>
0.231

> <Angle>
0.882

> <Pdih>
1.756

> <Idih>
0.000

> <Tether>
0.000

$$$$
VeraChem MOL file


 26 25  0  0  0  0  0  0  0  0999 V2000     
   19.3880   18.7181   26.2651 N   0  3  0  0  0  0  0  0  0  0  0  0
   19.5443   17.6984   26.2812 H   0  0  0  0  0  0  0  0  0  0  0  0
   18.4438   18.8491   26.6615 H   0  0  0  0  0  0  0  0  0  0  0  0
   19.4143   19.2313   24.8350 C   0  0  0  0  0  0  0  0  0  0  0  0
   19.2943   20.3171   24.8647 H   0  0  0  0  0  0  0  0  0  0  0  0
   18.5454   18.8075   24.3261 H   0  0  0  0  0  0  0  0  0  0  0  0
   20.6903   18.8656   24.0464 C   0  0  0  0  0  0  0  0  0  0  0  0
   21.5663   19.2871   24.5559 H   0  0  0  0  0  0  0  0  0  0  0  0
   20.8231   17.7757   24.0444 H   0  0  0  0  0  0  0  0  0  0  0  0
   20.6662   19.3891   22.5906 C   0  0  0  0  0  0  0  0  0  0  0  0
   21.6475   19.1927   22.1396 H   0  0  0  0  0  0  0  0  0  0  0  0
   20.5389   20.4805   22.5961 H   0  0  0  0  0  0  0  0  0  0  0  0
   19.5572   18.7365   21.7262 C   0  0  0  0  0  0  0  0  0  0  0  0
   19.6960   17.6467   21.7062 H   0  0  0  0  0  0  0  0  0  0  0  0
   18.5776   18.9146   22.1888 H   0  0  0  0  0  0  0  0  0  0  0  0
   19.5085   19.2766   20.2761 C   0  0  0  0  0  0  0  0  0  0  0  0
   19.3590   20.3654   20.2895 H   0  0  0  0  0  0  0  0  0  0  0  0
   18.6286   18.8526   19.7722 H   0  0  0  0  0  0  0  0  0  0  0  0
   20.7676   18.9343   19.4471 C   0  0  0  0  0  0  0  0  0  0  0  0
   20.6392   19.2533   18.4047 H   0  0  0  0  0  0  0  0  0  0  0  0
   20.9580   17.8532   19.4456 H   0  0  0  0  0  0  0  0  0  0  0  0
   21.6589   19.4404   19.8379 H   0  0  0  0  0  0  0  0  0  0  0  0
   20.4158   19.4385   27.1306 C   0  0  0  0  0  0  0  0  0  0  0  0
   20.2146   20.5117   27.1081 H   0  0  0  0  0  0  0  0  0  0  0  0
   20.3396   19.0705   28.1562 H   0  0  0  0  0  0  0  0  0  0  0  0
   21.4174   19.2407   26.7437 H   0  0  0  0  0  0  0  0  0  0  0  0
  1  2  1  0  0  0  0
  1  3  1  0  0  0  0
  1  4  1  0  0  0  0
  4  5  1  0  0  0  0
  4  6  1  0  0  0  0
  4  7  1  0  0  0  0
  7  8  1  0  0  0  0
  7  9  1  0  0  0  0
  7 10  1  0  0  0  0
 10 11  1  0  0  0  0
 10 12  1  0  0  0  0
 10 13  1  0  0  0  0
 13 14  1  0  0  0  0
 13 15  1  0  0  0  0
 13 16  1  0  0  0  0
 16 17  1  0  0  0  0
 16 18  1  0  0  0  0
 16 19  1  0  0  0  0
 19 20  1  0  0  0  0
 19 21  1  0  0  0  0
 19 22  1  0  0  0  0
  1 23  1  0  0  0  0
 23 24  1  0  0  0  0
 23 25  1  0  0  0  0
 23 26  1  0  0  0  0
M  END
> <VM2 Rank>
67

> <Conf_Id>
1470

> <Probability>
0.47

> <Sum Probability>
89.10

> <Delta G>
1.589

> <G>
77.055

> <E>
44.545

> <-TS>
32.510

> <U+W>
23.084

> <U>
72.298

> <W>
-49.215

> <W(PB)>
-51.499

> <W(SA)>
2.284

> <Valence>
2.869

> <Coulomb>
68.765

> <VdW>
0.665

> <VdW6>
-7.141

> <VdW12>
7.806

> <Bond>
0.231

> <Angle>
0.882

> <Pdih>
1.756

> <Idih>
0.000

> <Tether>
0.000

$$$$
VeraChem MOL file


 26 25  0  0  0  0  0  0  0  0999 V2000     
   19.4891   18.6618   25.8530 N   0  3  0  0  0  0  0  0  0  0  0  0
   20.0518   17.9295   26.3133 H   0  0  0  0  0  0  0  0  0  0  0  0
   18.6347   18.1857   25.5244 H   0  0  0  0  0  0  0  0  0  0  0  0
   20.2489   19.2436   24.6781 C   0  0  0  0  0  0  0  0  0  0  0  0
   21.1497   19.7257   25.0660 H   0  0  0  0  0  0  0  0  0  0  0  0
   19.6183   20.0090   24.2195 H   0  0  0  0  0  0  0  0  0  0  0  0
   20.6382   18.1911   23.6226 C   0  0  0  0  0  0  0  0  0  0  0  0
   21.2414   17.4081   24.1010 H   0  0  0  0  0  0  0  0  0  0  0  0
   19.7353   17.6959   23.2432 H   0  0  0  0  0  0  0  0  0  0  0  0
   21.4448   18.7951   22.4463 C   0  0  0  0  0  0  0  0  0  0  0  0
   21.7065   17.9944   21.7417 H   0  0  0  0  0  0  0  0  0  0  0  0
   22.4016   19.1751   22.8304 H   0  0  0  0  0  0  0  0  0  0  0  0
   20.7268   19.9423   21.6851 C   0  0  0  0  0  0  0  0  0  0  0  0
   20.6168   20.8091   22.3506 H   0  0  0  0  0  0  0  0  0  0  0  0
   21.3770   20.2804   20.8665 H   0  0  0  0  0  0  0  0  0  0  0  0
   19.3375   19.5785   21.1019 C   0  0  0  0  0  0  0  0  0  0  0  0
   18.9251   20.4653   20.6007 H   0  0  0  0  0  0  0  0  0  0  0  0
   18.6361   19.3386   21.9123 H   0  0  0  0  0  0  0  0  0  0  0  0
   19.3840   18.4117   20.0893 C   0  0  0  0  0  0  0  0  0  0  0  0
   20.0885   18.6242   19.2748 H   0  0  0  0  0  0  0  0  0  0  0  0
   18.3942   18.2498   19.6433 H   0  0  0  0  0  0  0  0  0  0  0  0
   19.6872   17.4733   20.5699 H   0  0  0  0  0  0  0  0  0  0  0  0
   19.1388   19.7659   26.8408 C   0  0  0  0  0  0  0  0  0  0  0  0
   18.5165   20.5113   26.3405 H   0  0  0  0  0  0  0  0  0  0  0  0
   18.5924   19.3338   27.6821 H   0  0  0  0  0  0  0  0  0  0  0  0
   20.0591   20.2324   27.1992 H   0  0  0  0  0  0  0  0  0  0  0  0
  1  2  1  0  0  0  0
  1  3  1  0  0  0  0
  1  4  1  0  0  0  0
  4  5  1  0  0  0  0
  4  6  1  0  0  0  0
  4  7  1  0  0  0  0
  7  8  1  0  0  0  0
  7  9  1  0  0  0  0
  7 10  1  0  0  0  0
 10 11  1  0  0  0  0
 10 12  1  0  0  0  0
 10 13  1  0  0  0  0
 13 14  1  0  0  0  0
 13 15  1  0  0  0  0
 13 16  1  0  0  0  0
 16 17  1  0  0  0  0
 16 18  1  0  0  0  0
 16 19  1  0  0  0  0
 19 20  1  0  0  0  0
 19 21  1  0  0  0  0
 19 22  1  0  0  0  0
  1 23  1  0  0  0  0
 23 24  1  0  0  0  0
 23 25  1  0  0  0  0
 23 26  1  0  0  0  0
M  END
> <VM2 Rank>
68

> <Conf_Id>
170

> <Probability>
0.39

> <Sum Probability>
89.50

> <Delta G>
1.691

> <G>
77.157

> <E>
44.329

> <-TS>
32.829

> <U+W>
22.867

> <U>
72.455

> <W>
-49.588

> <W(PB)>
-51.822

> <W(SA)>
2.234

> <Valence>
2.909

> <Coulomb>
69.435

> <VdW>
0.111

> <VdW6>
-7.765

> <VdW12>
7.876

> <Bond>
0.233

> <Angle>
1.170

> <Pdih>
1.506

> <Idih>
0.000

> <Tether>
0.000

$$$$
VeraChem MOL file


 26 25  0  0  0  0  0  0  0  0999 V2000     
   20.2795   18.9160   25.6473 N   0  3  0  0  0  0  0  0  0  0  0  0
   20.9362   18.2754   25.1769 H   0  0  0  0  0  0  0  0  0  0  0  0
   19.6982   18.3188   26.2556 H   0  0  0  0  0  0  0  0  0  0  0  0
   19.4114   19.6141   24.6189 C   0  0  0  0  0  0  0  0  0  0  0  0
   20.0587   20.2419   24.0019 H   0  0  0  0  0  0  0  0  0  0  0  0
   18.7184   20.2656   25.1573 H   0  0  0  0  0  0  0  0  0  0  0  0
   18.6139   18.6480   23.7191 C   0  0  0  0  0  0  0  0  0  0  0  0
   17.9377   18.0499   24.3441 H   0  0  0  0  0  0  0  0  0  0  0  0
   17.9661   19.2358   23.0563 H   0  0  0  0  0  0  0  0  0  0  0  0
   19.5015   17.6975   22.8728 C   0  0  0  0  0  0  0  0  0  0  0  0
   18.8528   17.0877   22.2289 H   0  0  0  0  0  0  0  0  0  0  0  0
   20.0093   16.9868   23.5385 H   0  0  0  0  0  0  0  0  0  0  0  0
   20.5643   18.4066   21.9937 C   0  0  0  0  0  0  0  0  0  0  0  0
   21.2817   18.9438   22.6285 H   0  0  0  0  0  0  0  0  0  0  0  0
   21.1453   17.6380   21.4654 H   0  0  0  0  0  0  0  0  0  0  0  0
   19.9579   19.3796   20.9551 C   0  0  0  0  0  0  0  0  0  0  0  0
   19.4292   20.1964   21.4642 H   0  0  0  0  0  0  0  0  0  0  0  0
   19.2139   18.8516   20.3423 H   0  0  0  0  0  0  0  0  0  0  0  0
   21.0432   19.9814   20.0371 C   0  0  0  0  0  0  0  0  0  0  0  0
   21.7860   20.5423   20.6192 H   0  0  0  0  0  0  0  0  0  0  0  0
   20.5963   20.6703   19.3086 H   0  0  0  0  0  0  0  0  0  0  0  0
   21.5687   19.1959   19.4786 H   0  0  0  0  0  0  0  0  0  0  0  0
   21.0363   19.9467   26.4730 C   0  0  0  0  0  0  0  0  0  0  0  0
   20.3197   20.5931   26.9846 H   0  0  0  0  0  0  0  0  0  0  0  0
   21.6577   19.4306   27.2082 H   0  0  0  0  0  0  0  0  0  0  0  0
   21.6669   20.5443   25.8112 H   0  0  0  0  0  0  0  0  0  0  0  0
  1  2  1  0  0  0  0
  1  3  1  0  0  0  0
  1  4  1  0  0  0  0
  4  5  1  0  0  0  0
  4  6  1  0  0  0  0
  4  7  1  0  0  0  0
  7  8  1  0  0  0  0
  7  9  1  0  0  0  0
  7 10  1  0  0  0  0
 10 11  1  0  0  0  0
 10 12  1  0  0  0  0
 10 13  1  0  0  0  0
 13 14  1  0  0  0  0
 13 15  1  0  0  0  0
 13 16  1  0  0  0  0
 16 17  1  0  0  0  0
 16 18  1  0  0  0  0
 16 19  1  0  0  0  0
 19 20  1  0  0  0  0
 19 21  1  0  0  0  0
 19 22  1  0  0  0  0
  1 23  1  0  0  0  0
 23 24  1  0  0  0  0
 23 25  1  0  0  0  0
 23 26  1  0  0  0  0
M  END
> <VM2 Rank>
69

> <Conf_Id>
79

> <Probability>
0.38

> <Sum Probability>
89.87

> <Delta G>
1.715

> <G>
77.181

> <E>
44.473

> <-TS>
32.708

> <U+W>
23.011

> <U>
72.452

> <W>
-49.441

> <W(PB)>
-51.700

> <W(SA)>
2.259

> <Valence>
2.611

> <Coulomb>
69.807

> <VdW>
0.035

> <VdW6>
-7.730

> <VdW12>
7.764

> <Bond>
0.213

> <Angle>
0.953

> <Pdih>
1.445

> <Idih>
0.000

> <Tether>
0.000

$$$$
VeraChem MOL file


 26 25  0  0  0  0  0  0  0  0999 V2000     
   19.7713   18.8273   25.9222 N   0  3  0  0  0  0  0  0  0  0  0  0
   20.2973   17.9554   26.0888 H   0  0  0  0  0  0  0  0  0  0  0  0
   18.8627   18.5320   25.5345 H   0  0  0  0  0  0  0  0  0  0  0  0
   20.5073   19.6974   24.9216 C   0  0  0  0  0  0  0  0  0  0  0  0
   21.4594   19.9854   25.3746 H   0  0  0  0  0  0  0  0  0  0  0  0
   19.9171   20.6036   24.7632 H   0  0  0  0  0  0  0  0  0  0  0  0
   20.7742   19.0091   23.5683 C   0  0  0  0  0  0  0  0  0  0  0  0
   21.4094   19.6747   22.9707 H   0  0  0  0  0  0  0  0  0  0  0  0
   21.3494   18.0882   23.7320 H   0  0  0  0  0  0  0  0  0  0  0  0
   19.4717   18.6926   22.7912 C   0  0  0  0  0  0  0  0  0  0  0  0
   18.9110   19.6200   22.6139 H   0  0  0  0  0  0  0  0  0  0  0  0
   18.8213   18.0608   23.4101 H   0  0  0  0  0  0  0  0  0  0  0  0
   19.7148   17.9565   21.4478 C   0  0  0  0  0  0  0  0  0  0  0  0
   20.1806   16.9828   21.6531 H   0  0  0  0  0  0  0  0  0  0  0  0
   18.7419   17.7322   20.9890 H   0  0  0  0  0  0  0  0  0  0  0  0
   20.5874   18.7202   20.4189 C   0  0  0  0  0  0  0  0  0  0  0  0
   20.6816   18.1028   19.5147 H   0  0  0  0  0  0  0  0  0  0  0  0
   21.6086   18.8441   20.8035 H   0  0  0  0  0  0  0  0  0  0  0  0
   20.0083   20.0972   20.0221 C   0  0  0  0  0  0  0  0  0  0  0  0
   18.9793   20.0008   19.6520 H   0  0  0  0  0  0  0  0  0  0  0  0
   20.6104   20.5524   19.2251 H   0  0  0  0  0  0  0  0  0  0  0  0
   20.0052   20.7922   20.8709 H   0  0  0  0  0  0  0  0  0  0  0  0
   19.5730   19.5896   27.2249 C   0  0  0  0  0  0  0  0  0  0  0  0
   18.9875   20.4904   27.0284 H   0  0  0  0  0  0  0  0  0  0  0  0
   19.0423   18.9523   27.9358 H   0  0  0  0  0  0  0  0  0  0  0  0
   20.5485   19.8639   27.6324 H   0  0  0  0  0  0  0  0  0  0  0  0
  1  2  1  0  0  0  0
  1  3  1  0  0  0  0
  1  4  1  0  0  0  0
  4  5  1  0  0  0  0
  4  6  1  0  0  0  0
  4  7  1  0  0  0  0
  7  8  1  0  0  0  0
  7  9  1  0  0  0  0
  7 10  1  0  0  0  0
 10 11  1  0  0  0  0
 10 12  1  0  0  0  0
 10 13  1  0  0  0  0
 13 14  1  0  0  0  0
 13 15  1  0  0  0  0
 13 16  1  0  0  0  0
 16 17  1  0  0  0  0
 16 18  1  0  0  0  0
 16 19  1  0  0  0  0
 19 20  1  0  0  0  0
 19 21  1  0  0  0  0
 19 22  1  0  0  0  0
  1 23  1  0  0  0  0
 23 24  1  0  0  0  0
 23 25  1  0  0  0  0
 23 26  1  0  0  0  0
M  END
> <VM2 Rank>
70

> <Conf_Id>
208

> <Probability>
0.37

> <Sum Probability>
90.24

> <Delta G>
1.726

> <G>
77.193

> <E>
44.522

> <-TS>
32.671

> <U+W>
23.060

> <U>
72.391

> <W>
-49.331

> <W(PB)>
-51.596

> <W(SA)>
2.265

> <Valence>
2.830

> <Coulomb>
69.222

> <VdW>
0.339

> <VdW6>
-7.379

> <VdW12>
7.718

> <Bond>
0.228

> <Angle>
1.104

> <Pdih>
1.497

> <Idih>
0.000

> <Tether>
0.000

$$$$
VeraChem MOL file


 26 25  0  0  0  0  0  0  0  0999 V2000     
   19.6950   18.8557   25.6263 N   0  3  0  0  0  0  0  0  0  0  0  0
   20.3417   18.3853   26.2783 H   0  0  0  0  0  0  0  0  0  0  0  0
   19.2174   18.0980   25.1156 H   0  0  0  0  0  0  0  0  0  0  0  0
   20.4725   19.7236   24.6564 C   0  0  0  0  0  0  0  0  0  0  0  0
   20.9786   20.4987   25.2374 H   0  0  0  0  0  0  0  0  0  0  0  0
   19.7557   20.2107   23.9910 H   0  0  0  0  0  0  0  0  0  0  0  0
   21.5113   18.9470   23.8217 C   0  0  0  0  0  0  0  0  0  0  0  0
   22.0704   19.6593   23.2016 H   0  0  0  0  0  0  0  0  0  0  0  0
   22.2498   18.4949   24.4968 H   0  0  0  0  0  0  0  0  0  0  0  0
   20.8978   17.8415   22.9222 C   0  0  0  0  0  0  0  0  0  0  0  0
   20.5004   17.0373   23.5559 H   0  0  0  0  0  0  0  0  0  0  0  0
   21.7007   17.3817   22.3296 H   0  0  0  0  0  0  0  0  0  0  0  0
   19.7766   18.3252   21.9660 C   0  0  0  0  0  0  0  0  0  0  0  0
   19.4032   17.4581   21.4037 H   0  0  0  0  0  0  0  0  0  0  0  0
   18.9222   18.6999   22.5452 H   0  0  0  0  0  0  0  0  0  0  0  0
   20.2427   19.4091   20.9654 C   0  0  0  0  0  0  0  0  0  0  0  0
   21.1197   19.0486   20.4099 H   0  0  0  0  0  0  0  0  0  0  0  0
   20.5567   20.3128   21.5045 H   0  0  0  0  0  0  0  0  0  0  0  0
   19.1243   19.7835   19.9696 C   0  0  0  0  0  0  0  0  0  0  0  0
   18.8105   18.9114   19.3813 H   0  0  0  0  0  0  0  0  0  0  0  0
   19.4709   20.5545   19.2693 H   0  0  0  0  0  0  0  0  0  0  0  0
   18.2438   20.1766   20.4945 H   0  0  0  0  0  0  0  0  0  0  0  0
   18.6878   19.7044   26.3894 C   0  0  0  0  0  0  0  0  0  0  0  0
   17.9966   20.1656   25.6806 H   0  0  0  0  0  0  0  0  0  0  0  0
   18.1347   19.0671   27.0829 H   0  0  0  0  0  0  0  0  0  0  0  0
   19.2198   20.4796   26.9453 H   0  0  0  0  0  0  0  0  0  0  0  0
  1  2  1  0  0  0  0
  1  3  1  0  0  0  0
  1  4  1  0  0  0  0
  4  5  1  0  0  0  0
  4  6  1  0  0  0  0
  4  7  1  0  0  0  0
  7  8  1  0  0  0  0
  7  9  1  0  0  0  0
  7 10  1  0  0  0  0
 10 11  1  0  0  0  0
 10 12  1  0  0  0  0
 10 13  1  0  0  0  0
 13 14  1  0  0  0  0
 13 15  1  0  0  0  0
 13 16  1  0  0  0  0
 16 17  1  0  0  0  0
 16 18  1  0  0  0  0
 16 19  1  0  0  0  0
 19 20  1  0  0  0  0
 19 21  1  0  0  0  0
 19 22  1  0  0  0  0
  1 23  1  0  0  0  0
 23 24  1  0  0  0  0
 23 25  1  0  0  0  0
 23 26  1  0  0  0  0
M  END
> <VM2 Rank>
71

> <Conf_Id>
134

> <Probability>
0.37

> <Sum Probability>
90.61

> <Delta G>
1.735

> <G>
77.202

> <E>
44.493

> <-TS>
32.709

> <U+W>
23.031

> <U>
72.453

> <W>
-49.422

> <W(PB)>
-51.689

> <W(SA)>
2.268

> <Valence>
2.611

> <Coulomb>
69.807

> <VdW>
0.035

> <VdW6>
-7.731

> <VdW12>
7.765

> <Bond>
0.213

> <Angle>
0.953

> <Pdih>
1.445

> <Idih>
0.000

> <Tether>
0.000

$$$$
VeraChem MOL file


 26 25  0  0  0  0  0  0  0  0999 V2000     
   20.5037   18.7657   25.8889 N   0  3  0  0  0  0  0  0  0  0  0  0
   21.4576   18.4748   25.6244 H   0  0  0  0  0  0  0  0  0  0  0  0
   20.0700   17.9315   26.3140 H   0  0  0  0  0  0  0  0  0  0  0  0
   19.7260   19.1900   24.6596 C   0  0  0  0  0  0  0  0  0  0  0  0
   20.2191   20.0706   24.2408 H   0  0  0  0  0  0  0  0  0  0  0  0
   18.7214   19.4770   24.9800 H   0  0  0  0  0  0  0  0  0  0  0  0
   19.6328   18.0881   23.5870 C   0  0  0  0  0  0  0  0  0  0  0  0
   20.6416   17.7886   23.2753 H   0  0  0  0  0  0  0  0  0  0  0  0
   19.1687   17.1958   24.0277 H   0  0  0  0  0  0  0  0  0  0  0  0
   18.8050   18.5246   22.3528 C   0  0  0  0  0  0  0  0  0  0  0  0
   17.7666   18.7002   22.6661 H   0  0  0  0  0  0  0  0  0  0  0  0
   18.7610   17.6926   21.6374 H   0  0  0  0  0  0  0  0  0  0  0  0
   19.3274   19.7989   21.6355 C   0  0  0  0  0  0  0  0  0  0  0  0
   18.6811   20.0042   20.7710 H   0  0  0  0  0  0  0  0  0  0  0  0
   19.2127   20.6652   22.3009 H   0  0  0  0  0  0  0  0  0  0  0  0
   20.7990   19.7282   21.1537 C   0  0  0  0  0  0  0  0  0  0  0  0
   21.4758   19.6294   22.0129 H   0  0  0  0  0  0  0  0  0  0  0  0
   21.0573   20.6838   20.6764 H   0  0  0  0  0  0  0  0  0  0  0  0
   21.0607   18.5836   20.1487 C   0  0  0  0  0  0  0  0  0  0  0  0
   22.0916   18.6286   19.7743 H   0  0  0  0  0  0  0  0  0  0  0  0
   20.3867   18.6550   19.2852 H   0  0  0  0  0  0  0  0  0  0  0  0
   20.9207   17.5998   20.6134 H   0  0  0  0  0  0  0  0  0  0  0  0
   20.5533   19.9109   26.8908 C   0  0  0  0  0  0  0  0  0  0  0  0
   19.5349   20.1789   27.1805 H   0  0  0  0  0  0  0  0  0  0  0  0
   21.1155   19.5924   27.7714 H   0  0  0  0  0  0  0  0  0  0  0  0
   21.0454   20.7702   26.4299 H   0  0  0  0  0  0  0  0  0  0  0  0
  1  2  1  0  0  0  0
  1  3  1  0  0  0  0
  1  4  1  0  0  0  0
  4  5  1  0  0  0  0
  4  6  1  0  0  0  0
  4  7  1  0  0  0  0
  7  8  1  0  0  0  0
  7  9  1  0  0  0  0
  7 10  1  0  0  0  0
 10 11  1  0  0  0  0
 10 12  1  0  0  0  0
 10 13  1  0  0  0  0
 13 14  1  0  0  0  0
 13 15  1  0  0  0  0
 13 16  1  0  0  0  0
 16 17  1  0  0  0  0
 16 18  1  0  0  0  0
 16 19  1  0  0  0  0
 19 20  1  0  0  0  0
 19 21  1  0  0  0  0
 19 22  1  0  0  0  0
  1 23  1  0  0  0  0
 23 24  1  0  0  0  0
 23 25  1  0  0  0  0
 23 26  1  0  0  0  0
M  END
> <VM2 Rank>
72

> <Conf_Id>
210

> <Probability>
0.35

> <Sum Probability>
90.96

> <Delta G>
1.760

> <G>
77.227

> <E>
44.398

> <-TS>
32.829

> <U+W>
22.937

> <U>
72.454

> <W>
-49.518

> <W(PB)>
-51.795

> <W(SA)>
2.277

> <Valence>
2.909

> <Coulomb>
69.435

> <VdW>
0.111

> <VdW6>
-7.765

> <VdW12>
7.876

> <Bond>
0.233

> <Angle>
1.170

> <Pdih>
1.506

> <Idih>
0.000

> <Tether>
0.000

$$$$
VeraChem MOL file


 26 25  0  0  0  0  0  0  0  0999 V2000     
   20.1901   18.8704   25.9370 N   0  3  0  0  0  0  0  0  0  0  0  0
   21.1645   18.7685   25.6159 H   0  0  0  0  0  0  0  0  0  0  0  0
   19.8417   17.9087   26.0726 H   0  0  0  0  0  0  0  0  0  0  0  0
   19.3645   19.5801   24.8811 C   0  0  0  0  0  0  0  0  0  0  0  0
   19.7680   20.5883   24.7579 H   0  0  0  0  0  0  0  0  0  0  0  0
   18.3445   19.6655   25.2644 H   0  0  0  0  0  0  0  0  0  0  0  0
   19.3381   18.8616   23.5175 C   0  0  0  0  0  0  0  0  0  0  0  0
   18.9517   17.8420   23.6472 H   0  0  0  0  0  0  0  0  0  0  0  0
   18.6245   19.3888   22.8721 H   0  0  0  0  0  0  0  0  0  0  0  0
   20.7289   18.8213   22.8357 C   0  0  0  0  0  0  0  0  0  0  0  0
   21.4489   18.3300   23.5032 H   0  0  0  0  0  0  0  0  0  0  0  0
   21.1010   19.8444   22.6916 H   0  0  0  0  0  0  0  0  0  0  0  0
   20.7347   18.0610   21.4839 C   0  0  0  0  0  0  0  0  0  0  0  0
   21.7625   18.0419   21.0959 H   0  0  0  0  0  0  0  0  0  0  0  0
   20.4626   17.0117   21.6630 H   0  0  0  0  0  0  0  0  0  0  0  0
   19.7996   18.6396   20.3910 C   0  0  0  0  0  0  0  0  0  0  0  0
   18.7502   18.5513   20.7022 H   0  0  0  0  0  0  0  0  0  0  0  0
   19.8960   18.0224   19.4868 H   0  0  0  0  0  0  0  0  0  0  0  0
   20.1142   20.1082   20.0259 C   0  0  0  0  0  0  0  0  0  0  0  0
   19.4897   20.4378   19.1855 H   0  0  0  0  0  0  0  0  0  0  0  0
   21.1647   20.2249   19.7295 H   0  0  0  0  0  0  0  0  0  0  0  0
   19.9171   20.7833   20.8679 H   0  0  0  0  0  0  0  0  0  0  0  0
   20.1378   19.6477   27.2449 C   0  0  0  0  0  0  0  0  0  0  0  0
   20.5405   20.6501   27.0832 H   0  0  0  0  0  0  0  0  0  0  0  0
   19.1009   19.7153   27.5812 H   0  0  0  0  0  0  0  0  0  0  0  0
   20.7359   19.1265   27.9956 H   0  0  0  0  0  0  0  0  0  0  0  0
  1  2  1  0  0  0  0
  1  3  1  0  0  0  0
  1  4  1  0  0  0  0
  4  5  1  0  0  0  0
  4  6  1  0  0  0  0
  4  7  1  0  0  0  0
  7  8  1  0  0  0  0
  7  9  1  0  0  0  0
  7 10  1  0  0  0  0
 10 11  1  0  0  0  0
 10 12  1  0  0  0  0
 10 13  1  0  0  0  0
 13 14  1  0  0  0  0
 13 15  1  0  0  0  0
 13 16  1  0  0  0  0
 16 17  1  0  0  0  0
 16 18  1  0  0  0  0
 16 19  1  0  0  0  0
 19 20  1  0  0  0  0
 19 21  1  0  0  0  0
 19 22  1  0  0  0  0
  1 23  1  0  0  0  0
 23 24  1  0  0  0  0
 23 25  1  0  0  0  0
 23 26  1  0  0  0  0
M  END
> <VM2 Rank>
73

> <Conf_Id>
728

> <Probability>
0.33

> <Sum Probability>
91.29

> <Delta G>
1.798

> <G>
77.264

> <E>
44.594

> <-TS>
32.670

> <U+W>
23.132

> <U>
72.391

> <W>
-49.259

> <W(PB)>
-51.509

> <W(SA)>
2.250

> <Valence>
2.830

> <Coulomb>
69.222

> <VdW>
0.340

> <VdW6>
-7.379

> <VdW12>
7.719

> <Bond>
0.228

> <Angle>
1.104

> <Pdih>
1.497

> <Idih>
0.000

> <Tether>
0.000

$$$$
VeraChem MOL file


 26 25  0  0  0  0  0  0  0  0999 V2000     
   20.5055   19.4038   25.6188 N   0  3  0  0  0  0  0  0  0  0  0  0
   20.9490   19.9674   24.8781 H   0  0  0  0  0  0  0  0  0  0  0  0
   21.2556   18.8058   25.9989 H   0  0  0  0  0  0  0  0  0  0  0  0
   19.4042   18.5460   25.0272 C   0  0  0  0  0  0  0  0  0  0  0  0
   18.6300   19.2122   24.6396 H   0  0  0  0  0  0  0  0  0  0  0  0
   18.9696   17.9584   25.8398 H   0  0  0  0  0  0  0  0  0  0  0  0
   19.8843   17.5970   23.9094 C   0  0  0  0  0  0  0  0  0  0  0  0
   20.6188   16.8952   24.3263 H   0  0  0  0  0  0  0  0  0  0  0  0
   19.0340   16.9870   23.5769 H   0  0  0  0  0  0  0  0  0  0  0  0
   20.5039   18.3189   22.6859 C   0  0  0  0  0  0  0  0  0  0  0  0
   20.8349   17.5536   21.9720 H   0  0  0  0  0  0  0  0  0  0  0  0
   21.4077   18.8632   22.9901 H   0  0  0  0  0  0  0  0  0  0  0  0
   19.5182   19.2890   21.9856 C   0  0  0  0  0  0  0  0  0  0  0  0
   18.6267   18.7374   21.6568 H   0  0  0  0  0  0  0  0  0  0  0  0
   19.1680   20.0411   22.7048 H   0  0  0  0  0  0  0  0  0  0  0  0
   20.1390   20.0328   20.7781 C   0  0  0  0  0  0  0  0  0  0  0  0
   21.0247   20.5963   21.1032 H   0  0  0  0  0  0  0  0  0  0  0  0
   19.4175   20.7784   20.4156 H   0  0  0  0  0  0  0  0  0  0  0  0
   20.5180   19.0987   19.6061 C   0  0  0  0  0  0  0  0  0  0  0  0
   21.3301   18.4145   19.8807 H   0  0  0  0  0  0  0  0  0  0  0  0
   20.8597   19.6849   18.7432 H   0  0  0  0  0  0  0  0  0  0  0  0
   19.6565   18.4995   19.2839 H   0  0  0  0  0  0  0  0  0  0  0  0
   19.9349   20.3037   26.7059 C   0  0  0  0  0  0  0  0  0  0  0  0
   19.4982   19.6840   27.4922 H   0  0  0  0  0  0  0  0  0  0  0  0
   20.7379   20.9160   27.1222 H   0  0  0  0  0  0  0  0  0  0  0  0
   19.1666   20.9476   26.2725 H   0  0  0  0  0  0  0  0  0  0  0  0
  1  2  1  0  0  0  0
  1  3  1  0  0  0  0
  1  4  1  0  0  0  0
  4  5  1  0  0  0  0
  4  6  1  0  0  0  0
  4  7  1  0  0  0  0
  7  8  1  0  0  0  0
  7  9  1  0  0  0  0
  7 10  1  0  0  0  0
 10 11  1  0  0  0  0
 10 12  1  0  0  0  0
 10 13  1  0  0  0  0
 13 14  1  0  0  0  0
 13 15  1  0  0  0  0
 13 16  1  0  0  0  0
 16 17  1  0  0  0  0
 16 18  1  0  0  0  0
 16 19  1  0  0  0  0
 19 20  1  0  0  0  0
 19 21  1  0  0  0  0
 19 22  1  0  0  0  0
  1 23  1  0  0  0  0
 23 24  1  0  0  0  0
 23 25  1  0  0  0  0
 23 26  1  0  0  0  0
M  END
> <VM2 Rank>
74

> <Conf_Id>
1439

> <Probability>
0.31

> <Sum Probability>
91.60

> <Delta G>
1.831

> <G>
77.297

> <E>
44.768

> <-TS>
32.530

> <U+W>
23.306

> <U>
72.579

> <W>
-49.273

> <W(PB)>
-51.540

> <W(SA)>
2.267

> <Valence>
2.677

> <Coulomb>
69.622

> <VdW>
0.280

> <VdW6>
-7.328

> <VdW12>
7.608

> <Bond>
0.212

> <Angle>
0.911

> <Pdih>
1.555

> <Idih>
0.000

> <Tether>
0.000

$$$$
VeraChem MOL file


 26 25  0  0  0  0  0  0  0  0999 V2000     
   19.5020   18.7316   25.7553 N   0  3  0  0  0  0  0  0  0  0  0  0
   19.5165   18.4213   26.7398 H   0  0  0  0  0  0  0  0  0  0  0  0
   19.0842   17.9470   25.2335 H   0  0  0  0  0  0  0  0  0  0  0  0
   20.9252   18.9769   25.2783 C   0  0  0  0  0  0  0  0  0  0  0  0
   21.5104   18.0878   25.5266 H   0  0  0  0  0  0  0  0  0  0  0  0
   21.3271   19.8150   25.8533 H   0  0  0  0  0  0  0  0  0  0  0  0
   21.0719   19.2690   23.7690 C   0  0  0  0  0  0  0  0  0  0  0  0
   20.5412   20.1973   23.5251 H   0  0  0  0  0  0  0  0  0  0  0  0
   22.1327   19.4517   23.5528 H   0  0  0  0  0  0  0  0  0  0  0  0
   20.5608   18.1054   22.8835 C   0  0  0  0  0  0  0  0  0  0  0  0
   19.4855   17.9543   23.0424 H   0  0  0  0  0  0  0  0  0  0  0  0
   21.0487   17.1737   23.2017 H   0  0  0  0  0  0  0  0  0  0  0  0
   20.8382   18.3118   21.3719 C   0  0  0  0  0  0  0  0  0  0  0  0
   21.9242   18.3453   21.2086 H   0  0  0  0  0  0  0  0  0  0  0  0
   20.4797   17.4293   20.8244 H   0  0  0  0  0  0  0  0  0  0  0  0
   20.1999   19.5804   20.7499 C   0  0  0  0  0  0  0  0  0  0  0  0
   20.4594   19.6145   19.6826 H   0  0  0  0  0  0  0  0  0  0  0  0
   20.6399   20.4834   21.1938 H   0  0  0  0  0  0  0  0  0  0  0  0
   18.6612   19.6275   20.8896 C   0  0  0  0  0  0  0  0  0  0  0  0
   18.1991   18.7241   20.4709 H   0  0  0  0  0  0  0  0  0  0  0  0
   18.2528   20.4932   20.3525 H   0  0  0  0  0  0  0  0  0  0  0  0
   18.3547   19.7161   21.9392 H   0  0  0  0  0  0  0  0  0  0  0  0
   18.6487   19.9875   25.6194 C   0  0  0  0  0  0  0  0  0  0  0  0
   18.5881   20.2706   24.5667 H   0  0  0  0  0  0  0  0  0  0  0  0
   17.6467   19.7818   26.0027 H   0  0  0  0  0  0  0  0  0  0  0  0
   19.1052   20.7953   26.1954 H   0  0  0  0  0  0  0  0  0  0  0  0
  1  2  1  0  0  0  0
  1  3  1  0  0  0  0
  1  4  1  0  0  0  0
  4  5  1  0  0  0  0
  4  6  1  0  0  0  0
  4  7  1  0  0  0  0
  7  8  1  0  0  0  0
  7  9  1  0  0  0  0
  7 10  1  0  0  0  0
 10 11  1  0  0  0  0
 10 12  1  0  0  0  0
 10 13  1  0  0  0  0
 13 14  1  0  0  0  0
 13 15  1  0  0  0  0
 13 16  1  0  0  0  0
 16 17  1  0  0  0  0
 16 18  1  0  0  0  0
 16 19  1  0  0  0  0
 19 20  1  0  0  0  0
 19 21  1  0  0  0  0
 19 22  1  0  0  0  0
  1 23  1  0  0  0  0
 23 24  1  0  0  0  0
 23 25  1  0  0  0  0
 23 26  1  0  0  0  0
M  END
> <VM2 Rank>
75

> <Conf_Id>
1567

> <Probability>
0.29

> <Sum Probability>
91.89

> <Delta G>
1.869

> <G>
77.336

> <E>
44.373

> <-TS>
32.963

> <U+W>
22.912

> <U>
72.926

> <W>
-50.014

> <W(PB)>
-52.194

> <W(SA)>
2.180

> <Valence>
3.007

> <Coulomb>
69.583

> <VdW>
0.336

> <VdW6>
-8.608

> <VdW12>
8.944

> <Bond>
0.266

> <Angle>
1.183

> <Pdih>
1.559

> <Idih>
0.000

> <Tether>
0.000

$$$$
VeraChem MOL file


 26 25  0  0  0  0  0  0  0  0999 V2000     
   20.0345   19.2285   26.0796 N   0  3  0  0  0  0  0  0  0  0  0  0
   20.6538   19.7314   26.7348 H   0  0  0  0  0  0  0  0  0  0  0  0
   19.8565   18.3167   26.5282 H   0  0  0  0  0  0  0  0  0  0  0  0
   20.7495   19.0312   24.7537 C   0  0  0  0  0  0  0  0  0  0  0  0
   21.7420   18.6305   24.9745 H   0  0  0  0  0  0  0  0  0  0  0  0
   20.8748   20.0138   24.2924 H   0  0  0  0  0  0  0  0  0  0  0  0
   20.0311   18.0788   23.7747 C   0  0  0  0  0  0  0  0  0  0  0  0
   19.8709   17.1112   24.2681 H   0  0  0  0  0  0  0  0  0  0  0  0
   19.0350   18.4690   23.5324 H   0  0  0  0  0  0  0  0  0  0  0  0
   20.8343   17.8498   22.4704 C   0  0  0  0  0  0  0  0  0  0  0  0
   20.2818   17.1528   21.8262 H   0  0  0  0  0  0  0  0  0  0  0  0
   21.7760   17.3406   22.7177 H   0  0  0  0  0  0  0  0  0  0  0  0
   21.1639   19.1418   21.6746 C   0  0  0  0  0  0  0  0  0  0  0  0
   21.8596   19.7611   22.2567 H   0  0  0  0  0  0  0  0  0  0  0  0
   21.7103   18.8625   20.7632 H   0  0  0  0  0  0  0  0  0  0  0  0
   19.9377   20.0034   21.2785 C   0  0  0  0  0  0  0  0  0  0  0  0
   20.2935   20.8899   20.7352 H   0  0  0  0  0  0  0  0  0  0  0  0
   19.4347   20.3843   22.1775 H   0  0  0  0  0  0  0  0  0  0  0  0
   18.9209   19.2508   20.3906 C   0  0  0  0  0  0  0  0  0  0  0  0
   18.1174   19.9259   20.0689 H   0  0  0  0  0  0  0  0  0  0  0  0
   18.4554   18.4165   20.9298 H   0  0  0  0  0  0  0  0  0  0  0  0
   19.4041   18.8509   19.4897 H   0  0  0  0  0  0  0  0  0  0  0  0
   18.7360   20.0057   25.8950 C   0  0  0  0  0  0  0  0  0  0  0  0
   18.0614   19.4363   25.2527 H   0  0  0  0  0  0  0  0  0  0  0  0
   18.2704   20.1598   26.8710 H   0  0  0  0  0  0  0  0  0  0  0  0
   18.9582   20.9716   25.4361 H   0  0  0  0  0  0  0  0  0  0  0  0
  1  2  1  0  0  0  0
  1  3  1  0  0  0  0
  1  4  1  0  0  0  0
  4  5  1  0  0  0  0
  4  6  1  0  0  0  0
  4  7  1  0  0  0  0
  7  8  1  0  0  0  0
  7  9  1  0  0  0  0
  7 10  1  0  0  0  0
 10 11  1  0  0  0  0
 10 12  1  0  0  0  0
 10 13  1  0  0  0  0
 13 14  1  0  0  0  0
 13 15  1  0  0  0  0
 13 16  1  0  0  0  0
 16 17  1  0  0  0  0
 16 18  1  0  0  0  0
 16 19  1  0  0  0  0
 19 20  1  0  0  0  0
 19 21  1  0  0  0  0
 19 22  1  0  0  0  0
  1 23  1  0  0  0  0
 23 24  1  0  0  0  0
 23 25  1  0  0  0  0
 23 26  1  0  0  0  0
M  END
> <VM2 Rank>
76

> <Conf_Id>
400

> <Probability>
0.29

> <Sum Probability>
92.18

> <Delta G>
1.879

> <G>
77.345

> <E>
44.338

> <-TS>
33.007

> <U+W>
22.877

> <U>
72.761

> <W>
-49.885

> <W(PB)>
-52.087

> <W(SA)>
2.202

> <Valence>
3.172

> <Coulomb>
69.298

> <VdW>
0.291

> <VdW6>
-8.615

> <VdW12>
8.907

> <Bond>
0.269

> <Angle>
1.270

> <Pdih>
1.633

> <Idih>
0.000

> <Tether>
0.000

$$$$
VeraChem MOL file


 26 25  0  0  0  0  0  0  0  0999 V2000     
   19.3771   19.2879   25.5789 N   0  3  0  0  0  0  0  0  0  0  0  0
   18.7393   18.5475   25.9099 H   0  0  0  0  0  0  0  0  0  0  0  0
   18.8813   19.7550   24.8049 H   0  0  0  0  0  0  0  0  0  0  0  0
   20.6682   18.6758   25.0719 C   0  0  0  0  0  0  0  0  0  0  0  0
   21.1551   18.1827   25.9172 H   0  0  0  0  0  0  0  0  0  0  0  0
   21.3163   19.4880   24.7347 H   0  0  0  0  0  0  0  0  0  0  0  0
   20.4701   17.6572   23.9302 C   0  0  0  0  0  0  0  0  0  0  0  0
   21.4477   17.2348   23.6624 H   0  0  0  0  0  0  0  0  0  0  0  0
   19.8660   16.8179   24.2996 H   0  0  0  0  0  0  0  0  0  0  0  0
   19.8041   18.2471   22.6611 C   0  0  0  0  0  0  0  0  0  0  0  0
   18.7896   18.5943   22.8973 H   0  0  0  0  0  0  0  0  0  0  0  0
   19.6861   17.4356   21.9313 H   0  0  0  0  0  0  0  0  0  0  0  0
   20.6189   19.4021   22.0246 C   0  0  0  0  0  0  0  0  0  0  0  0
   20.7579   20.2044   22.7611 H   0  0  0  0  0  0  0  0  0  0  0  0
   21.6246   19.0454   21.7631 H   0  0  0  0  0  0  0  0  0  0  0  0
   19.9461   20.0130   20.7713 C   0  0  0  0  0  0  0  0  0  0  0  0
   20.5249   20.8921   20.4549 H   0  0  0  0  0  0  0  0  0  0  0  0
   18.9439   20.3826   21.0294 H   0  0  0  0  0  0  0  0  0  0  0  0
   19.8479   19.0299   19.5823 C   0  0  0  0  0  0  0  0  0  0  0  0
   19.1744   18.1930   19.8042 H   0  0  0  0  0  0  0  0  0  0  0  0
   20.8335   18.6204   19.3256 H   0  0  0  0  0  0  0  0  0  0  0  0
   19.4555   19.5407   18.6934 H   0  0  0  0  0  0  0  0  0  0  0  0
   19.6757   20.2771   26.6968 C   0  0  0  0  0  0  0  0  0  0  0  0
   20.3258   21.0667   26.3135 H   0  0  0  0  0  0  0  0  0  0  0  0
   18.7380   20.7108   27.0514 H   0  0  0  0  0  0  0  0  0  0  0  0
   20.1730   19.7533   27.5161 H   0  0  0  0  0  0  0  0  0  0  0  0
  1  2  1  0  0  0  0
  1  3  1  0  0  0  0
  1  4  1  0  0  0  0
  4  5  1  0  0  0  0
  4  6  1  0  0  0  0
  4  7  1  0  0  0  0
  7  8  1  0  0  0  0
  7  9  1  0  0  0  0
  7 10  1  0  0  0  0
 10 11  1  0  0  0  0
 10 12  1  0  0  0  0
 10 13  1  0  0  0  0
 13 14  1  0  0  0  0
 13 15  1  0  0  0  0
 13 16  1  0  0  0  0
 16 17  1  0  0  0  0
 16 18  1  0  0  0  0
 16 19  1  0  0  0  0
 19 20  1  0  0  0  0
 19 21  1  0  0  0  0
 19 22  1  0  0  0  0
  1 23  1  0  0  0  0
 23 24  1  0  0  0  0
 23 25  1  0  0  0  0
 23 26  1  0  0  0  0
M  END
> <VM2 Rank>
77

> <Conf_Id>
69

> <Probability>
0.28

> <Sum Probability>
92.46

> <Delta G>
1.886

> <G>
77.352

> <E>
44.823

> <-TS>
32.530

> <U+W>
23.361

> <U>
72.579

> <W>
-49.218

> <W(PB)>
-51.496

> <W(SA)>
2.279

> <Valence>
2.678

> <Coulomb>
69.622

> <VdW>
0.279

> <VdW6>
-7.328

> <VdW12>
7.608

> <Bond>
0.212

> <Angle>
0.911

> <Pdih>
1.555

> <Idih>
0.000

> <Tether>
0.000

$$$$
VeraChem MOL file


 26 25  0  0  0  0  0  0  0  0999 V2000     
   20.4841   18.8330   25.7902 N   0  3  0  0  0  0  0  0  0  0  0  0
   21.0886   18.1537   25.3047 H   0  0  0  0  0  0  0  0  0  0  0  0
   20.4641   18.5192   26.7736 H   0  0  0  0  0  0  0  0  0  0  0  0
   19.0778   18.7865   25.2128 C   0  0  0  0  0  0  0  0  0  0  0  0
   18.4743   19.5209   25.7521 H   0  0  0  0  0  0  0  0  0  0  0  0
   18.6702   17.7950   25.4260 H   0  0  0  0  0  0  0  0  0  0  0  0
   18.9808   19.0533   23.6949 C   0  0  0  0  0  0  0  0  0  0  0  0
   17.9229   19.0175   23.4035 H   0  0  0  0  0  0  0  0  0  0  0  0
   19.3269   20.0721   23.4820 H   0  0  0  0  0  0  0  0  0  0  0  0
   19.7792   18.0247   22.8558 C   0  0  0  0  0  0  0  0  0  0  0  0
   19.4706   17.0109   23.1460 H   0  0  0  0  0  0  0  0  0  0  0  0
   20.8489   18.0950   23.0908 H   0  0  0  0  0  0  0  0  0  0  0  0
   19.5721   18.1809   21.3271 C   0  0  0  0  0  0  0  0  0  0  0  0
   20.1406   17.3941   20.8125 H   0  0  0  0  0  0  0  0  0  0  0  0
   18.5162   17.9932   21.0879 H   0  0  0  0  0  0  0  0  0  0  0  0
   19.9799   19.5575   20.7421 C   0  0  0  0  0  0  0  0  0  0  0  0
   19.3349   20.3485   21.1474 H   0  0  0  0  0  0  0  0  0  0  0  0
   19.7943   19.5456   19.6590 H   0  0  0  0  0  0  0  0  0  0  0  0
   21.4630   19.9167   20.9888 C   0  0  0  0  0  0  0  0  0  0  0  0
   21.6707   20.0585   22.0566 H   0  0  0  0  0  0  0  0  0  0  0  0
   21.7227   20.8514   20.4753 H   0  0  0  0  0  0  0  0  0  0  0  0
   22.1279   19.1297   20.6100 H   0  0  0  0  0  0  0  0  0  0  0  0
   21.0711   20.2373   25.7052 C   0  0  0  0  0  0  0  0  0  0  0  0
   22.0645   20.2374   26.1593 H   0  0  0  0  0  0  0  0  0  0  0  0
   21.1464   20.5343   24.6572 H   0  0  0  0  0  0  0  0  0  0  0  0
   20.4202   20.9310   26.2417 H   0  0  0  0  0  0  0  0  0  0  0  0
  1  2  1  0  0  0  0
  1  3  1  0  0  0  0
  1  4  1  0  0  0  0
  4  5  1  0  0  0  0
  4  6  1  0  0  0  0
  4  7  1  0  0  0  0
  7  8  1  0  0  0  0
  7  9  1  0  0  0  0
  7 10  1  0  0  0  0
 10 11  1  0  0  0  0
 10 12  1  0  0  0  0
 10 13  1  0  0  0  0
 13 14  1  0  0  0  0
 13 15  1  0  0  0  0
 13 16  1  0  0  0  0
 16 17  1  0  0  0  0
 16 18  1  0  0  0  0
 16 19  1  0  0  0  0
 19 20  1  0  0  0  0
 19 21  1  0  0  0  0
 19 22  1  0  0  0  0
  1 23  1  0  0  0  0
 23 24  1  0  0  0  0
 23 25  1  0  0  0  0
 23 26  1  0  0  0  0
M  END
> <VM2 Rank>
78

> <Conf_Id>
837

> <Probability>
0.28

> <Sum Probability>
92.74

> <Delta G>
1.894

> <G>
77.361

> <E>
44.398

> <-TS>
32.963

> <U+W>
22.936

> <U>
72.925

> <W>
-49.989

> <W(PB)>
-52.182

> <W(SA)>
2.192

> <Valence>
3.007

> <Coulomb>
69.583

> <VdW>
0.336

> <VdW6>
-8.608

> <VdW12>
8.944

> <Bond>
0.266

> <Angle>
1.183

> <Pdih>
1.559

> <Idih>
0.000

> <Tether>
0.000

$$$$
VeraChem MOL file


 26 25  0  0  0  0  0  0  0  0999 V2000     
   19.8403   19.2084   26.0728 N   0  3  0  0  0  0  0  0  0  0  0  0
   20.1682   18.3486   26.5392 H   0  0  0  0  0  0  0  0  0  0  0  0
   19.0873   19.5700   26.6794 H   0  0  0  0  0  0  0  0  0  0  0  0
   19.2750   18.8795   24.7015 C   0  0  0  0  0  0  0  0  0  0  0  0
   18.9850   19.8193   24.2256 H   0  0  0  0  0  0  0  0  0  0  0  0
   18.3718   18.2836   24.8551 H   0  0  0  0  0  0  0  0  0  0  0  0
   20.2390   18.1004   23.7820 C   0  0  0  0  0  0  0  0  0  0  0  0
   21.1492   18.6868   23.6072 H   0  0  0  0  0  0  0  0  0  0  0  0
   20.5579   17.1821   24.2924 H   0  0  0  0  0  0  0  0  0  0  0  0
   19.5924   17.7220   22.4264 C   0  0  0  0  0  0  0  0  0  0  0  0
   18.7591   17.0301   22.6110 H   0  0  0  0  0  0  0  0  0  0  0  0
   20.3189   17.1567   21.8276 H   0  0  0  0  0  0  0  0  0  0  0  0
   19.0633   18.9256   21.6002 C   0  0  0  0  0  0  0  0  0  0  0  0
   18.6503   18.5475   20.6549 H   0  0  0  0  0  0  0  0  0  0  0  0
   18.2172   19.3862   22.1277 H   0  0  0  0  0  0  0  0  0  0  0  0
   20.1132   20.0214   21.2846 C   0  0  0  0  0  0  0  0  0  0  0  0
   20.4641   20.4903   22.2137 H   0  0  0  0  0  0  0  0  0  0  0  0
   19.6234   20.8208   20.7112 H   0  0  0  0  0  0  0  0  0  0  0  0
   21.3215   19.4978   20.4754 C   0  0  0  0  0  0  0  0  0  0  0  0
   20.9940   19.0144   19.5459 H   0  0  0  0  0  0  0  0  0  0  0  0
   21.9081   18.7719   21.0520 H   0  0  0  0  0  0  0  0  0  0  0  0
   21.9913   20.3245   20.2058 H   0  0  0  0  0  0  0  0  0  0  0  0
   20.9632   20.2349   25.9741 C   0  0  0  0  0  0  0  0  0  0  0  0
   20.5818   21.1387   25.4939 H   0  0  0  0  0  0  0  0  0  0  0  0
   21.3182   20.4734   26.9792 H   0  0  0  0  0  0  0  0  0  0  0  0
   21.7829   19.8193   25.3847 H   0  0  0  0  0  0  0  0  0  0  0  0
  1  2  1  0  0  0  0
  1  3  1  0  0  0  0
  1  4  1  0  0  0  0
  4  5  1  0  0  0  0
  4  6  1  0  0  0  0
  4  7  1  0  0  0  0
  7  8  1  0  0  0  0
  7  9  1  0  0  0  0
  7 10  1  0  0  0  0
 10 11  1  0  0  0  0
 10 12  1  0  0  0  0
 10 13  1  0  0  0  0
 13 14  1  0  0  0  0
 13 15  1  0  0  0  0
 13 16  1  0  0  0  0
 16 17  1  0  0  0  0
 16 18  1  0  0  0  0
 16 19  1  0  0  0  0
 19 20  1  0  0  0  0
 19 21  1  0  0  0  0
 19 22  1  0  0  0  0
  1 23  1  0  0  0  0
 23 24  1  0  0  0  0
 23 25  1  0  0  0  0
 23 26  1  0  0  0  0
M  END
> <VM2 Rank>
79

> <Conf_Id>
956

> <Probability>
0.28

> <Sum Probability>
93.02

> <Delta G>
1.898

> <G>
77.365

> <E>
44.358

> <-TS>
33.007

> <U+W>
22.896

> <U>
72.761

> <W>
-49.865

> <W(PB)>
-52.062

> <W(SA)>
2.196

> <Valence>
3.172

> <Coulomb>
69.298

> <VdW>
0.291

> <VdW6>
-8.615

> <VdW12>
8.906

> <Bond>
0.269

> <Angle>
1.270

> <Pdih>
1.633

> <Idih>
0.000

> <Tether>
0.000

$$$$
VeraChem MOL file


 26 25  0  0  0  0  0  0  0  0999 V2000     
   20.6781   18.9903   25.4035 N   0  3  0  0  0  0  0  0  0  0  0  0
   21.2853   19.0743   24.5744 H   0  0  0  0  0  0  0  0  0  0  0  0
   20.8731   18.0567   25.7971 H   0  0  0  0  0  0  0  0  0  0  0  0
   19.2226   19.0885   24.9904 C   0  0  0  0  0  0  0  0  0  0  0  0
   19.0548   20.0891   24.5851 H   0  0  0  0  0  0  0  0  0  0  0  0
   18.6142   18.9810   25.8919 H   0  0  0  0  0  0  0  0  0  0  0  0
   18.7954   18.0284   23.9541 C   0  0  0  0  0  0  0  0  0  0  0  0
   18.9165   17.0283   24.3910 H   0  0  0  0  0  0  0  0  0  0  0  0
   17.7223   18.1461   23.7530 H   0  0  0  0  0  0  0  0  0  0  0  0
   19.5771   18.1030   22.6183 C   0  0  0  0  0  0  0  0  0  0  0  0
   19.2070   17.3118   21.9518 H   0  0  0  0  0  0  0  0  0  0  0  0
   20.6356   17.8784   22.8001 H   0  0  0  0  0  0  0  0  0  0  0  0
   19.4356   19.4731   21.9078 C   0  0  0  0  0  0  0  0  0  0  0  0
   18.3688   19.7167   21.8086 H   0  0  0  0  0  0  0  0  0  0  0  0
   19.8784   20.2676   22.5233 H   0  0  0  0  0  0  0  0  0  0  0  0
   20.0799   19.5041   20.5008 C   0  0  0  0  0  0  0  0  0  0  0  0
   19.8433   20.4665   20.0257 H   0  0  0  0  0  0  0  0  0  0  0  0
   19.6267   18.7294   19.8666 H   0  0  0  0  0  0  0  0  0  0  0  0
   21.6150   19.3246   20.5249 C   0  0  0  0  0  0  0  0  0  0  0  0
   22.0312   19.4442   19.5162 H   0  0  0  0  0  0  0  0  0  0  0  0
   21.8993   18.3270   20.8817 H   0  0  0  0  0  0  0  0  0  0  0  0
   22.0903   20.0715   21.1738 H   0  0  0  0  0  0  0  0  0  0  0  0
   21.0042   20.0780   26.4173 C   0  0  0  0  0  0  0  0  0  0  0  0
   20.3699   19.9502   27.2972 H   0  0  0  0  0  0  0  0  0  0  0  0
   22.0548   19.9963   26.7049 H   0  0  0  0  0  0  0  0  0  0  0  0
   20.8199   21.0557   25.9669 H   0  0  0  0  0  0  0  0  0  0  0  0
  1  2  1  0  0  0  0
  1  3  1  0  0  0  0
  1  4  1  0  0  0  0
  4  5  1  0  0  0  0
  4  6  1  0  0  0  0
  4  7  1  0  0  0  0
  7  8  1  0  0  0  0
  7  9  1  0  0  0  0
  7 10  1  0  0  0  0
 10 11  1  0  0  0  0
 10 12  1  0  0  0  0
 10 13  1  0  0  0  0
 13 14  1  0  0  0  0
 13 15  1  0  0  0  0
 13 16  1  0  0  0  0
 16 17  1  0  0  0  0
 16 18  1  0  0  0  0
 16 19  1  0  0  0  0
 19 20  1  0  0  0  0
 19 21  1  0  0  0  0
 19 22  1  0  0  0  0
  1 23  1  0  0  0  0
 23 24  1  0  0  0  0
 23 25  1  0  0  0  0
 23 26  1  0  0  0  0
M  END
> <VM2 Rank>
80

> <Conf_Id>
789

> <Probability>
0.28

> <Sum Probability>
93.30

> <Delta G>
1.900

> <G>
77.367

> <E>
44.800

> <-TS>
32.567

> <U+W>
23.338

> <U>
72.650

> <W>
-49.312

> <W(PB)>
-51.570

> <W(SA)>
2.258

> <Valence>
2.607

> <Coulomb>
69.873

> <VdW>
0.170

> <VdW6>
-7.459

> <VdW12>
7.629

> <Bond>
0.205

> <Angle>
0.826

> <Pdih>
1.577

> <Idih>
0.000

> <Tether>
0.000

$$$$
VeraChem MOL file


 26 25  0  0  0  0  0  0  0  0999 V2000     
   19.7759   18.4162   25.5306 N   0  3  0  0  0  0  0  0  0  0  0  0
   20.3063   17.5759   25.2532 H   0  0  0  0  0  0  0  0  0  0  0  0
   18.8711   18.3471   25.0411 H   0  0  0  0  0  0  0  0  0  0  0  0
   20.5118   19.6668   25.0899 C   0  0  0  0  0  0  0  0  0  0  0  0
   21.4611   19.6988   25.6307 H   0  0  0  0  0  0  0  0  0  0  0  0
   19.9173   20.5325   25.3927 H   0  0  0  0  0  0  0  0  0  0  0  0
   20.7845   19.7294   23.5743 C   0  0  0  0  0  0  0  0  0  0  0  0
   21.4002   20.6148   23.3681 H   0  0  0  0  0  0  0  0  0  0  0  0
   21.3804   18.8560   23.2802 H   0  0  0  0  0  0  0  0  0  0  0  0
   19.4829   19.8035   22.7376 C   0  0  0  0  0  0  0  0  0  0  0  0
   18.8613   20.6263   23.1175 H   0  0  0  0  0  0  0  0  0  0  0  0
   18.8914   18.8893   22.8744 H   0  0  0  0  0  0  0  0  0  0  0  0
   19.7338   20.0397   21.2257 C   0  0  0  0  0  0  0  0  0  0  0  0
   18.7639   20.1185   20.7154 H   0  0  0  0  0  0  0  0  0  0  0  0
   20.2227   21.0145   21.0923 H   0  0  0  0  0  0  0  0  0  0  0  0
   20.5847   18.9534   20.5191 C   0  0  0  0  0  0  0  0  0  0  0  0
   21.6021   18.9392   20.9326 H   0  0  0  0  0  0  0  0  0  0  0  0
   20.6953   19.2297   19.4612 H   0  0  0  0  0  0  0  0  0  0  0  0
   19.9683   17.5384   20.6016 C   0  0  0  0  0  0  0  0  0  0  0  0
   20.5573   16.8273   20.0081 H   0  0  0  0  0  0  0  0  0  0  0  0
   18.9421   17.5316   20.2119 H   0  0  0  0  0  0  0  0  0  0  0  0
   19.9470   17.1681   21.6339 H   0  0  0  0  0  0  0  0  0  0  0  0
   19.5661   18.4425   27.0382 C   0  0  0  0  0  0  0  0  0  0  0  0
   18.9764   19.3228   27.3034 H   0  0  0  0  0  0  0  0  0  0  0  0
   19.0351   17.5375   27.3419 H   0  0  0  0  0  0  0  0  0  0  0  0
   20.5377   18.4844   27.5352 H   0  0  0  0  0  0  0  0  0  0  0  0
  1  2  1  0  0  0  0
  1  3  1  0  0  0  0
  1  4  1  0  0  0  0
  4  5  1  0  0  0  0
  4  6  1  0  0  0  0
  4  7  1  0  0  0  0
  7  8  1  0  0  0  0
  7  9  1  0  0  0  0
  7 10  1  0  0  0  0
 10 11  1  0  0  0  0
 10 12  1  0  0  0  0
 10 13  1  0  0  0  0
 13 14  1  0  0  0  0
 13 15  1  0  0  0  0
 13 16  1  0  0  0  0
 16 17  1  0  0  0  0
 16 18  1  0  0  0  0
 16 19  1  0  0  0  0
 19 20  1  0  0  0  0
 19 21  1  0  0  0  0
 19 22  1  0  0  0  0
  1 23  1  0  0  0  0
 23 24  1  0  0  0  0
 23 25  1  0  0  0  0
 23 26  1  0  0  0  0
M  END
> <VM2 Rank>
81

> <Conf_Id>
804

> <Probability>
0.27

> <Sum Probability>
93.56

> <Delta G>
1.920

> <G>
77.386

> <E>
44.700

> <-TS>
32.687

> <U+W>
23.238

> <U>
72.709

> <W>
-49.471

> <W(PB)>
-51.723

> <W(SA)>
2.252

> <Valence>
2.790

> <Coulomb>
69.679

> <VdW>
0.240

> <VdW6>
-7.473

> <VdW12>
7.714

> <Bond>
0.222

> <Angle>
1.030

> <Pdih>
1.538

> <Idih>
0.000

> <Tether>
0.000

$$$$
VeraChem MOL file


 26 25  0  0  0  0  0  0  0  0999 V2000     
   19.3075   18.8493   25.3549 N   0  3  0  0  0  0  0  0  0  0  0  0
   19.2794   17.8927   25.7406 H   0  0  0  0  0  0  0  0  0  0  0  0
   18.7555   18.8140   24.4848 H   0  0  0  0  0  0  0  0  0  0  0  0
   20.7380   19.2443   25.0440 C   0  0  0  0  0  0  0  0  0  0  0  0
   21.2909   19.2564   25.9867 H   0  0  0  0  0  0  0  0  0  0  0  0
   20.7268   20.2611   24.6443 H   0  0  0  0  0  0  0  0  0  0  0  0
   21.4433   18.3008   24.0479 C   0  0  0  0  0  0  0  0  0  0  0  0
   22.4814   18.6357   23.9216 H   0  0  0  0  0  0  0  0  0  0  0  0
   21.4979   17.2938   24.4824 H   0  0  0  0  0  0  0  0  0  0  0  0
   20.7583   18.2245   22.6601 C   0  0  0  0  0  0  0  0  0  0  0  0
   19.7574   17.7881   22.7690 H   0  0  0  0  0  0  0  0  0  0  0  0
   21.3272   17.5299   22.0269 H   0  0  0  0  0  0  0  0  0  0  0  0
   20.6675   19.5998   21.9514 C   0  0  0  0  0  0  0  0  0  0  0  0
   20.0305   20.2832   22.5287 H   0  0  0  0  0  0  0  0  0  0  0  0
   21.6668   20.0560   21.9254 H   0  0  0  0  0  0  0  0  0  0  0  0
   20.1305   19.5093   20.5026 C   0  0  0  0  0  0  0  0  0  0  0  0
   20.7749   18.8474   19.9073 H   0  0  0  0  0  0  0  0  0  0  0  0
   20.1991   20.5031   20.0383 H   0  0  0  0  0  0  0  0  0  0  0  0
   18.6660   19.0213   20.4205 C   0  0  0  0  0  0  0  0  0  0  0  0
   18.3059   19.0610   19.3843 H   0  0  0  0  0  0  0  0  0  0  0  0
   18.0046   19.6513   21.0292 H   0  0  0  0  0  0  0  0  0  0  0  0
   18.5662   17.9842   20.7637 H   0  0  0  0  0  0  0  0  0  0  0  0
   18.6969   19.8406   26.3355 C   0  0  0  0  0  0  0  0  0  0  0  0
   18.7097   20.8387   25.8921 H   0  0  0  0  0  0  0  0  0  0  0  0
   17.6674   19.5450   26.5495 H   0  0  0  0  0  0  0  0  0  0  0  0
   19.2807   19.8382   27.2586 H   0  0  0  0  0  0  0  0  0  0  0  0
  1  2  1  0  0  0  0
  1  3  1  0  0  0  0
  1  4  1  0  0  0  0
  4  5  1  0  0  0  0
  4  6  1  0  0  0  0
  4  7  1  0  0  0  0
  7  8  1  0  0  0  0
  7  9  1  0  0  0  0
  7 10  1  0  0  0  0
 10 11  1  0  0  0  0
 10 12  1  0  0  0  0
 10 13  1  0  0  0  0
 13 14  1  0  0  0  0
 13 15  1  0  0  0  0
 13 16  1  0  0  0  0
 16 17  1  0  0  0  0
 16 18  1  0  0  0  0
 16 19  1  0  0  0  0
 19 20  1  0  0  0  0
 19 21  1  0  0  0  0
 19 22  1  0  0  0  0
  1 23  1  0  0  0  0
 23 24  1  0  0  0  0
 23 25  1  0  0  0  0
 23 26  1  0  0  0  0
M  END
> <VM2 Rank>
82

> <Conf_Id>
416

> <Probability>
0.26

> <Sum Probability>
93.82

> <Delta G>
1.942

> <G>
77.408

> <E>
44.841

> <-TS>
32.567

> <U+W>
23.379

> <U>
72.650

> <W>
-49.271

> <W(PB)>
-51.523

> <W(SA)>
2.252

> <Valence>
2.607

> <Coulomb>
69.873

> <VdW>
0.170

> <VdW6>
-7.459

> <VdW12>
7.629

> <Bond>
0.205

> <Angle>
0.826

> <Pdih>
1.577

> <Idih>
0.000

> <Tether>
0.000

$$$$
VeraChem MOL file


 26 25  0  0  0  0  0  0  0  0999 V2000     
   20.1252   18.9650   26.4277 N   0  3  0  0  0  0  0  0  0  0  0  0
   20.8143   18.2095   26.5639 H   0  0  0  0  0  0  0  0  0  0  0  0
   19.6834   19.0864   27.3528 H   0  0  0  0  0  0  0  0  0  0  0  0
   19.0649   18.5342   25.4231 C   0  0  0  0  0  0  0  0  0  0  0  0
   18.3603   19.3583   25.2863 H   0  0  0  0  0  0  0  0  0  0  0  0
   18.5224   17.7087   25.8910 H   0  0  0  0  0  0  0  0  0  0  0  0
   19.5890   18.0472   24.0534 C   0  0  0  0  0  0  0  0  0  0  0  0
   20.5555   17.5418   24.1793 H   0  0  0  0  0  0  0  0  0  0  0  0
   18.8907   17.2879   23.6771 H   0  0  0  0  0  0  0  0  0  0  0  0
   19.6963   19.1759   22.9995 C   0  0  0  0  0  0  0  0  0  0  0  0
   20.4029   19.9447   23.3332 H   0  0  0  0  0  0  0  0  0  0  0  0
   18.7202   19.6695   22.8945 H   0  0  0  0  0  0  0  0  0  0  0  0
   20.1501   18.6351   21.6244 C   0  0  0  0  0  0  0  0  0  0  0  0
   21.1247   18.1383   21.7288 H   0  0  0  0  0  0  0  0  0  0  0  0
   19.4404   17.8717   21.2764 H   0  0  0  0  0  0  0  0  0  0  0  0
   20.2554   19.7586   20.5689 C   0  0  0  0  0  0  0  0  0  0  0  0
   20.9668   20.5236   20.9106 H   0  0  0  0  0  0  0  0  0  0  0  0
   19.2822   20.2575   20.4595 H   0  0  0  0  0  0  0  0  0  0  0  0
   20.7088   19.2146   19.1973 C   0  0  0  0  0  0  0  0  0  0  0  0
   21.6959   18.7394   19.2675 H   0  0  0  0  0  0  0  0  0  0  0  0
   20.7776   20.0265   18.4617 H   0  0  0  0  0  0  0  0  0  0  0  0
   19.9982   18.4713   18.8127 H   0  0  0  0  0  0  0  0  0  0  0  0
   20.8183   20.2595   26.0226 C   0  0  0  0  0  0  0  0  0  0  0  0
   20.0657   21.0307   25.8447 H   0  0  0  0  0  0  0  0  0  0  0  0
   21.4852   20.5733   26.8287 H   0  0  0  0  0  0  0  0  0  0  0  0
   21.4009   20.0873   25.1162 H   0  0  0  0  0  0  0  0  0  0  0  0
  1  2  1  0  0  0  0
  1  3  1  0  0  0  0
  1  4  1  0  0  0  0
  4  5  1  0  0  0  0
  4  6  1  0  0  0  0
  4  7  1  0  0  0  0
  7  8  1  0  0  0  0
  7  9  1  0  0  0  0
  7 10  1  0  0  0  0
 10 11  1  0  0  0  0
 10 12  1  0  0  0  0
 10 13  1  0  0  0  0
 13 14  1  0  0  0  0
 13 15  1  0  0  0  0
 13 16  1  0  0  0  0
 16 17  1  0  0  0  0
 16 18  1  0  0  0  0
 16 19  1  0  0  0  0
 19 20  1  0  0  0  0
 19 21  1  0  0  0  0
 19 22  1  0  0  0  0
  1 23  1  0  0  0  0
 23 24  1  0  0  0  0
 23 25  1  0  0  0  0
 23 26  1  0  0  0  0
M  END
> <VM2 Rank>
83

> <Conf_Id>
1544

> <Probability>
0.26

> <Sum Probability>
94.08

> <Delta G>
1.945

> <G>
77.412

> <E>
45.184

> <-TS>
32.227

> <U+W>
23.722

> <U>
72.994

> <W>
-49.271

> <W(PB)>
-51.555

> <W(SA)>
2.284

> <Valence>
3.858

> <Coulomb>
68.737

> <VdW>
0.399

> <VdW6>
-6.843

> <VdW12>
7.242

> <Bond>
0.196

> <Angle>
0.970

> <Pdih>
2.692

> <Idih>
0.000

> <Tether>
0.000

$$$$
VeraChem MOL file


 26 25  0  0  0  0  0  0  0  0999 V2000     
   20.2939   18.4684   25.5488 N   0  3  0  0  0  0  0  0  0  0  0  0
   21.2263   18.5845   25.1243 H   0  0  0  0  0  0  0  0  0  0  0  0
   19.9624   17.5412   25.2408 H   0  0  0  0  0  0  0  0  0  0  0  0
   19.3561   19.5503   25.0489 C   0  0  0  0  0  0  0  0  0  0  0  0
   19.7434   20.5149   25.3865 H   0  0  0  0  0  0  0  0  0  0  0  0
   18.3840   19.3886   25.5217 H   0  0  0  0  0  0  0  0  0  0  0  0
   19.1832   19.5680   23.5175 C   0  0  0  0  0  0  0  0  0  0  0  0
   18.7957   18.5954   23.1885 H   0  0  0  0  0  0  0  0  0  0  0  0
   18.4191   20.3142   23.2625 H   0  0  0  0  0  0  0  0  0  0  0  0
   20.4992   19.9064   22.7735 C   0  0  0  0  0  0  0  0  0  0  0  0
   21.2502   19.1278   22.9581 H   0  0  0  0  0  0  0  0  0  0  0  0
   20.9158   20.8340   23.1901 H   0  0  0  0  0  0  0  0  0  0  0  0
   20.3128   20.0981   21.2461 C   0  0  0  0  0  0  0  0  0  0  0  0
   19.6495   20.9565   21.0717 H   0  0  0  0  0  0  0  0  0  0  0  0
   21.2807   20.3727   20.8045 H   0  0  0  0  0  0  0  0  0  0  0  0
   19.7476   18.8687   20.4896 C   0  0  0  0  0  0  0  0  0  0  0  0
   19.6586   19.1246   19.4245 H   0  0  0  0  0  0  0  0  0  0  0  0
   18.7272   18.6487   20.8308 H   0  0  0  0  0  0  0  0  0  0  0  0
   20.6270   17.6048   20.6253 C   0  0  0  0  0  0  0  0  0  0  0  0
   21.6586   17.8059   20.3086 H   0  0  0  0  0  0  0  0  0  0  0  0
   20.2351   16.7945   19.9971 H   0  0  0  0  0  0  0  0  0  0  0  0
   20.6493   17.2390   21.6592 H   0  0  0  0  0  0  0  0  0  0  0  0
   20.3882   18.5252   27.0672 C   0  0  0  0  0  0  0  0  0  0  0  0
   20.7705   19.5034   27.3669 H   0  0  0  0  0  0  0  0  0  0  0  0
   19.3953   18.3691   27.4946 H   0  0  0  0  0  0  0  0  0  0  0  0
   21.0662   17.7421   27.4136 H   0  0  0  0  0  0  0  0  0  0  0  0
  1  2  1  0  0  0  0
  1  3  1  0  0  0  0
  1  4  1  0  0  0  0
  4  5  1  0  0  0  0
  4  6  1  0  0  0  0
  4  7  1  0  0  0  0
  7  8  1  0  0  0  0
  7  9  1  0  0  0  0
  7 10  1  0  0  0  0
 10 11  1  0  0  0  0
 10 12  1  0  0  0  0
 10 13  1  0  0  0  0
 13 14  1  0  0  0  0
 13 15  1  0  0  0  0
 13 16  1  0  0  0  0
 16 17  1  0  0  0  0
 16 18  1  0  0  0  0
 16 19  1  0  0  0  0
 19 20  1  0  0  0  0
 19 21  1  0  0  0  0
 19 22  1  0  0  0  0
  1 23  1  0  0  0  0
 23 24  1  0  0  0  0
 23 25  1  0  0  0  0
 23 26  1  0  0  0  0
M  END
> <VM2 Rank>
84

> <Conf_Id>
534

> <Probability>
0.25

> <Sum Probability>
94.33

> <Delta G>
1.967

> <G>
77.433

> <E>
44.747

> <-TS>
32.686

> <U+W>
23.285

> <U>
72.709

> <W>
-49.424

> <W(PB)>
-51.677

> <W(SA)>
2.253

> <Valence>
2.790

> <Coulomb>
69.679

> <VdW>
0.240

> <VdW6>
-7.473

> <VdW12>
7.714

> <Bond>
0.222

> <Angle>
1.030

> <Pdih>
1.538

> <Idih>
0.000

> <Tether>
0.000

$$$$
VeraChem MOL file


 26 25  0  0  0  0  0  0  0  0999 V2000     
   19.7807   18.9297   26.4154 N   0  3  0  0  0  0  0  0  0  0  0  0
   20.1229   19.1308   27.3684 H   0  0  0  0  0  0  0  0  0  0  0  0
   19.2503   18.0497   26.5081 H   0  0  0  0  0  0  0  0  0  0  0  0
   20.9738   18.7292   25.4907 C   0  0  0  0  0  0  0  0  0  0  0  0
   21.6378   18.0269   26.0014 H   0  0  0  0  0  0  0  0  0  0  0  0
   21.5053   19.6795   25.3977 H   0  0  0  0  0  0  0  0  0  0  0  0
   20.6563   18.1562   24.0912 C   0  0  0  0  0  0  0  0  0  0  0  0
   21.5183   17.5567   23.7699 H   0  0  0  0  0  0  0  0  0  0  0  0
   19.8056   17.4647   24.1527 H   0  0  0  0  0  0  0  0  0  0  0  0
   20.3967   19.2474   23.0244 C   0  0  0  0  0  0  0  0  0  0  0  0
   21.2573   19.9294   22.9848 H   0  0  0  0  0  0  0  0  0  0  0  0
   19.5272   19.8545   23.3022 H   0  0  0  0  0  0  0  0  0  0  0  0
   20.1596   18.6360   21.6246 C   0  0  0  0  0  0  0  0  0  0  0  0
   21.0320   18.0350   21.3327 H   0  0  0  0  0  0  0  0  0  0  0  0
   19.3011   17.9512   21.6637 H   0  0  0  0  0  0  0  0  0  0  0  0
   19.9030   19.7226   20.5565 C   0  0  0  0  0  0  0  0  0  0  0  0
   20.7600   20.4094   20.5124 H   0  0  0  0  0  0  0  0  0  0  0  0
   19.0290   20.3248   20.8419 H   0  0  0  0  0  0  0  0  0  0  0  0
   19.6671   19.1082   19.1602 C   0  0  0  0  0  0  0  0  0  0  0  0
   19.4869   19.8947   18.4160 H   0  0  0  0  0  0  0  0  0  0  0  0
   18.7944   18.4421   19.1642 H   0  0  0  0  0  0  0  0  0  0  0  0
   20.5389   18.5274   18.8319 H   0  0  0  0  0  0  0  0  0  0  0  0
   18.8709   20.0608   25.9539 C   0  0  0  0  0  0  0  0  0  0  0  0
   19.4630   20.9692   25.8237 H   0  0  0  0  0  0  0  0  0  0  0  0
   18.3997   19.7814   25.0102 H   0  0  0  0  0  0  0  0  0  0  0  0
   18.0997   20.2278   26.7092 H   0  0  0  0  0  0  0  0  0  0  0  0
  1  2  1  0  0  0  0
  1  3  1  0  0  0  0
  1  4  1  0  0  0  0
  4  5  1  0  0  0  0
  4  6  1  0  0  0  0
  4  7  1  0  0  0  0
  7  8  1  0  0  0  0
  7  9  1  0  0  0  0
  7 10  1  0  0  0  0
 10 11  1  0  0  0  0
 10 12  1  0  0  0  0
 10 13  1  0  0  0  0
 13 14  1  0  0  0  0
 13 15  1  0  0  0  0
 13 16  1  0  0  0  0
 16 17  1  0  0  0  0
 16 18  1  0  0  0  0
 16 19  1  0  0  0  0
 19 20  1  0  0  0  0
 19 21  1  0  0  0  0
 19 22  1  0  0  0  0
  1 23  1  0  0  0  0
 23 24  1  0  0  0  0
 23 25  1  0  0  0  0
 23 26  1  0  0  0  0
M  END
> <VM2 Rank>
85

> <Conf_Id>
759

> <Probability>
0.24

> <Sum Probability>
94.57

> <Delta G>
1.975

> <G>
77.441

> <E>
45.216

> <-TS>
32.225

> <U+W>
23.755

> <U>
72.994

> <W>
-49.239

> <W(PB)>
-51.517

> <W(SA)>
2.277

> <Valence>
3.858

> <Coulomb>
68.737

> <VdW>
0.399

> <VdW6>
-6.843

> <VdW12>
7.242

> <Bond>
0.196

> <Angle>
0.971

> <Pdih>
2.691

> <Idih>
0.000

> <Tether>
0.000

$$$$
VeraChem MOL file


 26 25  0  0  0  0  0  0  0  0999 V2000     
   20.1780   18.5100   26.0021 N   0  3  0  0  0  0  0  0  0  0  0  0
   21.1130   18.2716   25.6394 H   0  0  0  0  0  0  0  0  0  0  0  0
   19.9884   17.8086   26.7355 H   0  0  0  0  0  0  0  0  0  0  0  0
   19.1403   18.3841   24.8973 C   0  0  0  0  0  0  0  0  0  0  0  0
   18.1708   18.6540   25.3237 H   0  0  0  0  0  0  0  0  0  0  0  0
   19.0979   17.3310   24.6076 H   0  0  0  0  0  0  0  0  0  0  0  0
   19.4056   19.2399   23.6392 C   0  0  0  0  0  0  0  0  0  0  0  0
   18.5649   19.0924   22.9501 H   0  0  0  0  0  0  0  0  0  0  0  0
   19.4056   20.3046   23.9054 H   0  0  0  0  0  0  0  0  0  0  0  0
   20.7331   18.8699   22.9312 C   0  0  0  0  0  0  0  0  0  0  0  0
   20.7207   17.8085   22.6497 H   0  0  0  0  0  0  0  0  0  0  0  0
   21.5660   18.9861   23.6371 H   0  0  0  0  0  0  0  0  0  0  0  0
   21.0369   19.7443   21.6869 C   0  0  0  0  0  0  0  0  0  0  0  0
   21.1512   20.7899   22.0045 H   0  0  0  0  0  0  0  0  0  0  0  0
   22.0126   19.4471   21.2783 H   0  0  0  0  0  0  0  0  0  0  0  0
   19.9807   19.6794   20.5538 C   0  0  0  0  0  0  0  0  0  0  0  0
   20.3094   20.3315   19.7326 H   0  0  0  0  0  0  0  0  0  0  0  0
   19.0249   20.0943   20.9003 H   0  0  0  0  0  0  0  0  0  0  0  0
   19.7605   18.2539   19.9984 C   0  0  0  0  0  0  0  0  0  0  0  0
   20.7069   17.8103   19.6632 H   0  0  0  0  0  0  0  0  0  0  0  0
   19.0777   18.2771   19.1393 H   0  0  0  0  0  0  0  0  0  0  0  0
   19.3183   17.5919   20.7533 H   0  0  0  0  0  0  0  0  0  0  0  0
   20.1729   19.9086   26.6082 C   0  0  0  0  0  0  0  0  0  0  0  0
   20.4374   20.6366   25.8386 H   0  0  0  0  0  0  0  0  0  0  0  0
   19.1766   20.1267   26.9987 H   0  0  0  0  0  0  0  0  0  0  0  0
   20.9039   19.9494   27.4188 H   0  0  0  0  0  0  0  0  0  0  0  0
  1  2  1  0  0  0  0
  1  3  1  0  0  0  0
  1  4  1  0  0  0  0
  4  5  1  0  0  0  0
  4  6  1  0  0  0  0
  4  7  1  0  0  0  0
  7  8  1  0  0  0  0
  7  9  1  0  0  0  0
  7 10  1  0  0  0  0
 10 11  1  0  0  0  0
 10 12  1  0  0  0  0
 10 13  1  0  0  0  0
 13 14  1  0  0  0  0
 13 15  1  0  0  0  0
 13 16  1  0  0  0  0
 16 17  1  0  0  0  0
 16 18  1  0  0  0  0
 16 19  1  0  0  0  0
 19 20  1  0  0  0  0
 19 21  1  0  0  0  0
 19 22  1  0  0  0  0
  1 23  1  0  0  0  0
 23 24  1  0  0  0  0
 23 25  1  0  0  0  0
 23 26  1  0  0  0  0
M  END
> <VM2 Rank>
86

> <Conf_Id>
533

> <Probability>
0.24

> <Sum Probability>
94.81

> <Delta G>
1.981

> <G>
77.448

> <E>
44.560

> <-TS>
32.888

> <U+W>
23.098

> <U>
72.739

> <W>
-49.641

> <W(PB)>
-51.847

> <W(SA)>
2.206

> <Valence>
3.076

> <Coulomb>
69.128

> <VdW>
0.535

> <VdW6>
-8.276

> <VdW12>
8.811

> <Bond>
0.270

> <Angle>
1.277

> <Pdih>
1.529

> <Idih>
0.000

> <Tether>
0.000

$$$$
VeraChem MOL file


 26 25  0  0  0  0  0  0  0  0999 V2000     
   19.8512   18.4766   25.9905 N   0  3  0  0  0  0  0  0  0  0  0  0
   20.1271   17.8229   26.7405 H   0  0  0  0  0  0  0  0  0  0  0  0
   19.0115   18.0564   25.5651 H   0  0  0  0  0  0  0  0  0  0  0  0
   20.9676   18.5711   24.9620 C   0  0  0  0  0  0  0  0  0  0  0  0
   21.2423   17.5506   24.6835 H   0  0  0  0  0  0  0  0  0  0  0  0
   21.8301   19.0286   25.4533 H   0  0  0  0  0  0  0  0  0  0  0  0
   20.6233   19.3645   23.6823 C   0  0  0  0  0  0  0  0  0  0  0  0
   20.3891   20.4053   23.9403 H   0  0  0  0  0  0  0  0  0  0  0  0
   21.5226   19.3953   23.0549 H   0  0  0  0  0  0  0  0  0  0  0  0
   19.4511   18.7386   22.8858 C   0  0  0  0  0  0  0  0  0  0  0  0
   18.5645   18.6787   23.5307 H   0  0  0  0  0  0  0  0  0  0  0  0
   19.6977   17.7037   22.6134 H   0  0  0  0  0  0  0  0  0  0  0  0
   19.0645   19.5424   21.6170 C   0  0  0  0  0  0  0  0  0  0  0  0
   18.2002   19.0567   21.1432 H   0  0  0  0  0  0  0  0  0  0  0  0
   18.7189   20.5409   21.9183 H   0  0  0  0  0  0  0  0  0  0  0  0
   20.1886   19.7007   20.5612 C   0  0  0  0  0  0  0  0  0  0  0  0
   21.0141   20.2980   20.9708 H   0  0  0  0  0  0  0  0  0  0  0  0
   19.7931   20.2787   19.7143 H   0  0  0  0  0  0  0  0  0  0  0  0
   20.7312   18.3533   20.0328 C   0  0  0  0  0  0  0  0  0  0  0  0
   19.9200   17.7298   19.6352 H   0  0  0  0  0  0  0  0  0  0  0  0
   21.2442   17.7890   20.8215 H   0  0  0  0  0  0  0  0  0  0  0  0
   21.4536   18.5204   19.2235 H   0  0  0  0  0  0  0  0  0  0  0  0
   19.5306   19.8429   26.5855 C   0  0  0  0  0  0  0  0  0  0  0  0
   19.1786   20.5076   25.7940 H   0  0  0  0  0  0  0  0  0  0  0  0
   18.7517   19.7291   27.3428 H   0  0  0  0  0  0  0  0  0  0  0  0
   20.4324   20.2555   27.0430 H   0  0  0  0  0  0  0  0  0  0  0  0
  1  2  1  0  0  0  0
  1  3  1  0  0  0  0
  1  4  1  0  0  0  0
  4  5  1  0  0  0  0
  4  6  1  0  0  0  0
  4  7  1  0  0  0  0
  7  8  1  0  0  0  0
  7  9  1  0  0  0  0
  7 10  1  0  0  0  0
 10 11  1  0  0  0  0
 10 12  1  0  0  0  0
 10 13  1  0  0  0  0
 13 14  1  0  0  0  0
 13 15  1  0  0  0  0
 13 16  1  0  0  0  0
 16 17  1  0  0  0  0
 16 18  1  0  0  0  0
 16 19  1  0  0  0  0
 19 20  1  0  0  0  0
 19 21  1  0  0  0  0
 19 22  1  0  0  0  0
  1 23  1  0  0  0  0
 23 24  1  0  0  0  0
 23 25  1  0  0  0  0
 23 26  1  0  0  0  0
M  END
> <VM2 Rank>
87

> <Conf_Id>
1590

> <Probability>
0.24

> <Sum Probability>
95.05

> <Delta G>
1.997

> <G>
77.464

> <E>
44.575

> <-TS>
32.888

> <U+W>
23.114

> <U>
72.739

> <W>
-49.625

> <W(PB)>
-51.868

> <W(SA)>
2.243

> <Valence>
3.076

> <Coulomb>
69.128

> <VdW>
0.535

> <VdW6>
-8.276

> <VdW12>
8.810

> <Bond>
0.270

> <Angle>
1.278

> <Pdih>
1.529

> <Idih>
0.000

> <Tether>
0.000

$$$$
VeraChem MOL file


 26 25  0  0  0  0  0  0  0  0999 V2000     
   20.0441   18.2296   25.4993 N   0  3  0  0  0  0  0  0  0  0  0  0
   20.5304   17.3708   25.8023 H   0  0  0  0  0  0  0  0  0  0  0  0
   19.2219   17.9026   24.9705 H   0  0  0  0  0  0  0  0  0  0  0  0
   20.9564   19.0398   24.5922 C   0  0  0  0  0  0  0  0  0  0  0  0
   21.3496   18.3600   23.8323 H   0  0  0  0  0  0  0  0  0  0  0  0
   21.7975   19.3911   25.1952 H   0  0  0  0  0  0  0  0  0  0  0  0
   20.2830   20.2414   23.8920 C   0  0  0  0  0  0  0  0  0  0  0  0
   19.9611   20.9701   24.6470 H   0  0  0  0  0  0  0  0  0  0  0  0
   21.0342   20.7607   23.2835 H   0  0  0  0  0  0  0  0  0  0  0  0
   19.0693   19.8555   23.0062 C   0  0  0  0  0  0  0  0  0  0  0  0
   18.6837   20.7620   22.5197 H   0  0  0  0  0  0  0  0  0  0  0  0
   18.2544   19.4944   23.6479 H   0  0  0  0  0  0  0  0  0  0  0  0
   19.3654   18.7866   21.9222 C   0  0  0  0  0  0  0  0  0  0  0  0
   19.6645   17.8418   22.3951 H   0  0  0  0  0  0  0  0  0  0  0  0
   18.4321   18.5726   21.3832 H   0  0  0  0  0  0  0  0  0  0  0  0
   20.4445   19.2225   20.9030 C   0  0  0  0  0  0  0  0  0  0  0  0
   21.4062   19.3746   21.4109 H   0  0  0  0  0  0  0  0  0  0  0  0
   20.1645   20.1865   20.4557 H   0  0  0  0  0  0  0  0  0  0  0  0
   20.6291   18.1739   19.7854 C   0  0  0  0  0  0  0  0  0  0  0  0
   21.3991   18.4978   19.0733 H   0  0  0  0  0  0  0  0  0  0  0  0
   19.6962   18.0233   19.2266 H   0  0  0  0  0  0  0  0  0  0  0  0
   20.9394   17.2058   20.1998 H   0  0  0  0  0  0  0  0  0  0  0  0
   19.6160   19.0407   26.7167 C   0  0  0  0  0  0  0  0  0  0  0  0
   19.0506   19.9148   26.3874 H   0  0  0  0  0  0  0  0  0  0  0  0
   18.9890   18.4180   27.3586 H   0  0  0  0  0  0  0  0  0  0  0  0
   20.5047   19.3591   27.2660 H   0  0  0  0  0  0  0  0  0  0  0  0
  1  2  1  0  0  0  0
  1  3  1  0  0  0  0
  1  4  1  0  0  0  0
  4  5  1  0  0  0  0
  4  6  1  0  0  0  0
  4  7  1  0  0  0  0
  7  8  1  0  0  0  0
  7  9  1  0  0  0  0
  7 10  1  0  0  0  0
 10 11  1  0  0  0  0
 10 12  1  0  0  0  0
 10 13  1  0  0  0  0
 13 14  1  0  0  0  0
 13 15  1  0  0  0  0
 13 16  1  0  0  0  0
 16 17  1  0  0  0  0
 16 18  1  0  0  0  0
 16 19  1  0  0  0  0
 19 20  1  0  0  0  0
 19 21  1  0  0  0  0
 19 22  1  0  0  0  0
  1 23  1  0  0  0  0
 23 24  1  0  0  0  0
 23 25  1  0  0  0  0
 23 26  1  0  0  0  0
M  END
> <VM2 Rank>
88

> <Conf_Id>
1046

> <Probability>
0.23

> <Sum Probability>
95.28

> <Delta G>
2.012

> <G>
77.478

> <E>
44.553

> <-TS>
32.926

> <U+W>
23.091

> <U>
72.939

> <W>
-49.849

> <W(PB)>
-52.092

> <W(SA)>
2.244

> <Valence>
2.864

> <Coulomb>
69.814

> <VdW>
0.261

> <VdW6>
-8.512

> <VdW12>
8.773

> <Bond>
0.254

> <Angle>
1.081

> <Pdih>
1.529

> <Idih>
0.000

> <Tether>
0.000

$$$$
VeraChem MOL file


 26 25  0  0  0  0  0  0  0  0999 V2000     
   20.0726   18.2324   25.5003 N   0  3  0  0  0  0  0  0  0  0  0  0
   20.9787   18.0812   25.0327 H   0  0  0  0  0  0  0  0  0  0  0  0
   19.7489   17.2913   25.7745 H   0  0  0  0  0  0  0  0  0  0  0  0
   19.0819   18.8492   24.5258 C   0  0  0  0  0  0  0  0  0  0  0  0
   18.1472   19.0200   25.0659 H   0  0  0  0  0  0  0  0  0  0  0  0
   18.8876   18.1097   23.7450 H   0  0  0  0  0  0  0  0  0  0  0  0
   19.5474   20.1667   23.8659 C   0  0  0  0  0  0  0  0  0  0  0  0
   18.7517   20.5287   23.2026 H   0  0  0  0  0  0  0  0  0  0  0  0
   19.6625   20.9398   24.6364 H   0  0  0  0  0  0  0  0  0  0  0  0
   20.8729   20.0389   23.0701 C   0  0  0  0  0  0  0  0  0  0  0  0
   21.6968   19.8445   23.7699 H   0  0  0  0  0  0  0  0  0  0  0  0
   21.1015   21.0079   22.6053 H   0  0  0  0  0  0  0  0  0  0  0  0
   20.8744   18.9400   21.9757 C   0  0  0  0  0  0  0  0  0  0  0  0
   21.8671   18.9218   21.5050 H   0  0  0  0  0  0  0  0  0  0  0  0
   20.7390   17.9511   22.4332 H   0  0  0  0  0  0  0  0  0  0  0  0
   19.8038   19.1574   20.8804 C   0  0  0  0  0  0  0  0  0  0  0  0
   19.9150   20.1611   20.4468 H   0  0  0  0  0  0  0  0  0  0  0  0
   18.7980   19.1094   21.3185 H   0  0  0  0  0  0  0  0  0  0  0  0
   19.9126   18.1010   19.7601 C   0  0  0  0  0  0  0  0  0  0  0  0
   20.8935   18.1450   19.2691 H   0  0  0  0  0  0  0  0  0  0  0  0
   19.1450   18.2685   18.9934 H   0  0  0  0  0  0  0  0  0  0  0  0
   19.7749   17.0874   20.1586 H   0  0  0  0  0  0  0  0  0  0  0  0
   20.2425   19.1043   26.7389 C   0  0  0  0  0  0  0  0  0  0  0  0
   20.9352   18.6157   27.4277 H   0  0  0  0  0  0  0  0  0  0  0  0
   20.6425   20.0765   26.4438 H   0  0  0  0  0  0  0  0  0  0  0  0
   19.2717   19.2338   27.2222 H   0  0  0  0  0  0  0  0  0  0  0  0
  1  2  1  0  0  0  0
  1  3  1  0  0  0  0
  1  4  1  0  0  0  0
  4  5  1  0  0  0  0
  4  6  1  0  0  0  0
  4  7  1  0  0  0  0
  7  8  1  0  0  0  0
  7  9  1  0  0  0  0
  7 10  1  0  0  0  0
 10 11  1  0  0  0  0
 10 12  1  0  0  0  0
 10 13  1  0  0  0  0
 13 14  1  0  0  0  0
 13 15  1  0  0  0  0
 13 16  1  0  0  0  0
 16 17  1  0  0  0  0
 16 18  1  0  0  0  0
 16 19  1  0  0  0  0
 19 20  1  0  0  0  0
 19 21  1  0  0  0  0
 19 22  1  0  0  0  0
  1 23  1  0  0  0  0
 23 24  1  0  0  0  0
 23 25  1  0  0  0  0
 23 26  1  0  0  0  0
M  END
> <VM2 Rank>
89

> <Conf_Id>
1629

> <Probability>
0.23

> <Sum Probability>
95.50

> <Delta G>
2.021

> <G>
77.487

> <E>
44.562

> <-TS>
32.926

> <U+W>
23.100

> <U>
72.940

> <W>
-49.840

> <W(PB)>
-52.062

> <W(SA)>
2.222

> <Valence>
2.864

> <Coulomb>
69.814

> <VdW>
0.261

> <VdW6>
-8.512

> <VdW12>
8.773

> <Bond>
0.254

> <Angle>
1.081

> <Pdih>
1.530

> <Idih>
0.000

> <Tether>
0.000

$$$$
VeraChem MOL file


 26 25  0  0  0  0  0  0  0  0999 V2000     
   20.6246   19.6441   25.5881 N   0  3  0  0  0  0  0  0  0  0  0  0
   20.7344   20.3053   24.8048 H   0  0  0  0  0  0  0  0  0  0  0  0
   21.4967   19.7250   26.1345 H   0  0  0  0  0  0  0  0  0  0  0  0
   20.4856   18.2268   25.0554 C   0  0  0  0  0  0  0  0  0  0  0  0
   20.3528   17.5618   25.9125 H   0  0  0  0  0  0  0  0  0  0  0  0
   21.4305   17.9651   24.5733 H   0  0  0  0  0  0  0  0  0  0  0  0
   19.3297   18.0132   24.0516 C   0  0  0  0  0  0  0  0  0  0  0  0
   19.3324   16.9625   23.7328 H   0  0  0  0  0  0  0  0  0  0  0  0
   18.3711   18.1702   24.5627 H   0  0  0  0  0  0  0  0  0  0  0  0
   19.3976   18.9262   22.8014 C   0  0  0  0  0  0  0  0  0  0  0  0
   19.3158   19.9788   23.1036 H   0  0  0  0  0  0  0  0  0  0  0  0
   18.5169   18.7179   22.1802 H   0  0  0  0  0  0  0  0  0  0  0  0
   20.6843   18.7181   21.9625 C   0  0  0  0  0  0  0  0  0  0  0  0
   21.5669   18.8967   22.5905 H   0  0  0  0  0  0  0  0  0  0  0  0
   20.7463   17.6715   21.6339 H   0  0  0  0  0  0  0  0  0  0  0  0
   20.7744   19.6517   20.7309 C   0  0  0  0  0  0  0  0  0  0  0  0
   21.7596   19.5207   20.2616 H   0  0  0  0  0  0  0  0  0  0  0  0
   20.7262   20.7008   21.0546 H   0  0  0  0  0  0  0  0  0  0  0  0
   19.6809   19.3834   19.6717 C   0  0  0  0  0  0  0  0  0  0  0  0
   19.8494   20.0023   18.7809 H   0  0  0  0  0  0  0  0  0  0  0  0
   18.6808   19.6228   20.0536 H   0  0  0  0  0  0  0  0  0  0  0  0
   19.6865   18.3323   19.3554 H   0  0  0  0  0  0  0  0  0  0  0  0
   19.4309   20.0265   26.4554 C   0  0  0  0  0  0  0  0  0  0  0  0
   18.5216   19.9956   25.8516 H   0  0  0  0  0  0  0  0  0  0  0  0
   19.3496   19.3207   27.2848 H   0  0  0  0  0  0  0  0  0  0  0  0
   19.5801   21.0364   26.8437 H   0  0  0  0  0  0  0  0  0  0  0  0
  1  2  1  0  0  0  0
  1  3  1  0  0  0  0
  1  4  1  0  0  0  0
  4  5  1  0  0  0  0
  4  6  1  0  0  0  0
  4  7  1  0  0  0  0
  7  8  1  0  0  0  0
  7  9  1  0  0  0  0
  7 10  1  0  0  0  0
 10 11  1  0  0  0  0
 10 12  1  0  0  0  0
 10 13  1  0  0  0  0
 13 14  1  0  0  0  0
 13 15  1  0  0  0  0
 13 16  1  0  0  0  0
 16 17  1  0  0  0  0
 16 18  1  0  0  0  0
 16 19  1  0  0  0  0
 19 20  1  0  0  0  0
 19 21  1  0  0  0  0
 19 22  1  0  0  0  0
  1 23  1  0  0  0  0
 23 24  1  0  0  0  0
 23 25  1  0  0  0  0
 23 26  1  0  0  0  0
M  END
> <VM2 Rank>
90

> <Conf_Id>
1015

> <Probability>
0.21

> <Sum Probability>
95.71

> <Delta G>
2.068

> <G>
77.535

> <E>
44.759

> <-TS>
32.776

> <U+W>
23.297

> <U>
73.041

> <W>
-49.744

> <W(PB)>
-51.968

> <W(SA)>
2.224

> <Valence>
2.938

> <Coulomb>
69.625

> <VdW>
0.478

> <VdW6>
-8.181

> <VdW12>
8.660

> <Bond>
0.253

> <Angle>
1.038

> <Pdih>
1.647

> <Idih>
0.000

> <Tether>
0.000

$$$$
VeraChem MOL file


 26 25  0  0  0  0  0  0  0  0999 V2000     
   19.2138   19.4987   25.5379 N   0  3  0  0  0  0  0  0  0  0  0  0
   18.3076   19.3964   26.0216 H   0  0  0  0  0  0  0  0  0  0  0  0
   19.0265   20.1291   24.7440 H   0  0  0  0  0  0  0  0  0  0  0  0
   19.6755   18.1432   25.0268 C   0  0  0  0  0  0  0  0  0  0  0  0
   18.8398   17.6978   24.4817 H   0  0  0  0  0  0  0  0  0  0  0  0
   19.8806   17.5132   25.8960 H   0  0  0  0  0  0  0  0  0  0  0  0
   20.9180   18.1765   24.1079 C   0  0  0  0  0  0  0  0  0  0  0  0
   21.7865   18.5216   24.6837 H   0  0  0  0  0  0  0  0  0  0  0  0
   21.1515   17.1496   23.7971 H   0  0  0  0  0  0  0  0  0  0  0  0
   20.7534   19.0657   22.8495 C   0  0  0  0  0  0  0  0  0  0  0  0
   21.6993   19.0452   22.2929 H   0  0  0  0  0  0  0  0  0  0  0  0
   20.5983   20.1107   23.1492 H   0  0  0  0  0  0  0  0  0  0  0  0
   19.5977   18.6065   21.9243 C   0  0  0  0  0  0  0  0  0  0  0  0
   19.7728   17.5715   21.5996 H   0  0  0  0  0  0  0  0  0  0  0  0
   18.6555   18.5975   22.4878 H   0  0  0  0  0  0  0  0  0  0  0  0
   19.4060   19.5111   20.6827 C   0  0  0  0  0  0  0  0  0  0  0  0
   19.2175   20.5458   21.0015 H   0  0  0  0  0  0  0  0  0  0  0  0
   18.5032   19.1862   20.1468 H   0  0  0  0  0  0  0  0  0  0  0  0
   20.6025   19.4781   19.7044 C   0  0  0  0  0  0  0  0  0  0  0  0
   20.3744   20.0563   18.7996 H   0  0  0  0  0  0  0  0  0  0  0  0
   20.8325   18.4500   19.3959 H   0  0  0  0  0  0  0  0  0  0  0  0
   21.5040   19.9128   20.1534 H   0  0  0  0  0  0  0  0  0  0  0  0
   20.2411   20.1102   26.4835 C   0  0  0  0  0  0  0  0  0  0  0  0
   21.1774   20.2695   25.9449 H   0  0  0  0  0  0  0  0  0  0  0  0
   19.8625   21.0659   26.8529 H   0  0  0  0  0  0  0  0  0  0  0  0
   20.4064   19.4301   27.3218 H   0  0  0  0  0  0  0  0  0  0  0  0
  1  2  1  0  0  0  0
  1  3  1  0  0  0  0
  1  4  1  0  0  0  0
  4  5  1  0  0  0  0
  4  6  1  0  0  0  0
  4  7  1  0  0  0  0
  7  8  1  0  0  0  0
  7  9  1  0  0  0  0
  7 10  1  0  0  0  0
 10 11  1  0  0  0  0
 10 12  1  0  0  0  0
 10 13  1  0  0  0  0
 13 14  1  0  0  0  0
 13 15  1  0  0  0  0
 13 16  1  0  0  0  0
 16 17  1  0  0  0  0
 16 18  1  0  0  0  0
 16 19  1  0  0  0  0
 19 20  1  0  0  0  0
 19 21  1  0  0  0  0
 19 22  1  0  0  0  0
  1 23  1  0  0  0  0
 23 24  1  0  0  0  0
 23 25  1  0  0  0  0
 23 26  1  0  0  0  0
M  END
> <VM2 Rank>
91

> <Conf_Id>
690

> <Probability>
0.21

> <Sum Probability>
95.92

> <Delta G>
2.069

> <G>
77.535

> <E>
44.759

> <-TS>
32.776

> <U+W>
23.297

> <U>
73.042

> <W>
-49.745

> <W(PB)>
-52.024

> <W(SA)>
2.279

> <Valence>
2.938

> <Coulomb>
69.626

> <VdW>
0.478

> <VdW6>
-8.183

> <VdW12>
8.661

> <Bond>
0.253

> <Angle>
1.038

> <Pdih>
1.647

> <Idih>
0.000

> <Tether>
0.000

$$$$
VeraChem MOL file


 26 25  0  0  0  0  0  0  0  0999 V2000     
   20.4140   19.0043   26.2207 N   0  3  0  0  0  0  0  0  0  0  0  0
   21.3216   18.6321   25.9026 H   0  0  0  0  0  0  0  0  0  0  0  0
   20.3606   18.7566   27.2214 H   0  0  0  0  0  0  0  0  0  0  0  0
   19.2746   18.3283   25.4747 C   0  0  0  0  0  0  0  0  0  0  0  0
   18.4082   18.9940   25.4970 H   0  0  0  0  0  0  0  0  0  0  0  0
   19.0175   17.4296   26.0413 H   0  0  0  0  0  0  0  0  0  0  0  0
   19.5893   17.9033   24.0229 C   0  0  0  0  0  0  0  0  0  0  0  0
   20.4332   17.2008   24.0239 H   0  0  0  0  0  0  0  0  0  0  0  0
   18.7244   17.3461   23.6391 H   0  0  0  0  0  0  0  0  0  0  0  0
   19.8929   19.0848   23.0720 C   0  0  0  0  0  0  0  0  0  0  0  0
   20.8220   19.5800   23.3830 H   0  0  0  0  0  0  0  0  0  0  0  0
   19.0887   19.8303   23.1434 H   0  0  0  0  0  0  0  0  0  0  0  0
   20.0384   18.6199   21.6050 C   0  0  0  0  0  0  0  0  0  0  0  0
   20.8385   17.8700   21.5349 H   0  0  0  0  0  0  0  0  0  0  0  0
   19.1115   18.1265   21.2813 H   0  0  0  0  0  0  0  0  0  0  0  0
   20.3521   19.7980   20.6557 C   0  0  0  0  0  0  0  0  0  0  0  0
   21.2804   20.2935   20.9729 H   0  0  0  0  0  0  0  0  0  0  0  0
   19.5533   20.5501   20.7211 H   0  0  0  0  0  0  0  0  0  0  0  0
   20.4962   19.3305   19.1916 C   0  0  0  0  0  0  0  0  0  0  0  0
   19.5706   18.8609   18.8340 H   0  0  0  0  0  0  0  0  0  0  0  0
   21.3111   18.6021   19.0880 H   0  0  0  0  0  0  0  0  0  0  0  0
   20.7187   20.1803   18.5334 H   0  0  0  0  0  0  0  0  0  0  0  0
   20.3505   20.5209   26.0745 C   0  0  0  0  0  0  0  0  0  0  0  0
   21.1712   20.9681   26.6396 H   0  0  0  0  0  0  0  0  0  0  0  0
   20.4387   20.7938   25.0222 H   0  0  0  0  0  0  0  0  0  0  0  0
   19.3964   20.8778   26.4684 H   0  0  0  0  0  0  0  0  0  0  0  0
  1  2  1  0  0  0  0
  1  3  1  0  0  0  0
  1  4  1  0  0  0  0
  4  5  1  0  0  0  0
  4  6  1  0  0  0  0
  4  7  1  0  0  0  0
  7  8  1  0  0  0  0
  7  9  1  0  0  0  0
  7 10  1  0  0  0  0
 10 11  1  0  0  0  0
 10 12  1  0  0  0  0
 10 13  1  0  0  0  0
 13 14  1  0  0  0  0
 13 15  1  0  0  0  0
 13 16  1  0  0  0  0
 16 17  1  0  0  0  0
 16 18  1  0  0  0  0
 16 19  1  0  0  0  0
 19 20  1  0  0  0  0
 19 21  1  0  0  0  0
 19 22  1  0  0  0  0
  1 23  1  0  0  0  0
 23 24  1  0  0  0  0
 23 25  1  0  0  0  0
 23 26  1  0  0  0  0
M  END
> <VM2 Rank>
92

> <Conf_Id>
1598

> <Probability>
0.20

> <Sum Probability>
96.12

> <Delta G>
2.104

> <G>
77.570

> <E>
45.060

> <-TS>
32.510

> <U+W>
23.598

> <U>
72.879

> <W>
-49.281

> <W(PB)>
-51.581

> <W(SA)>
2.300

> <Valence>
3.733

> <Coulomb>
68.869

> <VdW>
0.277

> <VdW6>
-6.946

> <VdW12>
7.223

> <Bond>
0.187

> <Angle>
0.835

> <Pdih>
2.712

> <Idih>
0.000

> <Tether>
0.000

$$$$
VeraChem MOL file


 26 25  0  0  0  0  0  0  0  0999 V2000     
   19.5054   18.9112   26.1886 N   0  3  0  0  0  0  0  0  0  0  0  0
   19.5377   18.6723   27.1923 H   0  0  0  0  0  0  0  0  0  0  0  0
   18.7165   18.3651   25.8105 H   0  0  0  0  0  0  0  0  0  0  0  0
   20.8074   18.4854   25.5290 C   0  0  0  0  0  0  0  0  0  0  0  0
   21.2009   17.6533   26.1185 H   0  0  0  0  0  0  0  0  0  0  0  0
   21.5173   19.3126   25.6070 H   0  0  0  0  0  0  0  0  0  0  0  0
   20.6876   18.0159   24.0618 C   0  0  0  0  0  0  0  0  0  0  0  0
   21.6721   17.6481   23.7434 H   0  0  0  0  0  0  0  0  0  0  0  0
   20.0055   17.1571   24.0087 H   0  0  0  0  0  0  0  0  0  0  0  0
   20.2184   19.1182   23.0835 C   0  0  0  0  0  0  0  0  0  0  0  0
   20.8479   20.0105   23.2056 H   0  0  0  0  0  0  0  0  0  0  0  0
   19.1889   19.4128   23.3251 H   0  0  0  0  0  0  0  0  0  0  0  0
   20.2730   18.6440   21.6133 C   0  0  0  0  0  0  0  0  0  0  0  0
   21.3011   18.3508   21.3589 H   0  0  0  0  0  0  0  0  0  0  0  0
   19.6483   17.7481   21.4928 H   0  0  0  0  0  0  0  0  0  0  0  0
   19.7947   19.7408   20.6359 C   0  0  0  0  0  0  0  0  0  0  0  0
   20.4180   20.6387   20.7516 H   0  0  0  0  0  0  0  0  0  0  0  0
   18.7653   20.0359   20.8838 H   0  0  0  0  0  0  0  0  0  0  0  0
   19.8510   19.2643   19.1687 C   0  0  0  0  0  0  0  0  0  0  0  0
   19.2099   18.3868   19.0136 H   0  0  0  0  0  0  0  0  0  0  0  0
   20.8753   18.9944   18.8802 H   0  0  0  0  0  0  0  0  0  0  0  0
   19.5078   20.0561   18.4904 H   0  0  0  0  0  0  0  0  0  0  0  0
   19.2704   20.4102   26.0363 C   0  0  0  0  0  0  0  0  0  0  0  0
   20.1025   20.9502   26.4934 H   0  0  0  0  0  0  0  0  0  0  0  0
   19.2025   20.6671   24.9785 H   0  0  0  0  0  0  0  0  0  0  0  0
   18.3386   20.6778   26.5395 H   0  0  0  0  0  0  0  0  0  0  0  0
  1  2  1  0  0  0  0
  1  3  1  0  0  0  0
  1  4  1  0  0  0  0
  4  5  1  0  0  0  0
  4  6  1  0  0  0  0
  4  7  1  0  0  0  0
  7  8  1  0  0  0  0
  7  9  1  0  0  0  0
  7 10  1  0  0  0  0
 10 11  1  0  0  0  0
 10 12  1  0  0  0  0
 10 13  1  0  0  0  0
 13 14  1  0  0  0  0
 13 15  1  0  0  0  0
 13 16  1  0  0  0  0
 16 17  1  0  0  0  0
 16 18  1  0  0  0  0
 16 19  1  0  0  0  0
 19 20  1  0  0  0  0
 19 21  1  0  0  0  0
 19 22  1  0  0  0  0
  1 23  1  0  0  0  0
 23 24  1  0  0  0  0
 23 25  1  0  0  0  0
 23 26  1  0  0  0  0
M  END
> <VM2 Rank>
93

> <Conf_Id>
1075

> <Probability>
0.20

> <Sum Probability>
96.31

> <Delta G>
2.105

> <G>
77.572

> <E>
45.062

> <-TS>
32.510

> <U+W>
23.600

> <U>
72.879

> <W>
-49.278

> <W(PB)>
-51.547

> <W(SA)>
2.268

> <Valence>
3.733

> <Coulomb>
68.869

> <VdW>
0.277

> <VdW6>
-6.946

> <VdW12>
7.223

> <Bond>
0.187

> <Angle>
0.835

> <Pdih>
2.712

> <Idih>
0.000

> <Tether>
0.000

$$$$
VeraChem MOL file


 26 25  0  0  0  0  0  0  0  0999 V2000     
   20.6769   18.4454   25.3395 N   0  3  0  0  0  0  0  0  0  0  0  0
   21.2649   18.4898   24.4939 H   0  0  0  0  0  0  0  0  0  0  0  0
   20.8947   17.5343   25.7734 H   0  0  0  0  0  0  0  0  0  0  0  0
   19.2072   18.4880   24.9523 C   0  0  0  0  0  0  0  0  0  0  0  0
   18.6199   18.4586   25.8735 H   0  0  0  0  0  0  0  0  0  0  0  0
   18.9918   17.5768   24.3890 H   0  0  0  0  0  0  0  0  0  0  0  0
   18.7864   19.7131   24.1091 C   0  0  0  0  0  0  0  0  0  0  0  0
   17.7144   19.6327   23.8853 H   0  0  0  0  0  0  0  0  0  0  0  0
   18.9014   20.6257   24.7082 H   0  0  0  0  0  0  0  0  0  0  0  0
   19.5751   19.8669   22.7846 C   0  0  0  0  0  0  0  0  0  0  0  0
   20.6339   20.0475   23.0096 H   0  0  0  0  0  0  0  0  0  0  0  0
   19.2154   20.7658   22.2652 H   0  0  0  0  0  0  0  0  0  0  0  0
   19.4276   18.6437   21.8445 C   0  0  0  0  0  0  0  0  0  0  0  0
   19.8556   17.7487   22.3152 H   0  0  0  0  0  0  0  0  0  0  0  0
   18.3594   18.4338   21.6953 H   0  0  0  0  0  0  0  0  0  0  0  0
   20.0858   18.8518   20.4592 C   0  0  0  0  0  0  0  0  0  0  0  0
   19.6473   19.7311   19.9670 H   0  0  0  0  0  0  0  0  0  0  0  0
   19.8440   17.9905   19.8208 H   0  0  0  0  0  0  0  0  0  0  0  0
   21.6225   19.0057   20.5269 C   0  0  0  0  0  0  0  0  0  0  0  0
   22.0474   19.0606   19.5162 H   0  0  0  0  0  0  0  0  0  0  0  0
   22.0834   18.1505   21.0379 H   0  0  0  0  0  0  0  0  0  0  0  0
   21.9137   19.9214   21.0561 H   0  0  0  0  0  0  0  0  0  0  0  0
   21.0265   19.5753   26.3010 C   0  0  0  0  0  0  0  0  0  0  0  0
   20.4015   19.4933   27.1929 H   0  0  0  0  0  0  0  0  0  0  0  0
   22.0794   19.4946   26.5798 H   0  0  0  0  0  0  0  0  0  0  0  0
   20.8487   20.5345   25.8105 H   0  0  0  0  0  0  0  0  0  0  0  0
  1  2  1  0  0  0  0
  1  3  1  0  0  0  0
  1  4  1  0  0  0  0
  4  5  1  0  0  0  0
  4  6  1  0  0  0  0
  4  7  1  0  0  0  0
  7  8  1  0  0  0  0
  7  9  1  0  0  0  0
  7 10  1  0  0  0  0
 10 11  1  0  0  0  0
 10 12  1  0  0  0  0
 10 13  1  0  0  0  0
 13 14  1  0  0  0  0
 13 15  1  0  0  0  0
 13 16  1  0  0  0  0
 16 17  1  0  0  0  0
 16 18  1  0  0  0  0
 16 19  1  0  0  0  0
 19 20  1  0  0  0  0
 19 21  1  0  0  0  0
 19 22  1  0  0  0  0
  1 23  1  0  0  0  0
 23 24  1  0  0  0  0
 23 25  1  0  0  0  0
 23 26  1  0  0  0  0
M  END
> <VM2 Rank>
94

> <Conf_Id>
174

> <Probability>
0.19

> <Sum Probability>
96.50

> <Delta G>
2.140

> <G>
77.606

> <E>
44.798

> <-TS>
32.808

> <U+W>
23.337

> <U>
73.121

> <W>
-49.785

> <W(PB)>
-52.012

> <W(SA)>
2.227

> <Valence>
2.868

> <Coulomb>
69.886

> <VdW>
0.367

> <VdW6>
-8.311

> <VdW12>
8.678

> <Bond>
0.246

> <Angle>
0.961

> <Pdih>
1.661

> <Idih>
0.000

> <Tether>
0.000

$$$$
VeraChem MOL file


 26 25  0  0  0  0  0  0  0  0999 V2000     
   20.7259   18.6312   25.8435 N   0  3  0  0  0  0  0  0  0  0  0  0
   21.6042   18.9276   26.2981 H   0  0  0  0  0  0  0  0  0  0  0  0
   20.8947   17.6576   25.5470 H   0  0  0  0  0  0  0  0  0  0  0  0
   20.4582   19.5106   24.6335 C   0  0  0  0  0  0  0  0  0  0  0  0
   21.3826   19.5486   24.0522 H   0  0  0  0  0  0  0  0  0  0  0  0
   20.2405   20.5198   24.9916 H   0  0  0  0  0  0  0  0  0  0  0  0
   19.3128   19.0180   23.7238 C   0  0  0  0  0  0  0  0  0  0  0  0
   19.5131   17.9879   23.4030 H   0  0  0  0  0  0  0  0  0  0  0  0
   18.3781   18.9849   24.2980 H   0  0  0  0  0  0  0  0  0  0  0  0
   19.1003   19.9261   22.4870 C   0  0  0  0  0  0  0  0  0  0  0  0
   18.7836   20.9214   22.8283 H   0  0  0  0  0  0  0  0  0  0  0  0
   18.2612   19.5360   21.8956 H   0  0  0  0  0  0  0  0  0  0  0  0
   20.3461   20.0890   21.5746 C   0  0  0  0  0  0  0  0  0  0  0  0
   20.0764   20.7315   20.7251 H   0  0  0  0  0  0  0  0  0  0  0  0
   21.1286   20.6346   22.1188 H   0  0  0  0  0  0  0  0  0  0  0  0
   20.9427   18.7659   21.0305 C   0  0  0  0  0  0  0  0  0  0  0  0
   21.3180   18.1495   21.8583 H   0  0  0  0  0  0  0  0  0  0  0  0
   21.8196   19.0052   20.4129 H   0  0  0  0  0  0  0  0  0  0  0  0
   19.9446   17.9470   20.1808 C   0  0  0  0  0  0  0  0  0  0  0  0
   19.1002   17.5907   20.7837 H   0  0  0  0  0  0  0  0  0  0  0  0
   20.4382   17.0662   19.7502 H   0  0  0  0  0  0  0  0  0  0  0  0
   19.5466   18.5472   19.3524 H   0  0  0  0  0  0  0  0  0  0  0  0
   19.5773   18.7022   26.8434 C   0  0  0  0  0  0  0  0  0  0  0  0
   18.6659   18.3254   26.3752 H   0  0  0  0  0  0  0  0  0  0  0  0
   19.8231   18.0895   27.7136 H   0  0  0  0  0  0  0  0  0  0  0  0
   19.4341   19.7401   27.1520 H   0  0  0  0  0  0  0  0  0  0  0  0
  1  2  1  0  0  0  0
  1  3  1  0  0  0  0
  1  4  1  0  0  0  0
  4  5  1  0  0  0  0
  4  6  1  0  0  0  0
  4  7  1  0  0  0  0
  7  8  1  0  0  0  0
  7  9  1  0  0  0  0
  7 10  1  0  0  0  0
 10 11  1  0  0  0  0
 10 12  1  0  0  0  0
 10 13  1  0  0  0  0
 13 14  1  0  0  0  0
 13 15  1  0  0  0  0
 13 16  1  0  0  0  0
 16 17  1  0  0  0  0
 16 18  1  0  0  0  0
 16 19  1  0  0  0  0
 19 20  1  0  0  0  0
 19 21  1  0  0  0  0
 19 22  1  0  0  0  0
  1 23  1  0  0  0  0
 23 24  1  0  0  0  0
 23 25  1  0  0  0  0
 23 26  1  0  0  0  0
M  END
> <VM2 Rank>
95

> <Conf_Id>
791

> <Probability>
0.18

> <Sum Probability>
96.68

> <Delta G>
2.143

> <G>
77.610

> <E>
44.605

> <-TS>
33.005

> <U+W>
23.144

> <U>
72.963

> <W>
-49.820

> <W(PB)>
-52.038

> <W(SA)>
2.218

> <Valence>
3.204

> <Coulomb>
69.346

> <VdW>
0.413

> <VdW6>
-8.434

> <VdW12>
8.847

> <Bond>
0.271

> <Angle>
1.306

> <Pdih>
1.627

> <Idih>
0.000

> <Tether>
0.000

$$$$
VeraChem MOL file


 26 25  0  0  0  0  0  0  0  0999 V2000     
   19.3013   18.4867   25.7929 N   0  3  0  0  0  0  0  0  0  0  0  0
   19.3522   17.5012   25.4921 H   0  0  0  0  0  0  0  0  0  0  0  0
   18.3519   18.5977   26.1830 H   0  0  0  0  0  0  0  0  0  0  0  0
   19.4712   19.4106   24.5986 C   0  0  0  0  0  0  0  0  0  0  0  0
   19.4565   20.4404   24.9641 H   0  0  0  0  0  0  0  0  0  0  0  0
   18.6010   19.2668   23.9537 H   0  0  0  0  0  0  0  0  0  0  0  0
   20.7531   19.1645   23.7748 C   0  0  0  0  0  0  0  0  0  0  0  0
   21.6328   19.3158   24.4132 H   0  0  0  0  0  0  0  0  0  0  0  0
   20.7867   18.1175   23.4482 H   0  0  0  0  0  0  0  0  0  0  0  0
   20.8649   20.1055   22.5495 C   0  0  0  0  0  0  0  0  0  0  0  0
   21.8046   19.8962   22.0211 H   0  0  0  0  0  0  0  0  0  0  0  0
   20.9504   21.1417   22.9049 H   0  0  0  0  0  0  0  0  0  0  0  0
   19.6789   20.0212   21.5509 C   0  0  0  0  0  0  0  0  0  0  0  0
   18.7665   20.3946   22.0350 H   0  0  0  0  0  0  0  0  0  0  0  0
   19.8728   20.7107   20.7177 H   0  0  0  0  0  0  0  0  0  0  0  0
   19.3998   18.6091   20.9759 C   0  0  0  0  0  0  0  0  0  0  0  0
   18.5382   18.6716   20.2966 H   0  0  0  0  0  0  0  0  0  0  0  0
   19.0989   17.9240   21.7798 H   0  0  0  0  0  0  0  0  0  0  0  0
   20.5992   18.0133   20.2042 C   0  0  0  0  0  0  0  0  0  0  0  0
   20.3241   17.0544   19.7464 H   0  0  0  0  0  0  0  0  0  0  0  0
   21.4536   17.8298   20.8673 H   0  0  0  0  0  0  0  0  0  0  0  0
   20.9256   18.6871   19.4014 H   0  0  0  0  0  0  0  0  0  0  0  0
   20.3396   18.7791   26.8702 C   0  0  0  0  0  0  0  0  0  0  0  0
   20.2500   19.8223   27.1809 H   0  0  0  0  0  0  0  0  0  0  0  0
   20.1614   18.1232   27.7253 H   0  0  0  0  0  0  0  0  0  0  0  0
   21.3385   18.5959   26.4696 H   0  0  0  0  0  0  0  0  0  0  0  0
  1  2  1  0  0  0  0
  1  3  1  0  0  0  0
  1  4  1  0  0  0  0
  4  5  1  0  0  0  0
  4  6  1  0  0  0  0
  4  7  1  0  0  0  0
  7  8  1  0  0  0  0
  7  9  1  0  0  0  0
  7 10  1  0  0  0  0
 10 11  1  0  0  0  0
 10 12  1  0  0  0  0
 10 13  1  0  0  0  0
 13 14  1  0  0  0  0
 13 15  1  0  0  0  0
 13 16  1  0  0  0  0
 16 17  1  0  0  0  0
 16 18  1  0  0  0  0
 16 19  1  0  0  0  0
 19 20  1  0  0  0  0
 19 21  1  0  0  0  0
 19 22  1  0  0  0  0
  1 23  1  0  0  0  0
 23 24  1  0  0  0  0
 23 25  1  0  0  0  0
 23 26  1  0  0  0  0
M  END
> <VM2 Rank>
96

> <Conf_Id>
553

> <Probability>
0.18

> <Sum Probability>
96.86

> <Delta G>
2.160

> <G>
77.627

> <E>
44.622

> <-TS>
33.005

> <U+W>
23.160

> <U>
72.963

> <W>
-49.803

> <W(PB)>
-52.050

> <W(SA)>
2.247

> <Valence>
3.204

> <Coulomb>
69.346

> <VdW>
0.414

> <VdW6>
-8.434

> <VdW12>
8.848

> <Bond>
0.271

> <Angle>
1.306

> <Pdih>
1.627

> <Idih>
0.000

> <Tether>
0.000

$$$$
VeraChem MOL file


 26 25  0  0  0  0  0  0  0  0999 V2000     
   19.4225   18.3176   25.2952 N   0  3  0  0  0  0  0  0  0  0  0  0
   19.3629   17.3782   25.7192 H   0  0  0  0  0  0  0  0  0  0  0  0
   18.8983   18.2486   24.4102 H   0  0  0  0  0  0  0  0  0  0  0  0
   20.8769   18.6582   25.0114 C   0  0  0  0  0  0  0  0  0  0  0  0
   21.3104   17.8131   24.4712 H   0  0  0  0  0  0  0  0  0  0  0  0
   21.3922   18.7411   25.9717 H   0  0  0  0  0  0  0  0  0  0  0  0
   21.1002   19.9490   24.1911 C   0  0  0  0  0  0  0  0  0  0  0  0
   20.7620   20.8153   24.7741 H   0  0  0  0  0  0  0  0  0  0  0  0
   22.1794   20.0877   24.0434 H   0  0  0  0  0  0  0  0  0  0  0  0
   20.3914   19.9501   22.8135 C   0  0  0  0  0  0  0  0  0  0  0  0
   20.5980   20.9067   22.3142 H   0  0  0  0  0  0  0  0  0  0  0  0
   19.3049   19.9118   22.9626 H   0  0  0  0  0  0  0  0  0  0  0  0
   20.8479   18.7884   21.8948 C   0  0  0  0  0  0  0  0  0  0  0  0
   21.9443   18.7992   21.8223 H   0  0  0  0  0  0  0  0  0  0  0  0
   20.5771   17.8222   22.3407 H   0  0  0  0  0  0  0  0  0  0  0  0
   20.2600   18.8695   20.4653 C   0  0  0  0  0  0  0  0  0  0  0  0
   20.7145   18.0792   19.8516 H   0  0  0  0  0  0  0  0  0  0  0  0
   20.5458   19.8227   19.9988 H   0  0  0  0  0  0  0  0  0  0  0  0
   18.7230   18.7102   20.4240 C   0  0  0  0  0  0  0  0  0  0  0  0
   18.4092   17.7761   20.9076 H   0  0  0  0  0  0  0  0  0  0  0  0
   18.3676   18.6855   19.3857 H   0  0  0  0  0  0  0  0  0  0  0  0
   18.2169   19.5447   20.9249 H   0  0  0  0  0  0  0  0  0  0  0  0
   18.7861   19.3470   26.2218 C   0  0  0  0  0  0  0  0  0  0  0  0
   17.7540   19.0538   26.4267 H   0  0  0  0  0  0  0  0  0  0  0  0
   19.3507   19.3862   27.1558 H   0  0  0  0  0  0  0  0  0  0  0  0
   18.8009   20.3258   25.7381 H   0  0  0  0  0  0  0  0  0  0  0  0
  1  2  1  0  0  0  0
  1  3  1  0  0  0  0
  1  4  1  0  0  0  0
  4  5  1  0  0  0  0
  4  6  1  0  0  0  0
  4  7  1  0  0  0  0
  7  8  1  0  0  0  0
  7  9  1  0  0  0  0
  7 10  1  0  0  0  0
 10 11  1  0  0  0  0
 10 12  1  0  0  0  0
 10 13  1  0  0  0  0
 13 14  1  0  0  0  0
 13 15  1  0  0  0  0
 13 16  1  0  0  0  0
 16 17  1  0  0  0  0
 16 18  1  0  0  0  0
 16 19  1  0  0  0  0
 19 20  1  0  0  0  0
 19 21  1  0  0  0  0
 19 22  1  0  0  0  0
  1 23  1  0  0  0  0
 23 24  1  0  0  0  0
 23 25  1  0  0  0  0
 23 26  1  0  0  0  0
M  END
> <VM2 Rank>
97

> <Conf_Id>
512

> <Probability>
0.18

> <Sum Probability>
97.04

> <Delta G>
2.171

> <G>
77.637

> <E>
44.830

> <-TS>
32.808

> <U+W>
23.368

> <U>
73.121

> <W>
-49.754

> <W(PB)>
-51.988

> <W(SA)>
2.234

> <Valence>
2.869

> <Coulomb>
69.885

> <VdW>
0.367

> <VdW6>
-8.311

> <VdW12>
8.678

> <Bond>
0.246

> <Angle>
0.961

> <Pdih>
1.661

> <Idih>
0.000

> <Tether>
0.000

$$$$
VeraChem MOL file


 26 25  0  0  0  0  0  0  0  0999 V2000     
   20.5062   18.9115   26.1980 N   0  3  0  0  0  0  0  0  0  0  0  0
   21.4662   18.5759   26.0250 H   0  0  0  0  0  0  0  0  0  0  0  0
   20.3236   18.6835   27.1881 H   0  0  0  0  0  0  0  0  0  0  0  0
   19.5168   18.1522   25.3244 C   0  0  0  0  0  0  0  0  0  0  0  0
   18.5162   18.5537   25.5027 H   0  0  0  0  0  0  0  0  0  0  0  0
   19.5277   17.1198   25.6833 H   0  0  0  0  0  0  0  0  0  0  0  0
   19.8228   18.1333   23.8097 C   0  0  0  0  0  0  0  0  0  0  0  0
   20.9080   18.0893   23.6543 H   0  0  0  0  0  0  0  0  0  0  0  0
   19.4125   17.2020   23.3974 H   0  0  0  0  0  0  0  0  0  0  0  0
   19.1978   19.3245   23.0396 C   0  0  0  0  0  0  0  0  0  0  0  0
   19.6539   20.2700   23.3550 H   0  0  0  0  0  0  0  0  0  0  0  0
   18.1325   19.3959   23.2990 H   0  0  0  0  0  0  0  0  0  0  0  0
   19.3199   19.1946   21.5013 C   0  0  0  0  0  0  0  0  0  0  0  0
   18.8398   18.2635   21.1699 H   0  0  0  0  0  0  0  0  0  0  0  0
   18.7546   20.0142   21.0364 H   0  0  0  0  0  0  0  0  0  0  0  0
   20.7803   19.2388   20.9919 C   0  0  0  0  0  0  0  0  0  0  0  0
   21.3455   18.3837   21.3855 H   0  0  0  0  0  0  0  0  0  0  0  0
   21.2758   20.1465   21.3637 H   0  0  0  0  0  0  0  0  0  0  0  0
   20.8464   19.2155   19.4498 C   0  0  0  0  0  0  0  0  0  0  0  0
   20.3848   18.3038   19.0487 H   0  0  0  0  0  0  0  0  0  0  0  0
   21.8885   19.2447   19.1059 H   0  0  0  0  0  0  0  0  0  0  0  0
   20.3257   20.0804   19.0185 H   0  0  0  0  0  0  0  0  0  0  0  0
   20.4177   20.4195   26.0025 C   0  0  0  0  0  0  0  0  0  0  0  0
   19.3828   20.7407   26.1392 H   0  0  0  0  0  0  0  0  0  0  0  0
   21.0571   20.9115   26.7389 H   0  0  0  0  0  0  0  0  0  0  0  0
   20.7606   20.6739   24.9987 H   0  0  0  0  0  0  0  0  0  0  0  0
  1  2  1  0  0  0  0
  1  3  1  0  0  0  0
  1  4  1  0  0  0  0
  4  5  1  0  0  0  0
  4  6  1  0  0  0  0
  4  7  1  0  0  0  0
  7  8  1  0  0  0  0
  7  9  1  0  0  0  0
  7 10  1  0  0  0  0
 10 11  1  0  0  0  0
 10 12  1  0  0  0  0
 10 13  1  0  0  0  0
 13 14  1  0  0  0  0
 13 15  1  0  0  0  0
 13 16  1  0  0  0  0
 16 17  1  0  0  0  0
 16 18  1  0  0  0  0
 16 19  1  0  0  0  0
 19 20  1  0  0  0  0
 19 21  1  0  0  0  0
 19 22  1  0  0  0  0
  1 23  1  0  0  0  0
 23 24  1  0  0  0  0
 23 25  1  0  0  0  0
 23 26  1  0  0  0  0
M  END
> <VM2 Rank>
98

> <Conf_Id>
277

> <Probability>
0.15

> <Sum Probability>
97.19

> <Delta G>
2.275

> <G>
77.742

> <E>
45.736

> <-TS>
32.006

> <U+W>
24.274

> <U>
73.883

> <W>
-49.610

> <W(PB)>
-51.834

> <W(SA)>
2.224

> <Valence>
4.358

> <Coulomb>
69.048

> <VdW>
0.477

> <VdW6>
-7.515

> <VdW12>
7.992

> <Bond>
0.237

> <Angle>
1.263

> <Pdih>
2.857

> <Idih>
0.000

> <Tether>
0.000

$$$$
VeraChem MOL file


 26 25  0  0  0  0  0  0  0  0999 V2000     
   19.4353   18.8014   26.1599 N   0  3  0  0  0  0  0  0  0  0  0  0
   19.5900   18.6063   27.1618 H   0  0  0  0  0  0  0  0  0  0  0  0
   18.5773   18.2809   25.9214 H   0  0  0  0  0  0  0  0  0  0  0  0
   20.6165   18.2644   25.3630 C   0  0  0  0  0  0  0  0  0  0  0  0
   20.7894   17.2483   25.7271 H   0  0  0  0  0  0  0  0  0  0  0  0
   21.5003   18.8584   25.6084 H   0  0  0  0  0  0  0  0  0  0  0  0
   20.4276   18.1955   23.8307 C   0  0  0  0  0  0  0  0  0  0  0  0
   21.0469   17.3705   23.4545 H   0  0  0  0  0  0  0  0  0  0  0  0
   19.3878   17.9326   23.5999 H   0  0  0  0  0  0  0  0  0  0  0  0
   20.8493   19.4949   23.0984 C   0  0  0  0  0  0  0  0  0  0  0  0
   21.8566   19.7802   23.4320 H   0  0  0  0  0  0  0  0  0  0  0  0
   20.1886   20.3250   23.3739 H   0  0  0  0  0  0  0  0  0  0  0  0
   20.8653   19.3543   21.5562 C   0  0  0  0  0  0  0  0  0  0  0  0
   21.2827   20.2756   21.1267 H   0  0  0  0  0  0  0  0  0  0  0  0
   21.5477   18.5435   21.2663 H   0  0  0  0  0  0  0  0  0  0  0  0
   19.4665   19.1032   20.9445 C   0  0  0  0  0  0  0  0  0  0  0  0
   18.7709   19.8877   21.2739 H   0  0  0  0  0  0  0  0  0  0  0  0
   19.0614   18.1477   21.3033 H   0  0  0  0  0  0  0  0  0  0  0  0
   19.5156   19.0784   19.4018 C   0  0  0  0  0  0  0  0  0  0  0  0
   18.5165   18.8966   18.9849 H   0  0  0  0  0  0  0  0  0  0  0  0
   20.1809   18.2832   19.0409 H   0  0  0  0  0  0  0  0  0  0  0  0
   19.8779   20.0346   19.0023 H   0  0  0  0  0  0  0  0  0  0  0  0
   19.2319   20.2980   25.9626 C   0  0  0  0  0  0  0  0  0  0  0  0
   20.1687   20.8196   26.1698 H   0  0  0  0  0  0  0  0  0  0  0  0
   18.9158   20.4868   24.9358 H   0  0  0  0  0  0  0  0  0  0  0  0
   18.4566   20.6448   26.6495 H   0  0  0  0  0  0  0  0  0  0  0  0
  1  2  1  0  0  0  0
  1  3  1  0  0  0  0
  1  4  1  0  0  0  0
  4  5  1  0  0  0  0
  4  6  1  0  0  0  0
  4  7  1  0  0  0  0
  7  8  1  0  0  0  0
  7  9  1  0  0  0  0
  7 10  1  0  0  0  0
 10 11  1  0  0  0  0
 10 12  1  0  0  0  0
 10 13  1  0  0  0  0
 13 14  1  0  0  0  0
 13 15  1  0  0  0  0
 13 16  1  0  0  0  0
 16 17  1  0  0  0  0
 16 18  1  0  0  0  0
 16 19  1  0  0  0  0
 19 20  1  0  0  0  0
 19 21  1  0  0  0  0
 19 22  1  0  0  0  0
  1 23  1  0  0  0  0
 23 24  1  0  0  0  0
 23 25  1  0  0  0  0
 23 26  1  0  0  0  0
M  END
> <VM2 Rank>
99

> <Conf_Id>
559

> <Probability>
0.15

> <Sum Probability>
97.33

> <Delta G>
2.283

> <G>
77.750

> <E>
45.764

> <-TS>
31.986

> <U+W>
24.302

> <U>
73.883

> <W>
-49.581

> <W(PB)>
-51.845

> <W(SA)>
2.264

> <Valence>
4.358

> <Coulomb>
69.048

> <VdW>
0.477

> <VdW6>
-7.513

> <VdW12>
7.990

> <Bond>
0.237

> <Angle>
1.265

> <Pdih>
2.855

> <Idih>
0.000

> <Tether>
0.000

$$$$
VeraChem MOL file


 26 25  0  0  0  0  0  0  0  0999 V2000     
   19.6814   18.9407   25.6720 N   0  3  0  0  0  0  0  0  0  0  0  0
   19.8873   18.0473   26.1453 H   0  0  0  0  0  0  0  0  0  0  0  0
   18.7759   18.8011   25.1992 H   0  0  0  0  0  0  0  0  0  0  0  0
   20.7571   19.2487   24.6491 C   0  0  0  0  0  0  0  0  0  0  0  0
   21.7008   19.3702   25.1869 H   0  0  0  0  0  0  0  0  0  0  0  0
   20.5094   20.2023   24.1766 H   0  0  0  0  0  0  0  0  0  0  0  0
   20.9183   18.1601   23.5685 C   0  0  0  0  0  0  0  0  0  0  0  0
   21.7605   18.4297   22.9185 H   0  0  0  0  0  0  0  0  0  0  0  0
   21.2014   17.2145   24.0494 H   0  0  0  0  0  0  0  0  0  0  0  0
   19.6474   17.9358   22.7077 C   0  0  0  0  0  0  0  0  0  0  0  0
   18.8556   17.5060   23.3356 H   0  0  0  0  0  0  0  0  0  0  0  0
   19.8617   17.1716   21.9487 H   0  0  0  0  0  0  0  0  0  0  0  0
   19.0965   19.2119   22.0154 C   0  0  0  0  0  0  0  0  0  0  0  0
   18.2112   18.9367   21.4257 H   0  0  0  0  0  0  0  0  0  0  0  0
   18.7357   19.9152   22.7778 H   0  0  0  0  0  0  0  0  0  0  0  0
   20.1025   19.9465   21.0931 C   0  0  0  0  0  0  0  0  0  0  0  0
   20.9527   20.3203   21.6793 H   0  0  0  0  0  0  0  0  0  0  0  0
   19.6102   20.8364   20.6768 H   0  0  0  0  0  0  0  0  0  0  0  0
   20.6172   19.0721   19.9272 C   0  0  0  0  0  0  0  0  0  0  0  0
   19.7834   18.6756   19.3336 H   0  0  0  0  0  0  0  0  0  0  0  0
   21.2130   18.2258   20.2911 H   0  0  0  0  0  0  0  0  0  0  0  0
   21.2558   19.6617   19.2570 H   0  0  0  0  0  0  0  0  0  0  0  0
   19.5876   20.0741   26.6838 C   0  0  0  0  0  0  0  0  0  0  0  0
   20.5484   20.1822   27.1917 H   0  0  0  0  0  0  0  0  0  0  0  0
   19.3381   21.0010   26.1627 H   0  0  0  0  0  0  0  0  0  0  0  0
   18.8091   19.8398   27.4132 H   0  0  0  0  0  0  0  0  0  0  0  0
  1  2  1  0  0  0  0
  1  3  1  0  0  0  0
  1  4  1  0  0  0  0
  4  5  1  0  0  0  0
  4  6  1  0  0  0  0
  4  7  1  0  0  0  0
  7  8  1  0  0  0  0
  7  9  1  0  0  0  0
  7 10  1  0  0  0  0
 10 11  1  0  0  0  0
 10 12  1  0  0  0  0
 10 13  1  0  0  0  0
 13 14  1  0  0  0  0
 13 15  1  0  0  0  0
 13 16  1  0  0  0  0
 16 17  1  0  0  0  0
 16 18  1  0  0  0  0
 16 19  1  0  0  0  0
 19 20  1  0  0  0  0
 19 21  1  0  0  0  0
 19 22  1  0  0  0  0
  1 23  1  0  0  0  0
 23 24  1  0  0  0  0
 23 25  1  0  0  0  0
 23 26  1  0  0  0  0
M  END
> <VM2 Rank>
100

> <Conf_Id>
1312

> <Probability>
0.13

> <Sum Probability>
97.47

> <Delta G>
2.329

> <G>
77.795

> <E>
44.774

> <-TS>
33.021

> <U+W>
23.313

> <U>
72.853

> <W>
-49.541

> <W(PB)>
-51.773

> <W(SA)>
2.233

> <Valence>
3.035

> <Coulomb>
69.793

> <VdW>
0.025

> <VdW6>
-8.577

> <VdW12>
8.602

> <Bond>
0.254

> <Angle>
1.267

> <Pdih>
1.514

> <Idih>
0.000

> <Tether>
0.000

$$$$
VeraChem MOL file


 26 25  0  0  0  0  0  0  0  0999 V2000     
   20.2723   19.0014   25.6930 N   0  3  0  0  0  0  0  0  0  0  0  0
   21.2181   19.0518   25.2858 H   0  0  0  0  0  0  0  0  0  0  0  0
   20.2193   18.0813   26.1570 H   0  0  0  0  0  0  0  0  0  0  0  0
   19.2308   19.0922   24.5951 C   0  0  0  0  0  0  0  0  0  0  0  0
   19.3123   20.0795   24.1343 H   0  0  0  0  0  0  0  0  0  0  0  0
   18.2468   19.0158   25.0646 H   0  0  0  0  0  0  0  0  0  0  0  0
   19.3697   18.0013   23.5137 C   0  0  0  0  0  0  0  0  0  0  0  0
   19.2513   17.0145   23.9803 H   0  0  0  0  0  0  0  0  0  0  0  0
   18.5379   18.0991   22.8044 H   0  0  0  0  0  0  0  0  0  0  0  0
   20.7168   18.0456   22.7456 C   0  0  0  0  0  0  0  0  0  0  0  0
   20.7156   17.2593   21.9790 H   0  0  0  0  0  0  0  0  0  0  0  0
   21.5334   17.7809   23.4304 H   0  0  0  0  0  0  0  0  0  0  0  0
   21.0444   19.4118   22.0843 C   0  0  0  0  0  0  0  0  0  0  0  0
   21.2008   20.1683   22.8649 H   0  0  0  0  0  0  0  0  0  0  0  0
   22.0062   19.3261   21.5600 H   0  0  0  0  0  0  0  0  0  0  0  0
   19.9774   19.9336   21.0886 C   0  0  0  0  0  0  0  0  0  0  0  0
   20.3069   20.9079   20.7013 H   0  0  0  0  0  0  0  0  0  0  0  0
   19.0302   20.1230   21.6111 H   0  0  0  0  0  0  0  0  0  0  0  0
   19.7337   18.9813   19.8959 C   0  0  0  0  0  0  0  0  0  0  0  0
   20.6701   18.7664   19.3649 H   0  0  0  0  0  0  0  0  0  0  0  0
   19.0372   19.4339   19.1783 H   0  0  0  0  0  0  0  0  0  0  0  0
   19.2980   18.0292   20.2233 H   0  0  0  0  0  0  0  0  0  0  0  0
   20.0630   20.1228   26.7008 C   0  0  0  0  0  0  0  0  0  0  0  0
   19.0671   20.0298   27.1395 H   0  0  0  0  0  0  0  0  0  0  0  0
   20.8199   20.0460   27.4846 H   0  0  0  0  0  0  0  0  0  0  0  0
   20.1550   21.0848   26.1920 H   0  0  0  0  0  0  0  0  0  0  0  0
  1  2  1  0  0  0  0
  1  3  1  0  0  0  0
  1  4  1  0  0  0  0
  4  5  1  0  0  0  0
  4  6  1  0  0  0  0
  4  7  1  0  0  0  0
  7  8  1  0  0  0  0
  7  9  1  0  0  0  0
  7 10  1  0  0  0  0
 10 11  1  0  0  0  0
 10 12  1  0  0  0  0
 10 13  1  0  0  0  0
 13 14  1  0  0  0  0
 13 15  1  0  0  0  0
 13 16  1  0  0  0  0
 16 17  1  0  0  0  0
 16 18  1  0  0  0  0
 16 19  1  0  0  0  0
 19 20  1  0  0  0  0
 19 21  1  0  0  0  0
 19 22  1  0  0  0  0
  1 23  1  0  0  0  0
 23 24  1  0  0  0  0
 23 25  1  0  0  0  0
 23 26  1  0  0  0  0
M  END
> <VM2 Rank>
101

> <Conf_Id>
532

> <Probability>
0.12

> <Sum Probability>
97.58

> <Delta G>
2.419

> <G>
77.885

> <E>
44.865

> <-TS>
33.021

> <U+W>
23.403

> <U>
72.853

> <W>
-49.450

> <W(PB)>
-51.679

> <W(SA)>
2.229

> <Valence>
3.035

> <Coulomb>
69.793

> <VdW>
0.025

> <VdW6>
-8.576

> <VdW12>
8.601

> <Bond>
0.254

> <Angle>
1.267

> <Pdih>
1.514

> <Idih>
0.000

> <Tether>
0.000

$$$$
VeraChem MOL file


 26 25  0  0  0  0  0  0  0  0999 V2000     
   20.6947   19.2184   25.6403 N   0  3  0  0  0  0  0  0  0  0  0  0
   21.4508   19.7523   26.0974 H   0  0  0  0  0  0  0  0  0  0  0  0
   21.1577   18.3975   25.2227 H   0  0  0  0  0  0  0  0  0  0  0  0
   20.0582   20.0659   24.5503 C   0  0  0  0  0  0  0  0  0  0  0  0
   20.8667   20.4679   23.9349 H   0  0  0  0  0  0  0  0  0  0  0  0
   19.5552   20.9067   25.0346 H   0  0  0  0  0  0  0  0  0  0  0  0
   19.0580   19.3181   23.6403 C   0  0  0  0  0  0  0  0  0  0  0  0
   18.2016   18.9809   24.2383 H   0  0  0  0  0  0  0  0  0  0  0  0
   18.6476   20.0276   22.9107 H   0  0  0  0  0  0  0  0  0  0  0  0
   19.6716   18.1031   22.8967 C   0  0  0  0  0  0  0  0  0  0  0  0
   18.9007   17.6482   22.2607 H   0  0  0  0  0  0  0  0  0  0  0  0
   19.9373   17.3287   23.6288 H   0  0  0  0  0  0  0  0  0  0  0  0
   20.9237   18.4294   22.0384 C   0  0  0  0  0  0  0  0  0  0  0  0
   21.7477   18.7388   22.6951 H   0  0  0  0  0  0  0  0  0  0  0  0
   21.2656   17.5058   21.5514 H   0  0  0  0  0  0  0  0  0  0  0  0
   20.7133   19.5171   20.9543 C   0  0  0  0  0  0  0  0  0  0  0  0
   21.6643   19.6737   20.4264 H   0  0  0  0  0  0  0  0  0  0  0  0
   20.4686   20.4793   21.4237 H   0  0  0  0  0  0  0  0  0  0  0  0
   19.6252   19.1499   19.9199 C   0  0  0  0  0  0  0  0  0  0  0  0
   19.8412   18.1836   19.4462 H   0  0  0  0  0  0  0  0  0  0  0  0
   19.5758   19.9083   19.1279 H   0  0  0  0  0  0  0  0  0  0  0  0
   18.6326   19.0913   20.3832 H   0  0  0  0  0  0  0  0  0  0  0  0
   19.6633   18.7880   26.6767 C   0  0  0  0  0  0  0  0  0  0  0  0
   20.1613   18.2094   27.4578 H   0  0  0  0  0  0  0  0  0  0  0  0
   19.2016   19.6762   27.1134 H   0  0  0  0  0  0  0  0  0  0  0  0
   18.9011   18.1733   26.1937 H   0  0  0  0  0  0  0  0  0  0  0  0
  1  2  1  0  0  0  0
  1  3  1  0  0  0  0
  1  4  1  0  0  0  0
  4  5  1  0  0  0  0
  4  6  1  0  0  0  0
  4  7  1  0  0  0  0
  7  8  1  0  0  0  0
  7  9  1  0  0  0  0
  7 10  1  0  0  0  0
 10 11  1  0  0  0  0
 10 12  1  0  0  0  0
 10 13  1  0  0  0  0
 13 14  1  0  0  0  0
 13 15  1  0  0  0  0
 13 16  1  0  0  0  0
 16 17  1  0  0  0  0
 16 18  1  0  0  0  0
 16 19  1  0  0  0  0
 19 20  1  0  0  0  0
 19 21  1  0  0  0  0
 19 22  1  0  0  0  0
  1 23  1  0  0  0  0
 23 24  1  0  0  0  0
 23 25  1  0  0  0  0
 23 26  1  0  0  0  0
M  END
> <VM2 Rank>
102

> <Conf_Id>
1358

> <Probability>
0.11

> <Sum Probability>
97.69

> <Delta G>
2.473

> <G>
77.939

> <E>
44.698

> <-TS>
33.241

> <U+W>
23.236

> <U>
73.340

> <W>
-50.104

> <W(PB)>
-52.276

> <W(SA)>
2.172

> <Valence>
3.289

> <Coulomb>
69.804

> <VdW>
0.247

> <VdW6>
-9.372

> <VdW12>
9.619

> <Bond>
0.294

> <Angle>
1.399

> <Pdih>
1.596

> <Idih>
0.000

> <Tether>
0.000

$$$$
VeraChem MOL file


 26 25  0  0  0  0  0  0  0  0999 V2000     
   19.9443   19.1059   26.3241 N   0  3  0  0  0  0  0  0  0  0  0  0
   20.4679   19.1377   27.2133 H   0  0  0  0  0  0  0  0  0  0  0  0
   19.0625   18.6238   26.5568 H   0  0  0  0  0  0  0  0  0  0  0  0
   20.7366   18.2920   25.3099 C   0  0  0  0  0  0  0  0  0  0  0  0
   21.0243   17.3695   25.8208 H   0  0  0  0  0  0  0  0  0  0  0  0
   21.6530   18.8358   25.0672 H   0  0  0  0  0  0  0  0  0  0  0  0
   19.9856   17.9074   24.0153 C   0  0  0  0  0  0  0  0  0  0  0  0
   20.3841   16.9445   23.6692 H   0  0  0  0  0  0  0  0  0  0  0  0
   18.9225   17.7406   24.2337 H   0  0  0  0  0  0  0  0  0  0  0  0
   20.1535   18.9415   22.8758 C   0  0  0  0  0  0  0  0  0  0  0  0
   21.2245   19.0978   22.6914 H   0  0  0  0  0  0  0  0  0  0  0  0
   19.7396   19.9112   23.1753 H   0  0  0  0  0  0  0  0  0  0  0  0
   19.4585   18.4755   21.5736 C   0  0  0  0  0  0  0  0  0  0  0  0
   19.9104   17.5357   21.2273 H   0  0  0  0  0  0  0  0  0  0  0  0
   18.4051   18.2501   21.7903 H   0  0  0  0  0  0  0  0  0  0  0  0
   19.5121   19.5240   20.4359 C   0  0  0  0  0  0  0  0  0  0  0  0
   19.0379   20.4580   20.7683 H   0  0  0  0  0  0  0  0  0  0  0  0
   18.9113   19.1586   19.5913 H   0  0  0  0  0  0  0  0  0  0  0  0
   20.9455   19.8177   19.9372 C   0  0  0  0  0  0  0  0  0  0  0  0
   20.9204   20.4940   19.0730 H   0  0  0  0  0  0  0  0  0  0  0  0
   21.4524   18.8950   19.6262 H   0  0  0  0  0  0  0  0  0  0  0  0
   21.5524   20.2988   20.7140 H   0  0  0  0  0  0  0  0  0  0  0  0
   19.6719   20.5259   25.8452 C   0  0  0  0  0  0  0  0  0  0  0  0
   20.6154   20.9987   25.5642 H   0  0  0  0  0  0  0  0  0  0  0  0
   18.9981   20.4936   24.9876 H   0  0  0  0  0  0  0  0  0  0  0  0
   19.2026   21.0903   26.6541 H   0  0  0  0  0  0  0  0  0  0  0  0
  1  2  1  0  0  0  0
  1  3  1  0  0  0  0
  1  4  1  0  0  0  0
  4  5  1  0  0  0  0
  4  6  1  0  0  0  0
  4  7  1  0  0  0  0
  7  8  1  0  0  0  0
  7  9  1  0  0  0  0
  7 10  1  0  0  0  0
 10 11  1  0  0  0  0
 10 12  1  0  0  0  0
 10 13  1  0  0  0  0
 13 14  1  0  0  0  0
 13 15  1  0  0  0  0
 13 16  1  0  0  0  0
 16 17  1  0  0  0  0
 16 18  1  0  0  0  0
 16 19  1  0  0  0  0
 19 20  1  0  0  0  0
 19 21  1  0  0  0  0
 19 22  1  0  0  0  0
  1 23  1  0  0  0  0
 23 24  1  0  0  0  0
 23 25  1  0  0  0  0
 23 26  1  0  0  0  0
M  END
> <VM2 Rank>
103

> <Conf_Id>
1071

> <Probability>
0.10

> <Sum Probability>
97.79

> <Delta G>
2.504

> <G>
77.971

> <E>
45.666

> <-TS>
32.305

> <U+W>
24.204

> <U>
73.665

> <W>
-49.461

> <W(PB)>
-51.723

> <W(SA)>
2.262

> <Valence>
4.363

> <Coulomb>
68.783

> <VdW>
0.520

> <VdW6>
-7.471

> <VdW12>
7.991

> <Bond>
0.232

> <Angle>
1.226

> <Pdih>
2.905

> <Idih>
0.000

> <Tether>
0.000

$$$$
VeraChem MOL file


 26 25  0  0  0  0  0  0  0  0999 V2000     
   19.2283   19.0682   25.5884 N   0  3  0  0  0  0  0  0  0  0  0  0
   18.9715   18.1736   25.1452 H   0  0  0  0  0  0  0  0  0  0  0  0
   18.3498   19.4347   25.9877 H   0  0  0  0  0  0  0  0  0  0  0  0
   19.7549   20.0349   24.5396 C   0  0  0  0  0  0  0  0  0  0  0  0
   20.0420   20.9565   25.0520 H   0  0  0  0  0  0  0  0  0  0  0  0
   18.9268   20.2694   23.8663 H   0  0  0  0  0  0  0  0  0  0  0  0
   20.9469   19.5117   23.7072 C   0  0  0  0  0  0  0  0  0  0  0  0
   21.2551   20.2948   23.0030 H   0  0  0  0  0  0  0  0  0  0  0  0
   21.8098   19.3505   24.3660 H   0  0  0  0  0  0  0  0  0  0  0  0
   20.6455   18.2029   22.9312 C   0  0  0  0  0  0  0  0  0  0  0  0
   20.4916   17.3856   23.6485 H   0  0  0  0  0  0  0  0  0  0  0  0
   21.5352   17.9180   22.3540 H   0  0  0  0  0  0  0  0  0  0  0  0
   19.4165   18.2752   21.9850 C   0  0  0  0  0  0  0  0  0  0  0  0
   19.3036   17.3049   21.4820 H   0  0  0  0  0  0  0  0  0  0  0  0
   18.5031   18.4067   22.5802 H   0  0  0  0  0  0  0  0  0  0  0  0
   19.4778   19.3906   20.9105 C   0  0  0  0  0  0  0  0  0  0  0  0
   19.4892   20.3790   21.3889 H   0  0  0  0  0  0  0  0  0  0  0  0
   18.5542   19.3551   20.3161 H   0  0  0  0  0  0  0  0  0  0  0  0
   20.6875   19.2586   19.9575 C   0  0  0  0  0  0  0  0  0  0  0  0
   20.6377   20.0169   19.1655 H   0  0  0  0  0  0  0  0  0  0  0  0
   20.7053   18.2719   19.4770 H   0  0  0  0  0  0  0  0  0  0  0  0
   21.6365   19.3989   20.4897 H   0  0  0  0  0  0  0  0  0  0  0  0
   20.2505   18.8480   26.6974 C   0  0  0  0  0  0  0  0  0  0  0  0
   21.1532   18.4038   26.2733 H   0  0  0  0  0  0  0  0  0  0  0  0
   20.4911   19.8081   27.1591 H   0  0  0  0  0  0  0  0  0  0  0  0
   19.8265   18.1749   27.4458 H   0  0  0  0  0  0  0  0  0  0  0  0
  1  2  1  0  0  0  0
  1  3  1  0  0  0  0
  1  4  1  0  0  0  0
  4  5  1  0  0  0  0
  4  6  1  0  0  0  0
  4  7  1  0  0  0  0
  7  8  1  0  0  0  0
  7  9  1  0  0  0  0
  7 10  1  0  0  0  0
 10 11  1  0  0  0  0
 10 12  1  0  0  0  0
 10 13  1  0  0  0  0
 13 14  1  0  0  0  0
 13 15  1  0  0  0  0
 13 16  1  0  0  0  0
 16 17  1  0  0  0  0
 16 18  1  0  0  0  0
 16 19  1  0  0  0  0
 19 20  1  0  0  0  0
 19 21  1  0  0  0  0
 19 22  1  0  0  0  0
  1 23  1  0  0  0  0
 23 24  1  0  0  0  0
 23 25  1  0  0  0  0
 23 26  1  0  0  0  0
M  END
> <VM2 Rank>
104

> <Conf_Id>
1080

> <Probability>
0.09

> <Sum Probability>
97.88

> <Delta G>
2.557

> <G>
78.023

> <E>
44.782

> <-TS>
33.241

> <U+W>
23.320

> <U>
73.340

> <W>
-50.020

> <W(PB)>
-52.188

> <W(SA)>
2.168

> <Valence>
3.289

> <Coulomb>
69.804

> <VdW>
0.247

> <VdW6>
-9.372

> <VdW12>
9.619

> <Bond>
0.294

> <Angle>
1.399

> <Pdih>
1.596

> <Idih>
0.000

> <Tether>
0.000

$$$$
VeraChem MOL file


 26 25  0  0  0  0  0  0  0  0999 V2000     
   19.6990   19.0060   26.2345 N   0  3  0  0  0  0  0  0  0  0  0  0
   19.8603   19.4060   27.1724 H   0  0  0  0  0  0  0  0  0  0  0  0
   19.4724   18.0147   26.4082 H   0  0  0  0  0  0  0  0  0  0  0  0
   20.9806   19.1167   25.4194 C   0  0  0  0  0  0  0  0  0  0  0  0
   21.7788   18.7257   26.0557 H   0  0  0  0  0  0  0  0  0  0  0  0
   21.1882   20.1744   25.2397 H   0  0  0  0  0  0  0  0  0  0  0  0
   21.0038   18.3347   24.0868 C   0  0  0  0  0  0  0  0  0  0  0  0
   22.0379   18.0145   23.9028 H   0  0  0  0  0  0  0  0  0  0  0  0
   20.4085   17.4167   24.1797 H   0  0  0  0  0  0  0  0  0  0  0  0
   20.5288   19.1726   22.8751 C   0  0  0  0  0  0  0  0  0  0  0  0
   21.1409   20.0819   22.7994 H   0  0  0  0  0  0  0  0  0  0  0  0
   19.4952   19.5002   23.0286 H   0  0  0  0  0  0  0  0  0  0  0  0
   20.6267   18.3737   21.5529 C   0  0  0  0  0  0  0  0  0  0  0  0
   21.6530   17.9994   21.4341 H   0  0  0  0  0  0  0  0  0  0  0  0
   19.9794   17.4875   21.6068 H   0  0  0  0  0  0  0  0  0  0  0  0
   20.2599   19.2057   20.3000 C   0  0  0  0  0  0  0  0  0  0  0  0
   20.4583   18.6000   19.4046 H   0  0  0  0  0  0  0  0  0  0  0  0
   20.9191   20.0822   20.2296 H   0  0  0  0  0  0  0  0  0  0  0  0
   18.7832   19.6622   20.2746 C   0  0  0  0  0  0  0  0  0  0  0  0
   18.1032   18.8064   20.3758 H   0  0  0  0  0  0  0  0  0  0  0  0
   18.5525   20.1632   19.3255 H   0  0  0  0  0  0  0  0  0  0  0  0
   18.5659   20.3720   21.0823 H   0  0  0  0  0  0  0  0  0  0  0  0
   18.5260   19.7184   25.5736 C   0  0  0  0  0  0  0  0  0  0  0  0
   18.8047   20.7535   25.3644 H   0  0  0  0  0  0  0  0  0  0  0  0
   18.2689   19.2041   24.6462 H   0  0  0  0  0  0  0  0  0  0  0  0
   17.6691   19.6964   26.2506 H   0  0  0  0  0  0  0  0  0  0  0  0
  1  2  1  0  0  0  0
  1  3  1  0  0  0  0
  1  4  1  0  0  0  0
  4  5  1  0  0  0  0
  4  6  1  0  0  0  0
  4  7  1  0  0  0  0
  7  8  1  0  0  0  0
  7  9  1  0  0  0  0
  7 10  1  0  0  0  0
 10 11  1  0  0  0  0
 10 12  1  0  0  0  0
 10 13  1  0  0  0  0
 13 14  1  0  0  0  0
 13 15  1  0  0  0  0
 13 16  1  0  0  0  0
 16 17  1  0  0  0  0
 16 18  1  0  0  0  0
 16 19  1  0  0  0  0
 19 20  1  0  0  0  0
 19 21  1  0  0  0  0
 19 22  1  0  0  0  0
  1 23  1  0  0  0  0
 23 24  1  0  0  0  0
 23 25  1  0  0  0  0
 23 26  1  0  0  0  0
M  END
> <VM2 Rank>
105

> <Conf_Id>
1369

> <Probability>
0.09

> <Sum Probability>
97.97

> <Delta G>
2.596

> <G>
78.063

> <E>
45.697

> <-TS>
32.366

> <U+W>
24.235

> <U>
73.765

> <W>
-49.530

> <W(PB)>
-51.770

> <W(SA)>
2.240

> <Valence>
4.369

> <Coulomb>
68.893

> <VdW>
0.503

> <VdW6>
-7.520

> <VdW12>
8.024

> <Bond>
0.234

> <Angle>
1.195

> <Pdih>
2.941

> <Idih>
0.000

> <Tether>
0.000

$$$$
VeraChem MOL file


 26 25  0  0  0  0  0  0  0  0999 V2000     
   19.7475   19.3120   25.9146 N   0  3  0  0  0  0  0  0  0  0  0  0
   20.6226   19.7839   26.1883 H   0  0  0  0  0  0  0  0  0  0  0  0
   19.2891   19.0657   26.8060 H   0  0  0  0  0  0  0  0  0  0  0  0
   20.0541   18.0389   25.1410 C   0  0  0  0  0  0  0  0  0  0  0  0
   19.1781   17.7789   24.5423 H   0  0  0  0  0  0  0  0  0  0  0  0
   20.1921   17.2495   25.8842 H   0  0  0  0  0  0  0  0  0  0  0  0
   21.3236   18.0855   24.2588 C   0  0  0  0  0  0  0  0  0  0  0  0
   22.1863   18.3403   24.8884 H   0  0  0  0  0  0  0  0  0  0  0  0
   21.5164   17.0730   23.8800 H   0  0  0  0  0  0  0  0  0  0  0  0
   21.2620   19.0623   23.0587 C   0  0  0  0  0  0  0  0  0  0  0  0
   22.2198   19.0149   22.5223 H   0  0  0  0  0  0  0  0  0  0  0  0
   21.1729   20.0942   23.4214 H   0  0  0  0  0  0  0  0  0  0  0  0
   20.1156   18.7416   22.0694 C   0  0  0  0  0  0  0  0  0  0  0  0
   20.2232   17.7101   21.7065 H   0  0  0  0  0  0  0  0  0  0  0  0
   19.1467   18.7961   22.5825 H   0  0  0  0  0  0  0  0  0  0  0  0
   20.1069   19.7119   20.8674 C   0  0  0  0  0  0  0  0  0  0  0  0
   21.0685   19.6563   20.3381 H   0  0  0  0  0  0  0  0  0  0  0  0
   20.0018   20.7455   21.2257 H   0  0  0  0  0  0  0  0  0  0  0  0
   18.9615   19.3929   19.8829 C   0  0  0  0  0  0  0  0  0  0  0  0
   19.0579   18.3758   19.4812 H   0  0  0  0  0  0  0  0  0  0  0  0
   18.9721   20.0916   19.0364 H   0  0  0  0  0  0  0  0  0  0  0  0
   17.9835   19.4748   20.3748 H   0  0  0  0  0  0  0  0  0  0  0  0
   18.8368   20.2450   25.1242 C   0  0  0  0  0  0  0  0  0  0  0  0
   18.6220   21.1292   25.7284 H   0  0  0  0  0  0  0  0  0  0  0  0
   19.3304   20.5449   24.1991 H   0  0  0  0  0  0  0  0  0  0  0  0
   17.9055   19.7235   24.8927 H   0  0  0  0  0  0  0  0  0  0  0  0
  1  2  1  0  0  0  0
  1  3  1  0  0  0  0
  1  4  1  0  0  0  0
  4  5  1  0  0  0  0
  4  6  1  0  0  0  0
  4  7  1  0  0  0  0
  7  8  1  0  0  0  0
  7  9  1  0  0  0  0
  7 10  1  0  0  0  0
 10 11  1  0  0  0  0
 10 12  1  0  0  0  0
 10 13  1  0  0  0  0
 13 14  1  0  0  0  0
 13 15  1  0  0  0  0
 13 16  1  0  0  0  0
 16 17  1  0  0  0  0
 16 18  1  0  0  0  0
 16 19  1  0  0  0  0
 19 20  1  0  0  0  0
 19 21  1  0  0  0  0
 19 22  1  0  0  0  0
  1 23  1  0  0  0  0
 23 24  1  0  0  0  0
 23 25  1  0  0  0  0
 23 26  1  0  0  0  0
M  END
> <VM2 Rank>
106

> <Conf_Id>
1356

> <Probability>
0.08

> <Sum Probability>
98.05

> <Delta G>
2.618

> <G>
78.085

> <E>
45.148

> <-TS>
32.936

> <U+W>
23.687

> <U>
73.514

> <W>
-49.827

> <W(PB)>
-52.066

> <W(SA)>
2.238

> <Valence>
4.050

> <Coulomb>
69.538

> <VdW>
-0.074

> <VdW6>
-8.211

> <VdW12>
8.137

> <Bond>
0.215

> <Angle>
1.189

> <Pdih>
2.646

> <Idih>
0.000

> <Tether>
0.000

$$$$
VeraChem MOL file


 26 25  0  0  0  0  0  0  0  0999 V2000     
   20.1153   19.3498   25.9275 N   0  3  0  0  0  0  0  0  0  0  0  0
   20.5507   19.1953   26.8506 H   0  0  0  0  0  0  0  0  0  0  0  0
   19.1457   19.6323   26.1359 H   0  0  0  0  0  0  0  0  0  0  0  0
   20.1284   18.0466   25.1436 C   0  0  0  0  0  0  0  0  0  0  0  0
   20.1017   17.2403   25.8811 H   0  0  0  0  0  0  0  0  0  0  0  0
   21.0786   17.9739   24.6096 H   0  0  0  0  0  0  0  0  0  0  0  0
   18.9407   17.8408   24.1745 C   0  0  0  0  0  0  0  0  0  0  0  0
   18.9844   16.8131   23.7903 H   0  0  0  0  0  0  0  0  0  0  0  0
   18.0024   17.9108   24.7403 H   0  0  0  0  0  0  0  0  0  0  0  0
   18.8867   18.8184   22.9746 C   0  0  0  0  0  0  0  0  0  0  0  0
   18.7389   19.8443   23.3352 H   0  0  0  0  0  0  0  0  0  0  0  0
   17.9984   18.5815   22.3728 H   0  0  0  0  0  0  0  0  0  0  0  0
   20.1408   18.7442   22.0704 C   0  0  0  0  0  0  0  0  0  0  0  0
   21.0400   18.9906   22.6496 H   0  0  0  0  0  0  0  0  0  0  0  0
   20.2704   17.7149   21.7083 H   0  0  0  0  0  0  0  0  0  0  0  0
   20.0365   19.7046   20.8649 C   0  0  0  0  0  0  0  0  0  0  0  0
   19.9040   20.7355   21.2221 H   0  0  0  0  0  0  0  0  0  0  0  0
   19.1457   19.4586   20.2699 H   0  0  0  0  0  0  0  0  0  0  0  0
   21.2889   19.6318   19.9654 C   0  0  0  0  0  0  0  0  0  0  0  0
   21.1959   20.3199   19.1151 H   0  0  0  0  0  0  0  0  0  0  0  0
   21.4294   18.6192   19.5653 H   0  0  0  0  0  0  0  0  0  0  0  0
   22.1929   19.9072   20.5240 H   0  0  0  0  0  0  0  0  0  0  0  0
   20.8709   20.4538   25.1961 C   0  0  0  0  0  0  0  0  0  0  0  0
   20.3926   20.6539   24.2366 H   0  0  0  0  0  0  0  0  0  0  0  0
   20.8589   21.3589   25.8074 H   0  0  0  0  0  0  0  0  0  0  0  0
   21.9024   20.1338   25.0342 H   0  0  0  0  0  0  0  0  0  0  0  0
  1  2  1  0  0  0  0
  1  3  1  0  0  0  0
  1  4  1  0  0  0  0
  4  5  1  0  0  0  0
  4  6  1  0  0  0  0
  4  7  1  0  0  0  0
  7  8  1  0  0  0  0
  7  9  1  0  0  0  0
  7 10  1  0  0  0  0
 10 11  1  0  0  0  0
 10 12  1  0  0  0  0
 10 13  1  0  0  0  0
 13 14  1  0  0  0  0
 13 15  1  0  0  0  0
 13 16  1  0  0  0  0
 16 17  1  0  0  0  0
 16 18  1  0  0  0  0
 16 19  1  0  0  0  0
 19 20  1  0  0  0  0
 19 21  1  0  0  0  0
 19 22  1  0  0  0  0
  1 23  1  0  0  0  0
 23 24  1  0  0  0  0
 23 25  1  0  0  0  0
 23 26  1  0  0  0  0
M  END
> <VM2 Rank>
107

> <Conf_Id>
547

> <Probability>
0.08

> <Sum Probability>
98.13

> <Delta G>
2.626

> <G>
78.093

> <E>
45.156

> <-TS>
32.937

> <U+W>
23.694

> <U>
73.514

> <W>
-49.820

> <W(PB)>
-52.043

> <W(SA)>
2.223

> <Valence>
4.050

> <Coulomb>
69.538

> <VdW>
-0.073

> <VdW6>
-8.211

> <VdW12>
8.138

> <Bond>
0.215

> <Angle>
1.189

> <Pdih>
2.646

> <Idih>
0.000

> <Tether>
0.000

$$$$
VeraChem MOL file


 26 25  0  0  0  0  0  0  0  0999 V2000     
   20.2029   19.0570   26.2521 N   0  3  0  0  0  0  0  0  0  0  0  0
   20.6137   18.1310   26.4473 H   0  0  0  0  0  0  0  0  0  0  0  0
   19.8989   19.4083   27.1740 H   0  0  0  0  0  0  0  0  0  0  0  0
   18.9855   18.9116   25.3490 C   0  0  0  0  0  0  0  0  0  0  0  0
   18.5806   19.9066   25.1481 H   0  0  0  0  0  0  0  0  0  0  0  0
   18.2409   18.3621   25.9307 H   0  0  0  0  0  0  0  0  0  0  0  0
   19.2141   18.1512   24.0233 C   0  0  0  0  0  0  0  0  0  0  0  0
   19.9745   17.3717   24.1638 H   0  0  0  0  0  0  0  0  0  0  0  0
   18.2814   17.6301   23.7695 H   0  0  0  0  0  0  0  0  0  0  0  0
   19.5935   19.0769   22.8421 C   0  0  0  0  0  0  0  0  0  0  0  0
   20.5266   19.6049   23.0651 H   0  0  0  0  0  0  0  0  0  0  0  0
   18.8175   19.8447   22.7179 H   0  0  0  0  0  0  0  0  0  0  0  0
   19.7509   18.2847   21.5217 C   0  0  0  0  0  0  0  0  0  0  0  0
   20.5581   17.5466   21.6265 H   0  0  0  0  0  0  0  0  0  0  0  0
   18.8319   17.7125   21.3338 H   0  0  0  0  0  0  0  0  0  0  0  0
   20.0292   19.1831   20.2920 C   0  0  0  0  0  0  0  0  0  0  0  0
   19.2138   19.9099   20.1702 H   0  0  0  0  0  0  0  0  0  0  0  0
   20.0193   18.5569   19.3889 H   0  0  0  0  0  0  0  0  0  0  0  0
   21.3822   19.9272   20.3665 C   0  0  0  0  0  0  0  0  0  0  0  0
   21.3958   20.6598   21.1829 H   0  0  0  0  0  0  0  0  0  0  0  0
   21.5728   20.4717   19.4327 H   0  0  0  0  0  0  0  0  0  0  0  0
   22.2115   19.2246   20.5201 H   0  0  0  0  0  0  0  0  0  0  0  0
   21.2498   19.9982   25.6703 C   0  0  0  0  0  0  0  0  0  0  0  0
   22.0438   20.1455   26.4057 H   0  0  0  0  0  0  0  0  0  0  0  0
   21.6702   19.5543   24.7665 H   0  0  0  0  0  0  0  0  0  0  0  0
   20.7817   20.9566   25.4354 H   0  0  0  0  0  0  0  0  0  0  0  0
  1  2  1  0  0  0  0
  1  3  1  0  0  0  0
  1  4  1  0  0  0  0
  4  5  1  0  0  0  0
  4  6  1  0  0  0  0
  4  7  1  0  0  0  0
  7  8  1  0  0  0  0
  7  9  1  0  0  0  0
  7 10  1  0  0  0  0
 10 11  1  0  0  0  0
 10 12  1  0  0  0  0
 10 13  1  0  0  0  0
 13 14  1  0  0  0  0
 13 15  1  0  0  0  0
 13 16  1  0  0  0  0
 16 17  1  0  0  0  0
 16 18  1  0  0  0  0
 16 19  1  0  0  0  0
 19 20  1  0  0  0  0
 19 21  1  0  0  0  0
 19 22  1  0  0  0  0
  1 23  1  0  0  0  0
 23 24  1  0  0  0  0
 23 25  1  0  0  0  0
 23 26  1  0  0  0  0
M  END
> <VM2 Rank>
108

> <Conf_Id>
1290

> <Probability>
0.08

> <Sum Probability>
98.21

> <Delta G>
2.652

> <G>
78.118

> <E>
45.756

> <-TS>
32.362

> <U+W>
24.294

> <U>
73.765

> <W>
-49.471

> <W(PB)>
-51.719

> <W(SA)>
2.248

> <Valence>
4.369

> <Coulomb>
68.893

> <VdW>
0.503

> <VdW6>
-7.519

> <VdW12>
8.022

> <Bond>
0.234

> <Angle>
1.196

> <Pdih>
2.939

> <Idih>
0.000

> <Tether>
0.000

$$$$
VeraChem MOL file


 26 25  0  0  0  0  0  0  0  0999 V2000     
   20.6272   18.9466   26.0632 N   0  3  0  0  0  0  0  0  0  0  0  0
   21.5353   18.9709   25.5751 H   0  0  0  0  0  0  0  0  0  0  0  0
   20.8261   18.5016   26.9732 H   0  0  0  0  0  0  0  0  0  0  0  0
   19.6351   18.0900   25.2925 C   0  0  0  0  0  0  0  0  0  0  0  0
   18.6251   18.3949   25.5776 H   0  0  0  0  0  0  0  0  0  0  0  0
   19.7795   17.0610   25.6315 H   0  0  0  0  0  0  0  0  0  0  0  0
   19.7905   18.1117   23.7554 C   0  0  0  0  0  0  0  0  0  0  0  0
   20.8004   17.7712   23.4941 H   0  0  0  0  0  0  0  0  0  0  0  0
   19.0950   17.3736   23.3347 H   0  0  0  0  0  0  0  0  0  0  0  0
   19.5099   19.4938   23.1154 C   0  0  0  0  0  0  0  0  0  0  0  0
   20.2953   20.2048   23.4033 H   0  0  0  0  0  0  0  0  0  0  0  0
   18.5656   19.8891   23.5146 H   0  0  0  0  0  0  0  0  0  0  0  0
   19.4114   19.4490   21.5705 C   0  0  0  0  0  0  0  0  0  0  0  0
   18.6080   18.7613   21.2721 H   0  0  0  0  0  0  0  0  0  0  0  0
   19.1138   20.4438   21.2111 H   0  0  0  0  0  0  0  0  0  0  0  0
   20.7330   19.0383   20.8788 C   0  0  0  0  0  0  0  0  0  0  0  0
   21.0108   18.0161   21.1685 H   0  0  0  0  0  0  0  0  0  0  0  0
   21.5471   19.6966   21.2130 H   0  0  0  0  0  0  0  0  0  0  0  0
   20.6170   19.1090   19.3411 C   0  0  0  0  0  0  0  0  0  0  0  0
   20.3795   20.1280   19.0090 H   0  0  0  0  0  0  0  0  0  0  0  0
   19.8301   18.4376   18.9734 H   0  0  0  0  0  0  0  0  0  0  0  0
   21.5615   18.8122   18.8669 H   0  0  0  0  0  0  0  0  0  0  0  0
   20.0839   20.3516   26.3001 C   0  0  0  0  0  0  0  0  0  0  0  0
   20.8136   20.9231   26.8780 H   0  0  0  0  0  0  0  0  0  0  0  0
   19.9075   20.8447   25.3434 H   0  0  0  0  0  0  0  0  0  0  0  0
   19.1470   20.2829   26.8572 H   0  0  0  0  0  0  0  0  0  0  0  0
  1  2  1  0  0  0  0
  1  3  1  0  0  0  0
  1  4  1  0  0  0  0
  4  5  1  0  0  0  0
  4  6  1  0  0  0  0
  4  7  1  0  0  0  0
  7  8  1  0  0  0  0
  7  9  1  0  0  0  0
  7 10  1  0  0  0  0
 10 11  1  0  0  0  0
 10 12  1  0  0  0  0
 10 13  1  0  0  0  0
 13 14  1  0  0  0  0
 13 15  1  0  0  0  0
 13 16  1  0  0  0  0
 16 17  1  0  0  0  0
 16 18  1  0  0  0  0
 16 19  1  0  0  0  0
 19 20  1  0  0  0  0
 19 21  1  0  0  0  0
 19 22  1  0  0  0  0
  1 23  1  0  0  0  0
 23 24  1  0  0  0  0
 23 25  1  0  0  0  0
 23 26  1  0  0  0  0
M  END
> <VM2 Rank>
109

> <Conf_Id>
1620

> <Probability>
0.07

> <Sum Probability>
98.28

> <Delta G>
2.715

> <G>
78.181

> <E>
45.549

> <-TS>
32.633

> <U+W>
24.087

> <U>
73.664

> <W>
-49.577

> <W(PB)>
-51.837

> <W(SA)>
2.259

> <Valence>
4.219

> <Coulomb>
69.065

> <VdW>
0.380

> <VdW6>
-7.612

> <VdW12>
7.992

> <Bond>
0.225

> <Angle>
1.067

> <Pdih>
2.927

> <Idih>
0.000

> <Tether>
0.000

$$$$
VeraChem MOL file


 26 25  0  0  0  0  0  0  0  0999 V2000     
   19.6048   19.2088   26.0742 N   0  3  0  0  0  0  0  0  0  0  0  0
   19.6475   19.0713   27.0964 H   0  0  0  0  0  0  0  0  0  0  0  0
   18.6423   18.9485   25.8109 H   0  0  0  0  0  0  0  0  0  0  0  0
   20.6057   18.2835   25.4009 C   0  0  0  0  0  0  0  0  0  0  0  0
   20.7361   17.4249   26.0646 H   0  0  0  0  0  0  0  0  0  0  0  0
   21.5648   18.8038   25.3388 H   0  0  0  0  0  0  0  0  0  0  0  0
   20.1906   17.7529   24.0103 C   0  0  0  0  0  0  0  0  0  0  0  0
   20.9494   17.0293   23.6842 H   0  0  0  0  0  0  0  0  0  0  0  0
   19.2496   17.1943   24.1000 H   0  0  0  0  0  0  0  0  0  0  0  0
   20.0458   18.8537   22.9334 C   0  0  0  0  0  0  0  0  0  0  0  0
   20.9558   19.4678   22.9216 H   0  0  0  0  0  0  0  0  0  0  0  0
   19.2094   19.5158   23.1921 H   0  0  0  0  0  0  0  0  0  0  0  0
   19.7960   18.2531   21.5289 C   0  0  0  0  0  0  0  0  0  0  0  0
   20.6536   17.6336   21.2322 H   0  0  0  0  0  0  0  0  0  0  0  0
   18.9295   17.5790   21.5757 H   0  0  0  0  0  0  0  0  0  0  0  0
   19.5298   19.3209   20.4402 C   0  0  0  0  0  0  0  0  0  0  0  0
   18.6555   19.9258   20.7186 H   0  0  0  0  0  0  0  0  0  0  0  0
   19.2642   18.8108   19.5036 H   0  0  0  0  0  0  0  0  0  0  0  0
   20.7396   20.2465   20.1776 C   0  0  0  0  0  0  0  0  0  0  0  0
   20.5316   20.9214   19.3372 H   0  0  0  0  0  0  0  0  0  0  0  0
   21.6354   19.6640   19.9259 H   0  0  0  0  0  0  0  0  0  0  0  0
   20.9683   20.8694   21.0511 H   0  0  0  0  0  0  0  0  0  0  0  0
   19.8957   20.6706   25.7515 C   0  0  0  0  0  0  0  0  0  0  0  0
   19.8204   20.8326   24.6756 H   0  0  0  0  0  0  0  0  0  0  0  0
   19.1697   21.3012   26.2694 H   0  0  0  0  0  0  0  0  0  0  0  0
   20.9041   20.9172   26.0911 H   0  0  0  0  0  0  0  0  0  0  0  0
  1  2  1  0  0  0  0
  1  3  1  0  0  0  0
  1  4  1  0  0  0  0
  4  5  1  0  0  0  0
  4  6  1  0  0  0  0
  4  7  1  0  0  0  0
  7  8  1  0  0  0  0
  7  9  1  0  0  0  0
  7 10  1  0  0  0  0
 10 11  1  0  0  0  0
 10 12  1  0  0  0  0
 10 13  1  0  0  0  0
 13 14  1  0  0  0  0
 13 15  1  0  0  0  0
 13 16  1  0  0  0  0
 16 17  1  0  0  0  0
 16 18  1  0  0  0  0
 16 19  1  0  0  0  0
 19 20  1  0  0  0  0
 19 21  1  0  0  0  0
 19 22  1  0  0  0  0
  1 23  1  0  0  0  0
 23 24  1  0  0  0  0
 23 25  1  0  0  0  0
 23 26  1  0  0  0  0
M  END
> <VM2 Rank>
110

> <Conf_Id>
1272

> <Probability>
0.07

> <Sum Probability>
98.35

> <Delta G>
2.734

> <G>
78.201

> <E>
45.573

> <-TS>
32.628

> <U+W>
24.111

> <U>
73.569

> <W>
-49.458

> <W(PB)>
-51.694

> <W(SA)>
2.236

> <Valence>
4.232

> <Coulomb>
68.955

> <VdW>
0.382

> <VdW6>
-7.610

> <VdW12>
7.992

> <Bond>
0.222

> <Angle>
1.074

> <Pdih>
2.936

> <Idih>
0.000

> <Tether>
0.000

$$$$
VeraChem MOL file


 26 25  0  0  0  0  0  0  0  0999 V2000     
   19.4551   18.7676   25.9586 N   0  3  0  0  0  0  0  0  0  0  0  0
   19.4438   18.5964   26.9765 H   0  0  0  0  0  0  0  0  0  0  0  0
   18.9924   17.9439   25.5452 H   0  0  0  0  0  0  0  0  0  0  0  0
   20.8956   18.8601   25.4810 C   0  0  0  0  0  0  0  0  0  0  0  0
   21.4964   18.2709   26.1786 H   0  0  0  0  0  0  0  0  0  0  0  0
   21.2172   19.9013   25.5631 H   0  0  0  0  0  0  0  0  0  0  0  0
   21.1596   18.3264   24.0551 C   0  0  0  0  0  0  0  0  0  0  0  0
   22.2425   18.3624   23.8767 H   0  0  0  0  0  0  0  0  0  0  0  0
   20.8733   17.2676   24.0036 H   0  0  0  0  0  0  0  0  0  0  0  0
   20.4352   19.1188   22.9416 C   0  0  0  0  0  0  0  0  0  0  0  0
   20.6544   20.1899   23.0506 H   0  0  0  0  0  0  0  0  0  0  0  0
   19.3516   18.9951   23.0566 H   0  0  0  0  0  0  0  0  0  0  0  0
   20.8584   18.6445   21.5303 C   0  0  0  0  0  0  0  0  0  0  0  0
   21.9519   18.7059   21.4428 H   0  0  0  0  0  0  0  0  0  0  0  0
   20.5974   17.5849   21.4017 H   0  0  0  0  0  0  0  0  0  0  0  0
   20.2280   19.4747   20.3858 C   0  0  0  0  0  0  0  0  0  0  0  0
   20.6590   19.1425   19.4310 H   0  0  0  0  0  0  0  0  0  0  0  0
   20.5065   20.5321   20.4966 H   0  0  0  0  0  0  0  0  0  0  0  0
   18.6893   19.3479   20.3082 C   0  0  0  0  0  0  0  0  0  0  0  0
   18.2032   19.7828   21.1902 H   0  0  0  0  0  0  0  0  0  0  0  0
   18.3829   18.2968   20.2290 H   0  0  0  0  0  0  0  0  0  0  0  0
   18.3045   19.8765   19.4264 H   0  0  0  0  0  0  0  0  0  0  0  0
   18.6868   20.0499   25.6564 C   0  0  0  0  0  0  0  0  0  0  0  0
   18.6666   20.2226   24.5797 H   0  0  0  0  0  0  0  0  0  0  0  0
   17.6658   19.9504   26.0314 H   0  0  0  0  0  0  0  0  0  0  0  0
   19.1805   20.8874   26.1541 H   0  0  0  0  0  0  0  0  0  0  0  0
  1  2  1  0  0  0  0
  1  3  1  0  0  0  0
  1  4  1  0  0  0  0
  4  5  1  0  0  0  0
  4  6  1  0  0  0  0
  4  7  1  0  0  0  0
  7  8  1  0  0  0  0
  7  9  1  0  0  0  0
  7 10  1  0  0  0  0
 10 11  1  0  0  0  0
 10 12  1  0  0  0  0
 10 13  1  0  0  0  0
 13 14  1  0  0  0  0
 13 15  1  0  0  0  0
 13 16  1  0  0  0  0
 16 17  1  0  0  0  0
 16 18  1  0  0  0  0
 16 19  1  0  0  0  0
 19 20  1  0  0  0  0
 19 21  1  0  0  0  0
 19 22  1  0  0  0  0
  1 23  1  0  0  0  0
 23 24  1  0  0  0  0
 23 25  1  0  0  0  0
 23 26  1  0  0  0  0
M  END
> <VM2 Rank>
111

> <Conf_Id>
1305

> <Probability>
0.07

> <Sum Probability>
98.42

> <Delta G>
2.741

> <G>
78.207

> <E>
45.579

> <-TS>
32.628

> <U+W>
24.118

> <U>
73.676

> <W>
-49.558

> <W(PB)>
-51.786

> <W(SA)>
2.228

> <Valence>
4.237

> <Coulomb>
69.060

> <VdW>
0.379

> <VdW6>
-7.629

> <VdW12>
8.008

> <Bond>
0.224

> <Angle>
1.075

> <Pdih>
2.937

> <Idih>
0.000

> <Tether>
0.000

$$$$
VeraChem MOL file


 26 25  0  0  0  0  0  0  0  0999 V2000     
   20.2645   19.2767   26.0976 N   0  3  0  0  0  0  0  0  0  0  0  0
   21.2758   19.2192   25.9040 H   0  0  0  0  0  0  0  0  0  0  0  0
   20.1792   19.1259   27.1152 H   0  0  0  0  0  0  0  0  0  0  0  0
   19.5220   18.1721   25.3625 C   0  0  0  0  0  0  0  0  0  0  0  0
   18.4840   18.4871   25.2297 H   0  0  0  0  0  0  0  0  0  0  0  0
   19.5228   17.3002   26.0217 H   0  0  0  0  0  0  0  0  0  0  0  0
   20.1326   17.7470   24.0083 C   0  0  0  0  0  0  0  0  0  0  0  0
   21.1588   17.3904   24.1676 H   0  0  0  0  0  0  0  0  0  0  0  0
   19.5613   16.8866   23.6351 H   0  0  0  0  0  0  0  0  0  0  0  0
   20.1258   18.8619   22.9362 C   0  0  0  0  0  0  0  0  0  0  0  0
   20.7902   19.6781   23.2480 H   0  0  0  0  0  0  0  0  0  0  0  0
   19.1132   19.2785   22.8565 H   0  0  0  0  0  0  0  0  0  0  0  0
   20.5899   18.3346   21.5570 C   0  0  0  0  0  0  0  0  0  0  0  0
   21.5698   17.8502   21.6691 H   0  0  0  0  0  0  0  0  0  0  0  0
   19.8988   17.5561   21.2055 H   0  0  0  0  0  0  0  0  0  0  0  0
   20.7093   19.4421   20.4819 C   0  0  0  0  0  0  0  0  0  0  0  0
   21.1377   19.0032   19.5699 H   0  0  0  0  0  0  0  0  0  0  0  0
   21.4209   20.2098   20.8164 H   0  0  0  0  0  0  0  0  0  0  0  0
   19.3581   20.1046   20.1287 C   0  0  0  0  0  0  0  0  0  0  0  0
   19.4830   20.8137   19.3001 H   0  0  0  0  0  0  0  0  0  0  0  0
   18.9472   20.6619   20.9796 H   0  0  0  0  0  0  0  0  0  0  0  0
   18.6191   19.3542   19.8193 H   0  0  0  0  0  0  0  0  0  0  0  0
   19.7058   20.6511   25.7448 C   0  0  0  0  0  0  0  0  0  0  0  0
   18.6472   20.6852   26.0112 H   0  0  0  0  0  0  0  0  0  0  0  0
   20.2506   21.4124   26.3076 H   0  0  0  0  0  0  0  0  0  0  0  0
   19.8218   20.8328   24.6757 H   0  0  0  0  0  0  0  0  0  0  0  0
  1  2  1  0  0  0  0
  1  3  1  0  0  0  0
  1  4  1  0  0  0  0
  4  5  1  0  0  0  0
  4  6  1  0  0  0  0
  4  7  1  0  0  0  0
  7  8  1  0  0  0  0
  7  9  1  0  0  0  0
  7 10  1  0  0  0  0
 10 11  1  0  0  0  0
 10 12  1  0  0  0  0
 10 13  1  0  0  0  0
 13 14  1  0  0  0  0
 13 15  1  0  0  0  0
 13 16  1  0  0  0  0
 16 17  1  0  0  0  0
 16 18  1  0  0  0  0
 16 19  1  0  0  0  0
 19 20  1  0  0  0  0
 19 21  1  0  0  0  0
 19 22  1  0  0  0  0
  1 23  1  0  0  0  0
 23 24  1  0  0  0  0
 23 25  1  0  0  0  0
 23 26  1  0  0  0  0
M  END
> <VM2 Rank>
112

> <Conf_Id>
264

> <Probability>
0.07

> <Sum Probability>
98.48

> <Delta G>
2.741

> <G>
78.207

> <E>
45.579

> <-TS>
32.629

> <U+W>
24.117

> <U>
73.569

> <W>
-49.452

> <W(PB)>
-51.697

> <W(SA)>
2.245

> <Valence>
4.233

> <Coulomb>
68.955

> <VdW>
0.381

> <VdW6>
-7.610

> <VdW12>
7.991

> <Bond>
0.222

> <Angle>
1.075

> <Pdih>
2.936

> <Idih>
0.000

> <Tether>
0.000

$$$$
VeraChem MOL file


 26 25  0  0  0  0  0  0  0  0999 V2000     
   19.2782   18.4692   25.3144 N   0  3  0  0  0  0  0  0  0  0  0  0
   18.9158   18.1877   24.3924 H   0  0  0  0  0  0  0  0  0  0  0  0
   18.5215   18.2444   25.9797 H   0  0  0  0  0  0  0  0  0  0  0  0
   19.5418   19.9655   25.3334 C   0  0  0  0  0  0  0  0  0  0  0  0
   19.9021   20.2152   26.3345 H   0  0  0  0  0  0  0  0  0  0  0  0
   18.5814   20.4676   25.1916 H   0  0  0  0  0  0  0  0  0  0  0  0
   20.5470   20.5023   24.2869 C   0  0  0  0  0  0  0  0  0  0  0  0
   20.7045   21.5658   24.5099 H   0  0  0  0  0  0  0  0  0  0  0  0
   21.5279   20.0264   24.4128 H   0  0  0  0  0  0  0  0  0  0  0  0
   20.0715   20.3888   22.8153 C   0  0  0  0  0  0  0  0  0  0  0  0
   20.6103   21.1427   22.2247 H   0  0  0  0  0  0  0  0  0  0  0  0
   19.0069   20.6520   22.7455 H   0  0  0  0  0  0  0  0  0  0  0  0
   20.3251   19.0022   22.1740 C   0  0  0  0  0  0  0  0  0  0  0  0
   21.3881   18.7419   22.2722 H   0  0  0  0  0  0  0  0  0  0  0  0
   19.7597   18.2253   22.6996 H   0  0  0  0  0  0  0  0  0  0  0  0
   19.9300   18.9816   20.6805 C   0  0  0  0  0  0  0  0  0  0  0  0
   20.5020   19.7445   20.1339 H   0  0  0  0  0  0  0  0  0  0  0  0
   18.8683   19.2450   20.5737 H   0  0  0  0  0  0  0  0  0  0  0  0
   20.1811   17.5991   20.0413 C   0  0  0  0  0  0  0  0  0  0  0  0
   19.5943   16.8188   20.5433 H   0  0  0  0  0  0  0  0  0  0  0  0
   21.2416   17.3222   20.1030 H   0  0  0  0  0  0  0  0  0  0  0  0
   19.8960   17.6047   18.9812 H   0  0  0  0  0  0  0  0  0  0  0  0
   20.5334   17.6814   25.6712 C   0  0  0  0  0  0  0  0  0  0  0  0
   20.8817   17.9901   26.6592 H   0  0  0  0  0  0  0  0  0  0  0  0
   20.2959   16.6153   25.6802 H   0  0  0  0  0  0  0  0  0  0  0  0
   21.3072   17.8791   24.9267 H   0  0  0  0  0  0  0  0  0  0  0  0
  1  2  1  0  0  0  0
  1  3  1  0  0  0  0
  1  4  1  0  0  0  0
  4  5  1  0  0  0  0
  4  6  1  0  0  0  0
  4  7  1  0  0  0  0
  7  8  1  0  0  0  0
  7  9  1  0  0  0  0
  7 10  1  0  0  0  0
 10 11  1  0  0  0  0
 10 12  1  0  0  0  0
 10 13  1  0  0  0  0
 13 14  1  0  0  0  0
 13 15  1  0  0  0  0
 13 16  1  0  0  0  0
 16 17  1  0  0  0  0
 16 18  1  0  0  0  0
 16 19  1  0  0  0  0
 19 20  1  0  0  0  0
 19 21  1  0  0  0  0
 19 22  1  0  0  0  0
  1 23  1  0  0  0  0
 23 24  1  0  0  0  0
 23 25  1  0  0  0  0
 23 26  1  0  0  0  0
M  END
> <VM2 Rank>
113

> <Conf_Id>
970

> <Probability>
0.07

> <Sum Probability>
98.55

> <Delta G>
2.753

> <G>
78.219

> <E>
45.866

> <-TS>
32.354

> <U+W>
24.404

> <U>
74.362

> <W>
-49.958

> <W(PB)>
-52.191

> <W(SA)>
2.233

> <Valence>
3.849

> <Coulomb>
70.385

> <VdW>
0.128

> <VdW6>
-7.956

> <VdW12>
8.084

> <Bond>
0.231

> <Angle>
1.284

> <Pdih>
2.334

> <Idih>
0.000

> <Tether>
0.000

$$$$
VeraChem MOL file


 26 25  0  0  0  0  0  0  0  0999 V2000     
   20.5084   18.8754   25.9956 N   0  3  0  0  0  0  0  0  0  0  0  0
   21.1562   18.1657   25.6212 H   0  0  0  0  0  0  0  0  0  0  0  0
   20.4832   18.7025   27.0130 H   0  0  0  0  0  0  0  0  0  0  0  0
   19.1160   18.6775   25.4180 C   0  0  0  0  0  0  0  0  0  0  0  0
   18.5851   19.6314   25.4701 H   0  0  0  0  0  0  0  0  0  0  0  0
   18.5998   17.9738   26.0760 H   0  0  0  0  0  0  0  0  0  0  0  0
   19.0658   18.1119   23.9810 C   0  0  0  0  0  0  0  0  0  0  0  0
   19.5635   17.1334   23.9570 H   0  0  0  0  0  0  0  0  0  0  0  0
   18.0133   17.9292   23.7269 H   0  0  0  0  0  0  0  0  0  0  0  0
   19.6909   19.0426   22.9153 C   0  0  0  0  0  0  0  0  0  0  0  0
   20.7663   19.1400   23.1067 H   0  0  0  0  0  0  0  0  0  0  0  0
   19.2523   20.0464   23.0013 H   0  0  0  0  0  0  0  0  0  0  0  0
   19.4722   18.5029   21.4812 C   0  0  0  0  0  0  0  0  0  0  0  0
   19.9503   17.5189   21.3786 H   0  0  0  0  0  0  0  0  0  0  0  0
   18.3976   18.3426   21.3170 H   0  0  0  0  0  0  0  0  0  0  0  0
   20.0003   19.4517   20.3779 C   0  0  0  0  0  0  0  0  0  0  0  0
   19.5069   20.4302   20.4616 H   0  0  0  0  0  0  0  0  0  0  0  0
   19.7131   19.0463   19.3975 H   0  0  0  0  0  0  0  0  0  0  0  0
   21.5344   19.6389   20.4089 C   0  0  0  0  0  0  0  0  0  0  0  0
   21.8598   20.1565   21.3197 H   0  0  0  0  0  0  0  0  0  0  0  0
   21.8651   20.2407   19.5526 H   0  0  0  0  0  0  0  0  0  0  0  0
   22.0516   18.6719   20.3586 H   0  0  0  0  0  0  0  0  0  0  0  0
   21.0199   20.2890   25.7390 C   0  0  0  0  0  0  0  0  0  0  0  0
   21.0795   20.4703   24.6652 H   0  0  0  0  0  0  0  0  0  0  0  0
   20.3333   21.0053   26.1954 H   0  0  0  0  0  0  0  0  0  0  0  0
   22.0113   20.3957   26.1849 H   0  0  0  0  0  0  0  0  0  0  0  0
  1  2  1  0  0  0  0
  1  3  1  0  0  0  0
  1  4  1  0  0  0  0
  4  5  1  0  0  0  0
  4  6  1  0  0  0  0
  4  7  1  0  0  0  0
  7  8  1  0  0  0  0
  7  9  1  0  0  0  0
  7 10  1  0  0  0  0
 10 11  1  0  0  0  0
 10 12  1  0  0  0  0
 10 13  1  0  0  0  0
 13 14  1  0  0  0  0
 13 15  1  0  0  0  0
 13 16  1  0  0  0  0
 16 17  1  0  0  0  0
 16 18  1  0  0  0  0
 16 19  1  0  0  0  0
 19 20  1  0  0  0  0
 19 21  1  0  0  0  0
 19 22  1  0  0  0  0
  1 23  1  0  0  0  0
 23 24  1  0  0  0  0
 23 25  1  0  0  0  0
 23 26  1  0  0  0  0
M  END
> <VM2 Rank>
114

> <Conf_Id>
1055

> <Probability>
0.07

> <Sum Probability>
98.62

> <Delta G>
2.763

> <G>
78.230

> <E>
45.602

> <-TS>
32.628

> <U+W>
24.140

> <U>
73.676

> <W>
-49.536

> <W(PB)>
-51.781

> <W(SA)>
2.245

> <Valence>
4.237

> <Coulomb>
69.060

> <VdW>
0.379

> <VdW6>
-7.629

> <VdW12>
8.009

> <Bond>
0.224

> <Angle>
1.074

> <Pdih>
2.938

> <Idih>
0.000

> <Tether>
0.000

$$$$
VeraChem MOL file


 26 25  0  0  0  0  0  0  0  0999 V2000     
   20.7855   18.6224   25.3679 N   0  3  0  0  0  0  0  0  0  0  0  0
   21.5233   18.5492   26.0863 H   0  0  0  0  0  0  0  0  0  0  0  0
   21.2609   18.4262   24.4755 H   0  0  0  0  0  0  0  0  0  0  0  0
   20.2261   20.0350   25.3579 C   0  0  0  0  0  0  0  0  0  0  0  0
   21.0736   20.7208   25.2807 H   0  0  0  0  0  0  0  0  0  0  0  0
   19.7534   20.1998   26.3294 H   0  0  0  0  0  0  0  0  0  0  0  0
   19.2098   20.3666   24.2395 C   0  0  0  0  0  0  0  0  0  0  0  0
   18.3379   19.7028   24.2994 H   0  0  0  0  0  0  0  0  0  0  0  0
   18.8269   21.3754   24.4431 H   0  0  0  0  0  0  0  0  0  0  0  0
   19.8008   20.3612   22.8058 C   0  0  0  0  0  0  0  0  0  0  0  0
   20.7936   20.8323   22.8094 H   0  0  0  0  0  0  0  0  0  0  0  0
   19.1652   20.9965   22.1735 H   0  0  0  0  0  0  0  0  0  0  0  0
   19.8752   18.9566   22.1580 C   0  0  0  0  0  0  0  0  0  0  0  0
   20.5455   18.3043   22.7277 H   0  0  0  0  0  0  0  0  0  0  0  0
   18.8813   18.4887   22.1823 H   0  0  0  0  0  0  0  0  0  0  0  0
   20.3713   19.0262   20.6964 C   0  0  0  0  0  0  0  0  0  0  0  0
   21.3640   19.4968   20.6633 H   0  0  0  0  0  0  0  0  0  0  0  0
   19.6989   19.6637   20.1053 H   0  0  0  0  0  0  0  0  0  0  0  0
   20.4469   17.6261   20.0506 C   0  0  0  0  0  0  0  0  0  0  0  0
   21.1403   16.9748   20.5984 H   0  0  0  0  0  0  0  0  0  0  0  0
   20.7996   17.6963   19.0134 H   0  0  0  0  0  0  0  0  0  0  0  0
   19.4612   17.1429   20.0388 H   0  0  0  0  0  0  0  0  0  0  0  0
   19.6923   17.5958   25.6410 C   0  0  0  0  0  0  0  0  0  0  0  0
   18.9488   17.6396   24.8426 H   0  0  0  0  0  0  0  0  0  0  0  0
   20.1379   16.5992   25.6740 H   0  0  0  0  0  0  0  0  0  0  0  0
   19.2207   17.8210   26.6000 H   0  0  0  0  0  0  0  0  0  0  0  0
  1  2  1  0  0  0  0
  1  3  1  0  0  0  0
  1  4  1  0  0  0  0
  4  5  1  0  0  0  0
  4  6  1  0  0  0  0
  4  7  1  0  0  0  0
  7  8  1  0  0  0  0
  7  9  1  0  0  0  0
  7 10  1  0  0  0  0
 10 11  1  0  0  0  0
 10 12  1  0  0  0  0
 10 13  1  0  0  0  0
 13 14  1  0  0  0  0
 13 15  1  0  0  0  0
 13 16  1  0  0  0  0
 16 17  1  0  0  0  0
 16 18  1  0  0  0  0
 16 19  1  0  0  0  0
 19 20  1  0  0  0  0
 19 21  1  0  0  0  0
 19 22  1  0  0  0  0
  1 23  1  0  0  0  0
 23 24  1  0  0  0  0
 23 25  1  0  0  0  0
 23 26  1  0  0  0  0
M  END
> <VM2 Rank>
115

> <Conf_Id>
1364

> <Probability>
0.06

> <Sum Probability>
98.67

> <Delta G>
2.816

> <G>
78.282

> <E>
45.924

> <-TS>
32.358

> <U+W>
24.462

> <U>
74.362

> <W>
-49.900

> <W(PB)>
-52.137

> <W(SA)>
2.237

> <Valence>
3.850

> <Coulomb>
70.384

> <VdW>
0.128

> <VdW6>
-7.956

> <VdW12>
8.084

> <Bond>
0.231

> <Angle>
1.283

> <Pdih>
2.337

> <Idih>
0.000

> <Tether>
0.000

$$$$
VeraChem MOL file


 26 25  0  0  0  0  0  0  0  0999 V2000     
   19.9716   18.6886   26.2345 N   0  3  0  0  0  0  0  0  0  0  0  0
   20.6342   17.9339   26.0002 H   0  0  0  0  0  0  0  0  0  0  0  0
   19.5244   18.3867   27.1146 H   0  0  0  0  0  0  0  0  0  0  0  0
   18.9133   18.8180   25.1510 C   0  0  0  0  0  0  0  0  0  0  0  0
   18.5326   19.8423   25.1648 H   0  0  0  0  0  0  0  0  0  0  0  0
   18.0917   18.1547   25.4332 H   0  0  0  0  0  0  0  0  0  0  0  0
   19.3693   18.4333   23.7256 C   0  0  0  0  0  0  0  0  0  0  0  0
   19.7023   17.3871   23.7206 H   0  0  0  0  0  0  0  0  0  0  0  0
   18.4877   18.4805   23.0752 H   0  0  0  0  0  0  0  0  0  0  0  0
   20.4883   19.3412   23.1568 C   0  0  0  0  0  0  0  0  0  0  0  0
   21.3817   19.2471   23.7873 H   0  0  0  0  0  0  0  0  0  0  0  0
   20.1773   20.3938   23.2085 H   0  0  0  0  0  0  0  0  0  0  0  0
   20.8951   18.9895   21.7041 C   0  0  0  0  0  0  0  0  0  0  0  0
   21.7895   19.5725   21.4443 H   0  0  0  0  0  0  0  0  0  0  0  0
   21.1908   17.9327   21.6491 H   0  0  0  0  0  0  0  0  0  0  0  0
   19.7903   19.2791   20.6599 C   0  0  0  0  0  0  0  0  0  0  0  0
   19.4566   20.3221   20.7519 H   0  0  0  0  0  0  0  0  0  0  0  0
   18.9130   18.6464   20.8474 H   0  0  0  0  0  0  0  0  0  0  0  0
   20.2881   19.0274   19.2204 C   0  0  0  0  0  0  0  0  0  0  0  0
   21.1415   19.6741   18.9783 H   0  0  0  0  0  0  0  0  0  0  0  0
   19.4923   19.2345   18.4932 H   0  0  0  0  0  0  0  0  0  0  0  0
   20.6018   17.9837   19.0882 H   0  0  0  0  0  0  0  0  0  0  0  0
   20.6919   20.0129   26.4647 C   0  0  0  0  0  0  0  0  0  0  0  0
   21.4323   19.8831   27.2572 H   0  0  0  0  0  0  0  0  0  0  0  0
   21.1892   20.3264   25.5459 H   0  0  0  0  0  0  0  0  0  0  0  0
   19.9624   20.7685   26.7642 H   0  0  0  0  0  0  0  0  0  0  0  0
  1  2  1  0  0  0  0
  1  3  1  0  0  0  0
  1  4  1  0  0  0  0
  4  5  1  0  0  0  0
  4  6  1  0  0  0  0
  4  7  1  0  0  0  0
  7  8  1  0  0  0  0
  7  9  1  0  0  0  0
  7 10  1  0  0  0  0
 10 11  1  0  0  0  0
 10 12  1  0  0  0  0
 10 13  1  0  0  0  0
 13 14  1  0  0  0  0
 13 15  1  0  0  0  0
 13 16  1  0  0  0  0
 16 17  1  0  0  0  0
 16 18  1  0  0  0  0
 16 19  1  0  0  0  0
 19 20  1  0  0  0  0
 19 21  1  0  0  0  0
 19 22  1  0  0  0  0
  1 23  1  0  0  0  0
 23 24  1  0  0  0  0
 23 25  1  0  0  0  0
 23 26  1  0  0  0  0
M  END
> <VM2 Rank>
116

> <Conf_Id>
1343

> <Probability>
0.06

> <Sum Probability>
98.73

> <Delta G>
2.828

> <G>
78.295

> <E>
45.749

> <-TS>
32.546

> <U+W>
24.287

> <U>
73.757

> <W>
-49.470

> <W(PB)>
-51.699

> <W(SA)>
2.229

> <Valence>
4.423

> <Coulomb>
68.887

> <VdW>
0.447

> <VdW6>
-7.490

> <VdW12>
7.937

> <Bond>
0.232

> <Angle>
1.146

> <Pdih>
3.045

> <Idih>
0.000

> <Tether>
0.000

$$$$
VeraChem MOL file


 26 25  0  0  0  0  0  0  0  0999 V2000     
   19.5321   18.8525   25.9064 N   0  3  0  0  0  0  0  0  0  0  0  0
   20.2375   18.4852   26.5638 H   0  0  0  0  0  0  0  0  0  0  0  0
   18.8991   18.0610   25.7126 H   0  0  0  0  0  0  0  0  0  0  0  0
   20.1999   19.3142   24.6269 C   0  0  0  0  0  0  0  0  0  0  0  0
   20.8693   20.1405   24.8791 H   0  0  0  0  0  0  0  0  0  0  0  0
   19.4203   19.6968   23.9667 H   0  0  0  0  0  0  0  0  0  0  0  0
   20.9992   18.1999   23.9221 C   0  0  0  0  0  0  0  0  0  0  0  0
   21.7690   17.8408   24.6182 H   0  0  0  0  0  0  0  0  0  0  0  0
   20.3499   17.3407   23.7076 H   0  0  0  0  0  0  0  0  0  0  0  0
   21.6945   18.6797   22.6229 C   0  0  0  0  0  0  0  0  0  0  0  0
   22.5850   18.0563   22.4619 H   0  0  0  0  0  0  0  0  0  0  0  0
   22.0694   19.7044   22.7530 H   0  0  0  0  0  0  0  0  0  0  0  0
   20.8234   18.5892   21.3427 C   0  0  0  0  0  0  0  0  0  0  0  0
   21.4436   18.8880   20.4861 H   0  0  0  0  0  0  0  0  0  0  0  0
   20.5431   17.5419   21.1640 H   0  0  0  0  0  0  0  0  0  0  0  0
   19.5486   19.4641   21.3669 C   0  0  0  0  0  0  0  0  0  0  0  0
   19.8058   20.4919   21.6586 H   0  0  0  0  0  0  0  0  0  0  0  0
   18.8448   19.0788   22.1160 H   0  0  0  0  0  0  0  0  0  0  0  0
   18.8447   19.4830   19.9931 C   0  0  0  0  0  0  0  0  0  0  0  0
   18.5521   18.4706   19.6856 H   0  0  0  0  0  0  0  0  0  0  0  0
   19.5010   19.8995   19.2179 H   0  0  0  0  0  0  0  0  0  0  0  0
   17.9369   20.0989   20.0312 H   0  0  0  0  0  0  0  0  0  0  0  0
   18.7655   20.0074   26.5360 C   0  0  0  0  0  0  0  0  0  0  0  0
   18.2897   19.6619   27.4565 H   0  0  0  0  0  0  0  0  0  0  0  0
   19.4607   20.8189   26.7623 H   0  0  0  0  0  0  0  0  0  0  0  0
   18.0036   20.3570   25.8358 H   0  0  0  0  0  0  0  0  0  0  0  0
  1  2  1  0  0  0  0
  1  3  1  0  0  0  0
  1  4  1  0  0  0  0
  4  5  1  0  0  0  0
  4  6  1  0  0  0  0
  4  7  1  0  0  0  0
  7  8  1  0  0  0  0
  7  9  1  0  0  0  0
  7 10  1  0  0  0  0
 10 11  1  0  0  0  0
 10 12  1  0  0  0  0
 10 13  1  0  0  0  0
 13 14  1  0  0  0  0
 13 15  1  0  0  0  0
 13 16  1  0  0  0  0
 16 17  1  0  0  0  0
 16 18  1  0  0  0  0
 16 19  1  0  0  0  0
 19 20  1  0  0  0  0
 19 21  1  0  0  0  0
 19 22  1  0  0  0  0
  1 23  1  0  0  0  0
 23 24  1  0  0  0  0
 23 25  1  0  0  0  0
 23 26  1  0  0  0  0
M  END
> <VM2 Rank>
117

> <Conf_Id>
244

> <Probability>
0.05

> <Sum Probability>
98.78

> <Delta G>
2.918

> <G>
78.384

> <E>
45.898

> <-TS>
32.486

> <U+W>
24.436

> <U>
73.891

> <W>
-49.455

> <W(PB)>
-51.733

> <W(SA)>
2.278

> <Valence>
4.111

> <Coulomb>
69.672

> <VdW>
0.108

> <VdW6>
-6.998

> <VdW12>
7.106

> <Bond>
0.196

> <Angle>
1.122

> <Pdih>
2.793

> <Idih>
0.000

> <Tether>
0.000

$$$$
VeraChem MOL file


 26 25  0  0  0  0  0  0  0  0999 V2000     
   19.7575   18.6751   26.3424 N   0  3  0  0  0  0  0  0  0  0  0  0
   19.9976   17.6718   26.3453 H   0  0  0  0  0  0  0  0  0  0  0  0
   19.2212   18.8189   27.2127 H   0  0  0  0  0  0  0  0  0  0  0  0
   18.8688   18.9973   25.1486 C   0  0  0  0  0  0  0  0  0  0  0  0
   18.6297   20.0634   25.1704 H   0  0  0  0  0  0  0  0  0  0  0  0
   17.9384   18.4452   25.3046 H   0  0  0  0  0  0  0  0  0  0  0  0
   19.4343   18.6063   23.7648 C   0  0  0  0  0  0  0  0  0  0  0  0
   20.0821   17.7249   23.8602 H   0  0  0  0  0  0  0  0  0  0  0  0
   18.5880   18.3030   23.1362 H   0  0  0  0  0  0  0  0  0  0  0  0
   20.1884   19.7662   23.0659 C   0  0  0  0  0  0  0  0  0  0  0  0
   20.9796   20.1459   23.7231 H   0  0  0  0  0  0  0  0  0  0  0  0
   19.4998   20.6069   22.9036 H   0  0  0  0  0  0  0  0  0  0  0  0
   20.8353   19.3600   21.7185 C   0  0  0  0  0  0  0  0  0  0  0  0
   21.4377   20.2037   21.3541 H   0  0  0  0  0  0  0  0  0  0  0  0
   21.5363   18.5300   21.8822 H   0  0  0  0  0  0  0  0  0  0  0  0
   19.8091   18.9688   20.6284 C   0  0  0  0  0  0  0  0  0  0  0  0
   19.0745   19.7765   20.5028 H   0  0  0  0  0  0  0  0  0  0  0  0
   19.2505   18.0749   20.9359 H   0  0  0  0  0  0  0  0  0  0  0  0
   20.4960   18.6875   19.2748 C   0  0  0  0  0  0  0  0  0  0  0  0
   21.2161   17.8635   19.3614 H   0  0  0  0  0  0  0  0  0  0  0  0
   21.0326   19.5738   18.9120 H   0  0  0  0  0  0  0  0  0  0  0  0
   19.7549   18.4086   18.5146 H   0  0  0  0  0  0  0  0  0  0  0  0
   21.0186   19.5288   26.3736 C   0  0  0  0  0  0  0  0  0  0  0  0
   20.7394   20.5843   26.3474 H   0  0  0  0  0  0  0  0  0  0  0  0
   21.5708   19.3155   27.2915 H   0  0  0  0  0  0  0  0  0  0  0  0
   21.6395   19.2841   25.5098 H   0  0  0  0  0  0  0  0  0  0  0  0
  1  2  1  0  0  0  0
  1  3  1  0  0  0  0
  1  4  1  0  0  0  0
  4  5  1  0  0  0  0
  4  6  1  0  0  0  0
  4  7  1  0  0  0  0
  7  8  1  0  0  0  0
  7  9  1  0  0  0  0
  7 10  1  0  0  0  0
 10 11  1  0  0  0  0
 10 12  1  0  0  0  0
 10 13  1  0  0  0  0
 13 14  1  0  0  0  0
 13 15  1  0  0  0  0
 13 16  1  0  0  0  0
 16 17  1  0  0  0  0
 16 18  1  0  0  0  0
 16 19  1  0  0  0  0
 19 20  1  0  0  0  0
 19 21  1  0  0  0  0
 19 22  1  0  0  0  0
  1 23  1  0  0  0  0
 23 24  1  0  0  0  0
 23 25  1  0  0  0  0
 23 26  1  0  0  0  0
M  END
> <VM2 Rank>
118

> <Conf_Id>
1107

> <Probability>
0.05

> <Sum Probability>
98.83

> <Delta G>
2.924

> <G>
78.390

> <E>
45.921

> <-TS>
32.469

> <U+W>
24.459

> <U>
73.840

> <W>
-49.381

> <W(PB)>
-51.644

> <W(SA)>
2.262

> <Valence>
4.495

> <Coulomb>
68.796

> <VdW>
0.550

> <VdW6>
-7.478

> <VdW12>
8.028

> <Bond>
0.238

> <Angle>
1.174

> <Pdih>
3.083

> <Idih>
0.000

> <Tether>
0.000

$$$$
VeraChem MOL file


 26 25  0  0  0  0  0  0  0  0999 V2000     
   20.0003   18.6915   26.2356 N   0  3  0  0  0  0  0  0  0  0  0  0
   20.4367   18.4802   27.1469 H   0  0  0  0  0  0  0  0  0  0  0  0
   19.5223   17.8200   25.9609 H   0  0  0  0  0  0  0  0  0  0  0  0
   21.0838   19.0402   25.2278 C   0  0  0  0  0  0  0  0  0  0  0  0
   22.0008   18.5548   25.5716 H   0  0  0  0  0  0  0  0  0  0  0  0
   21.2474   20.1202   25.2610 H   0  0  0  0  0  0  0  0  0  0  0  0
   20.8159   18.5814   23.7768 C   0  0  0  0  0  0  0  0  0  0  0  0
   21.7131   18.8107   23.1895 H   0  0  0  0  0  0  0  0  0  0  0  0
   20.7027   17.4895   23.7560 H   0  0  0  0  0  0  0  0  0  0  0  0
   19.5790   19.2482   23.1246 C   0  0  0  0  0  0  0  0  0  0  0  0
   19.6662   20.3415   23.1905 H   0  0  0  0  0  0  0  0  0  0  0  0
   18.6813   18.9708   23.6917 H   0  0  0  0  0  0  0  0  0  0  0  0
   19.3545   18.8319   21.6496 C   0  0  0  0  0  0  0  0  0  0  0  0
   19.2831   17.7375   21.5815 H   0  0  0  0  0  0  0  0  0  0  0  0
   18.3811   19.2239   21.3236 H   0  0  0  0  0  0  0  0  0  0  0  0
   20.4483   19.3463   20.6832 C   0  0  0  0  0  0  0  0  0  0  0  0
   21.4201   18.9026   20.9362 H   0  0  0  0  0  0  0  0  0  0  0  0
   20.5571   20.4345   20.7910 H   0  0  0  0  0  0  0  0  0  0  0  0
   20.1136   19.0096   19.2143 C   0  0  0  0  0  0  0  0  0  0  0  0
   20.9001   19.3785   18.5431 H   0  0  0  0  0  0  0  0  0  0  0  0
   19.1663   19.4723   18.9084 H   0  0  0  0  0  0  0  0  0  0  0  0
   20.0273   17.9250   19.0678 H   0  0  0  0  0  0  0  0  0  0  0  0
   19.0126   19.8409   26.4052 C   0  0  0  0  0  0  0  0  0  0  0  0
   19.5512   20.7265   26.7494 H   0  0  0  0  0  0  0  0  0  0  0  0
   18.5277   20.0538   25.4516 H   0  0  0  0  0  0  0  0  0  0  0  0
   18.2602   19.5584   27.1449 H   0  0  0  0  0  0  0  0  0  0  0  0
  1  2  1  0  0  0  0
  1  3  1  0  0  0  0
  1  4  1  0  0  0  0
  4  5  1  0  0  0  0
  4  6  1  0  0  0  0
  4  7  1  0  0  0  0
  7  8  1  0  0  0  0
  7  9  1  0  0  0  0
  7 10  1  0  0  0  0
 10 11  1  0  0  0  0
 10 12  1  0  0  0  0
 10 13  1  0  0  0  0
 13 14  1  0  0  0  0
 13 15  1  0  0  0  0
 13 16  1  0  0  0  0
 16 17  1  0  0  0  0
 16 18  1  0  0  0  0
 16 19  1  0  0  0  0
 19 20  1  0  0  0  0
 19 21  1  0  0  0  0
 19 22  1  0  0  0  0
  1 23  1  0  0  0  0
 23 24  1  0  0  0  0
 23 25  1  0  0  0  0
 23 26  1  0  0  0  0
M  END
> <VM2 Rank>
119

> <Conf_Id>
840

> <Probability>
0.05

> <Sum Probability>
98.88

> <Delta G>
2.932

> <G>
78.398

> <E>
45.852

> <-TS>
32.546

> <U+W>
24.391

> <U>
73.757

> <W>
-49.367

> <W(PB)>
-51.644

> <W(SA)>
2.278

> <Valence>
4.422

> <Coulomb>
68.887

> <VdW>
0.448

> <VdW6>
-7.490

> <VdW12>
7.938

> <Bond>
0.232

> <Angle>
1.146

> <Pdih>
3.045

> <Idih>
0.000

> <Tether>
0.000

$$$$
VeraChem MOL file


 26 25  0  0  0  0  0  0  0  0999 V2000     
   20.2044   18.7208   26.3582 N   0  3  0  0  0  0  0  0  0  0  0  0
   20.6385   18.9635   27.2629 H   0  0  0  0  0  0  0  0  0  0  0  0
   20.1719   17.6897   26.3514 H   0  0  0  0  0  0  0  0  0  0  0  0
   21.0911   19.2241   25.2273 C   0  0  0  0  0  0  0  0  0  0  0  0
   22.1006   18.8700   25.4520 H   0  0  0  0  0  0  0  0  0  0  0  0
   21.1081   20.3164   25.2581 H   0  0  0  0  0  0  0  0  0  0  0  0
   20.7145   18.7369   23.8102 C   0  0  0  0  0  0  0  0  0  0  0  0
   21.6465   18.6154   23.2445 H   0  0  0  0  0  0  0  0  0  0  0  0
   20.2531   17.7421   23.8662 H   0  0  0  0  0  0  0  0  0  0  0  0
   19.7924   19.7254   23.0519 C   0  0  0  0  0  0  0  0  0  0  0  0
   20.3065   20.6891   22.9324 H   0  0  0  0  0  0  0  0  0  0  0  0
   18.8968   19.9326   23.6493 H   0  0  0  0  0  0  0  0  0  0  0  0
   19.3370   19.2067   21.6654 C   0  0  0  0  0  0  0  0  0  0  0  0
   18.8086   18.2509   21.7854 H   0  0  0  0  0  0  0  0  0  0  0  0
   18.6035   19.9138   21.2538 H   0  0  0  0  0  0  0  0  0  0  0  0
   20.4949   19.0390   20.6527 C   0  0  0  0  0  0  0  0  0  0  0  0
   21.1997   18.2743   21.0048 H   0  0  0  0  0  0  0  0  0  0  0  0
   21.0579   19.9795   20.5732 H   0  0  0  0  0  0  0  0  0  0  0  0
   19.9756   18.6347   19.2563 C   0  0  0  0  0  0  0  0  0  0  0  0
   19.4327   17.6815   19.2979 H   0  0  0  0  0  0  0  0  0  0  0  0
   20.8092   18.5169   18.5518 H   0  0  0  0  0  0  0  0  0  0  0  0
   19.2976   19.3968   18.8505 H   0  0  0  0  0  0  0  0  0  0  0  0
   18.7980   19.3024   26.2951 C   0  0  0  0  0  0  0  0  0  0  0  0
   18.3011   18.9436   25.3919 H   0  0  0  0  0  0  0  0  0  0  0  0
   18.2374   18.9756   27.1737 H   0  0  0  0  0  0  0  0  0  0  0  0
   18.8598   20.3927   26.2809 H   0  0  0  0  0  0  0  0  0  0  0  0
  1  2  1  0  0  0  0
  1  3  1  0  0  0  0
  1  4  1  0  0  0  0
  4  5  1  0  0  0  0
  4  6  1  0  0  0  0
  4  7  1  0  0  0  0
  7  8  1  0  0  0  0
  7  9  1  0  0  0  0
  7 10  1  0  0  0  0
 10 11  1  0  0  0  0
 10 12  1  0  0  0  0
 10 13  1  0  0  0  0
 13 14  1  0  0  0  0
 13 15  1  0  0  0  0
 13 16  1  0  0  0  0
 16 17  1  0  0  0  0
 16 18  1  0  0  0  0
 16 19  1  0  0  0  0
 19 20  1  0  0  0  0
 19 21  1  0  0  0  0
 19 22  1  0  0  0  0
  1 23  1  0  0  0  0
 23 24  1  0  0  0  0
 23 25  1  0  0  0  0
 23 26  1  0  0  0  0
M  END
> <VM2 Rank>
120

> <Conf_Id>
269

> <Probability>
0.05

> <Sum Probability>
98.93

> <Delta G>
2.946

> <G>
78.413

> <E>
45.944

> <-TS>
32.469

> <U+W>
24.482

> <U>
73.840

> <W>
-49.358

> <W(PB)>
-51.614

> <W(SA)>
2.256

> <Valence>
4.494

> <Coulomb>
68.796

> <VdW>
0.550

> <VdW6>
-7.478

> <VdW12>
8.028

> <Bond>
0.238

> <Angle>
1.175

> <Pdih>
3.082

> <Idih>
0.000

> <Tether>
0.000

$$$$
VeraChem MOL file


 26 25  0  0  0  0  0  0  0  0999 V2000     
   20.2127   19.0424   26.0018 N   0  3  0  0  0  0  0  0  0  0  0  0
   20.7520   18.1773   26.1619 H   0  0  0  0  0  0  0  0  0  0  0  0
   19.3452   18.9303   26.5492 H   0  0  0  0  0  0  0  0  0  0  0  0
   19.8869   19.1909   24.5295 C   0  0  0  0  0  0  0  0  0  0  0  0
   20.8315   19.2999   23.9922 H   0  0  0  0  0  0  0  0  0  0  0  0
   19.3066   20.1085   24.4048 H   0  0  0  0  0  0  0  0  0  0  0  0
   19.1013   17.9978   23.9560 C   0  0  0  0  0  0  0  0  0  0  0  0
   19.7073   17.0862   24.0441 H   0  0  0  0  0  0  0  0  0  0  0  0
   18.2051   17.8352   24.5693 H   0  0  0  0  0  0  0  0  0  0  0  0
   18.6623   18.1876   22.4819 C   0  0  0  0  0  0  0  0  0  0  0  0
   17.9892   19.0517   22.3950 H   0  0  0  0  0  0  0  0  0  0  0  0
   18.0593   17.3127   22.2017 H   0  0  0  0  0  0  0  0  0  0  0  0
   19.8302   18.3119   21.4683 C   0  0  0  0  0  0  0  0  0  0  0  0
   20.6773   17.6906   21.7904 H   0  0  0  0  0  0  0  0  0  0  0  0
   19.4972   17.8944   20.5079 H   0  0  0  0  0  0  0  0  0  0  0  0
   20.2934   19.7686   21.2214 C   0  0  0  0  0  0  0  0  0  0  0  0
   20.6425   20.2310   22.1519 H   0  0  0  0  0  0  0  0  0  0  0  0
   19.4434   20.3714   20.8720 H   0  0  0  0  0  0  0  0  0  0  0  0
   21.4261   19.8345   20.1747 C   0  0  0  0  0  0  0  0  0  0  0  0
   21.0990   19.4219   19.2114 H   0  0  0  0  0  0  0  0  0  0  0  0
   22.3052   19.2680   20.5084 H   0  0  0  0  0  0  0  0  0  0  0  0
   21.7389   20.8733   20.0068 H   0  0  0  0  0  0  0  0  0  0  0  0
   20.9951   20.2563   26.4835 C   0  0  0  0  0  0  0  0  0  0  0  0
   20.3918   21.1546   26.3346 H   0  0  0  0  0  0  0  0  0  0  0  0
   21.2234   20.1372   27.5450 H   0  0  0  0  0  0  0  0  0  0  0  0
   21.9232   20.3350   25.9131 H   0  0  0  0  0  0  0  0  0  0  0  0
  1  2  1  0  0  0  0
  1  3  1  0  0  0  0
  1  4  1  0  0  0  0
  4  5  1  0  0  0  0
  4  6  1  0  0  0  0
  4  7  1  0  0  0  0
  7  8  1  0  0  0  0
  7  9  1  0  0  0  0
  7 10  1  0  0  0  0
 10 11  1  0  0  0  0
 10 12  1  0  0  0  0
 10 13  1  0  0  0  0
 13 14  1  0  0  0  0
 13 15  1  0  0  0  0
 13 16  1  0  0  0  0
 16 17  1  0  0  0  0
 16 18  1  0  0  0  0
 16 19  1  0  0  0  0
 19 20  1  0  0  0  0
 19 21  1  0  0  0  0
 19 22  1  0  0  0  0
  1 23  1  0  0  0  0
 23 24  1  0  0  0  0
 23 25  1  0  0  0  0
 23 26  1  0  0  0  0
M  END
> <VM2 Rank>
121

> <Conf_Id>
990

> <Probability>
0.05

> <Sum Probability>
98.98

> <Delta G>
2.952

> <G>
78.419

> <E>
46.119

> <-TS>
32.300

> <U+W>
24.657

> <U>
73.909

> <W>
-49.252

> <W(PB)>
-51.550

> <W(SA)>
2.297

> <Valence>
4.252

> <Coulomb>
69.491

> <VdW>
0.166

> <VdW6>
-6.831

> <VdW12>
6.998

> <Bond>
0.207

> <Angle>
1.085

> <Pdih>
2.961

> <Idih>
0.000

> <Tether>
0.000

$$$$
VeraChem MOL file


 26 25  0  0  0  0  0  0  0  0999 V2000     
   20.0525   19.6989   26.0022 N   0  3  0  0  0  0  0  0  0  0  0  0
   20.3276   20.6210   26.3763 H   0  0  0  0  0  0  0  0  0  0  0  0
   20.4382   19.0144   26.6709 H   0  0  0  0  0  0  0  0  0  0  0  0
   20.6729   19.5005   24.6298 C   0  0  0  0  0  0  0  0  0  0  0  0
   21.7309   19.7622   24.7112 H   0  0  0  0  0  0  0  0  0  0  0  0
   20.2029   20.2111   23.9482 H   0  0  0  0  0  0  0  0  0  0  0  0
   20.5563   18.0624   24.0783 C   0  0  0  0  0  0  0  0  0  0  0  0
   21.0302   17.3829   24.7990 H   0  0  0  0  0  0  0  0  0  0  0  0
   19.5047   17.7560   24.0096 H   0  0  0  0  0  0  0  0  0  0  0  0
   21.2474   17.8844   22.7028 C   0  0  0  0  0  0  0  0  0  0  0  0
   21.5667   16.8368   22.6132 H   0  0  0  0  0  0  0  0  0  0  0  0
   22.1700   18.4802   22.6651 H   0  0  0  0  0  0  0  0  0  0  0  0
   20.3537   18.2075   21.4770 C   0  0  0  0  0  0  0  0  0  0  0  0
   20.9288   17.9875   20.5669 H   0  0  0  0  0  0  0  0  0  0  0  0
   19.4914   17.5266   21.4637 H   0  0  0  0  0  0  0  0  0  0  0  0
   19.8526   19.6690   21.4123 C   0  0  0  0  0  0  0  0  0  0  0  0
   20.6980   20.3600   21.5370 H   0  0  0  0  0  0  0  0  0  0  0  0
   19.1509   19.8605   22.2345 H   0  0  0  0  0  0  0  0  0  0  0  0
   19.1400   19.9682   20.0760 C   0  0  0  0  0  0  0  0  0  0  0  0
   18.7819   21.0056   20.0515 H   0  0  0  0  0  0  0  0  0  0  0  0
   18.2733   19.3094   19.9348 H   0  0  0  0  0  0  0  0  0  0  0  0
   19.8192   19.8269   19.2251 H   0  0  0  0  0  0  0  0  0  0  0  0
   18.5326   19.5990   25.9386 C   0  0  0  0  0  0  0  0  0  0  0  0
   18.1209   19.7821   26.9337 H   0  0  0  0  0  0  0  0  0  0  0  0
   18.1528   20.3470   25.2393 H   0  0  0  0  0  0  0  0  0  0  0  0
   18.2491   18.5996   25.6028 H   0  0  0  0  0  0  0  0  0  0  0  0
  1  2  1  0  0  0  0
  1  3  1  0  0  0  0
  1  4  1  0  0  0  0
  4  5  1  0  0  0  0
  4  6  1  0  0  0  0
  4  7  1  0  0  0  0
  7  8  1  0  0  0  0
  7  9  1  0  0  0  0
  7 10  1  0  0  0  0
 10 11  1  0  0  0  0
 10 12  1  0  0  0  0
 10 13  1  0  0  0  0
 13 14  1  0  0  0  0
 13 15  1  0  0  0  0
 13 16  1  0  0  0  0
 16 17  1  0  0  0  0
 16 18  1  0  0  0  0
 16 19  1  0  0  0  0
 19 20  1  0  0  0  0
 19 21  1  0  0  0  0
 19 22  1  0  0  0  0
  1 23  1  0  0  0  0
 23 24  1  0  0  0  0
 23 25  1  0  0  0  0
 23 26  1  0  0  0  0
M  END
> <VM2 Rank>
122

> <Conf_Id>
1614

> <Probability>
0.04

> <Sum Probability>
99.02

> <Delta G>
3.074

> <G>
78.541

> <E>
45.892

> <-TS>
32.648

> <U+W>
24.431

> <U>
74.229

> <W>
-49.798

> <W(PB)>
-52.055

> <W(SA)>
2.257

> <Valence>
4.377

> <Coulomb>
69.549

> <VdW>
0.303

> <VdW6>
-7.808

> <VdW12>
8.111

> <Bond>
0.233

> <Angle>
1.219

> <Pdih>
2.925

> <Idih>
0.000

> <Tether>
0.000

$$$$
VeraChem MOL file


 26 25  0  0  0  0  0  0  0  0999 V2000     
   19.5024   18.5157   25.2775 N   0  3  0  0  0  0  0  0  0  0  0  0
   19.9327   17.6153   25.5401 H   0  0  0  0  0  0  0  0  0  0  0  0
   19.0802   18.3598   24.3510 H   0  0  0  0  0  0  0  0  0  0  0  0
   20.5649   19.5950   25.1934 C   0  0  0  0  0  0  0  0  0  0  0  0
   21.0099   19.6793   26.1881 H   0  0  0  0  0  0  0  0  0  0  0  0
   20.0770   20.5443   24.9584 H   0  0  0  0  0  0  0  0  0  0  0  0
   21.6803   19.3116   24.1653 C   0  0  0  0  0  0  0  0  0  0  0  0
   22.5652   19.8892   24.4637 H   0  0  0  0  0  0  0  0  0  0  0  0
   21.9791   18.2561   24.2154 H   0  0  0  0  0  0  0  0  0  0  0  0
   21.3255   19.7044   22.7081 C   0  0  0  0  0  0  0  0  0  0  0  0
   22.2176   19.5491   22.0855 H   0  0  0  0  0  0  0  0  0  0  0  0
   21.1054   20.7801   22.6634 H   0  0  0  0  0  0  0  0  0  0  0  0
   20.1443   18.9115   22.0994 C   0  0  0  0  0  0  0  0  0  0  0  0
   20.3089   17.8344   22.2410 H   0  0  0  0  0  0  0  0  0  0  0  0
   19.2136   19.1738   22.6180 H   0  0  0  0  0  0  0  0  0  0  0  0
   19.9701   19.2089   20.5934 C   0  0  0  0  0  0  0  0  0  0  0  0
   20.8904   18.9456   20.0532 H   0  0  0  0  0  0  0  0  0  0  0  0
   19.8124   20.2863   20.4436 H   0  0  0  0  0  0  0  0  0  0  0  0
   18.7827   18.4287   19.9899 C   0  0  0  0  0  0  0  0  0  0  0  0
   18.9274   17.3456   20.0950 H   0  0  0  0  0  0  0  0  0  0  0  0
   18.6761   18.6516   18.9203 H   0  0  0  0  0  0  0  0  0  0  0  0
   17.8404   18.6976   20.4849 H   0  0  0  0  0  0  0  0  0  0  0  0
   18.4379   18.9140   26.2901 C   0  0  0  0  0  0  0  0  0  0  0  0
   17.9758   19.8522   25.9752 H   0  0  0  0  0  0  0  0  0  0  0  0
   17.6806   18.1286   26.3417 H   0  0  0  0  0  0  0  0  0  0  0  0
   18.9042   19.0417   27.2695 H   0  0  0  0  0  0  0  0  0  0  0  0
  1  2  1  0  0  0  0
  1  3  1  0  0  0  0
  1  4  1  0  0  0  0
  4  5  1  0  0  0  0
  4  6  1  0  0  0  0
  4  7  1  0  0  0  0
  7  8  1  0  0  0  0
  7  9  1  0  0  0  0
  7 10  1  0  0  0  0
 10 11  1  0  0  0  0
 10 12  1  0  0  0  0
 10 13  1  0  0  0  0
 13 14  1  0  0  0  0
 13 15  1  0  0  0  0
 13 16  1  0  0  0  0
 16 17  1  0  0  0  0
 16 18  1  0  0  0  0
 16 19  1  0  0  0  0
 19 20  1  0  0  0  0
 19 21  1  0  0  0  0
 19 22  1  0  0  0  0
  1 23  1  0  0  0  0
 23 24  1  0  0  0  0
 23 25  1  0  0  0  0
 23 26  1  0  0  0  0
M  END
> <VM2 Rank>
123

> <Conf_Id>
1443

> <Probability>
0.04

> <Sum Probability>
99.05

> <Delta G>
3.116

> <G>
78.583

> <E>
46.237

> <-TS>
32.346

> <U+W>
24.775

> <U>
73.983

> <W>
-49.207

> <W(PB)>
-51.488

> <W(SA)>
2.280

> <Valence>
3.347

> <Coulomb>
70.654

> <VdW>
-0.018

> <VdW6>
-6.980

> <VdW12>
6.962

> <Bond>
0.176

> <Angle>
0.935

> <Pdih>
2.235

> <Idih>
0.000

> <Tether>
0.000

$$$$
VeraChem MOL file


 26 25  0  0  0  0  0  0  0  0999 V2000     
   19.6184   19.8463   25.9144 N   0  3  0  0  0  0  0  0  0  0  0  0
   19.0419   20.6927   26.0456 H   0  0  0  0  0  0  0  0  0  0  0  0
   20.4493   19.9956   26.5073 H   0  0  0  0  0  0  0  0  0  0  0  0
   20.0277   19.7296   24.4558 C   0  0  0  0  0  0  0  0  0  0  0  0
   20.4297   20.6993   24.1515 H   0  0  0  0  0  0  0  0  0  0  0  0
   19.1248   19.5337   23.8734 H   0  0  0  0  0  0  0  0  0  0  0  0
   21.0796   18.6381   24.1730 C   0  0  0  0  0  0  0  0  0  0  0  0
   21.9237   18.7744   24.8618 H   0  0  0  0  0  0  0  0  0  0  0  0
   20.6564   17.6495   24.3932 H   0  0  0  0  0  0  0  0  0  0  0  0
   21.6210   18.6529   22.7210 C   0  0  0  0  0  0  0  0  0  0  0  0
   22.4161   17.8970   22.6579 H   0  0  0  0  0  0  0  0  0  0  0  0
   22.1083   19.6142   22.5073 H   0  0  0  0  0  0  0  0  0  0  0  0
   20.5648   18.3307   21.6313 C   0  0  0  0  0  0  0  0  0  0  0  0
   21.0779   17.8444   20.7900 H   0  0  0  0  0  0  0  0  0  0  0  0
   19.8432   17.5945   22.0115 H   0  0  0  0  0  0  0  0  0  0  0  0
   19.8257   19.5766   21.0847 C   0  0  0  0  0  0  0  0  0  0  0  0
   20.5569   20.2954   20.6893 H   0  0  0  0  0  0  0  0  0  0  0  0
   19.2826   20.0913   21.8857 H   0  0  0  0  0  0  0  0  0  0  0  0
   18.8288   19.2004   19.9677 C   0  0  0  0  0  0  0  0  0  0  0  0
   19.3427   18.7227   19.1234 H   0  0  0  0  0  0  0  0  0  0  0  0
   18.3170   20.0941   19.5877 H   0  0  0  0  0  0  0  0  0  0  0  0
   18.0635   18.5065   20.3390 H   0  0  0  0  0  0  0  0  0  0  0  0
   18.8422   18.6155   26.3690 C   0  0  0  0  0  0  0  0  0  0  0  0
   18.5358   18.7503   27.4087 H   0  0  0  0  0  0  0  0  0  0  0  0
   17.9595   18.4944   25.7373 H   0  0  0  0  0  0  0  0  0  0  0  0
   19.4812   17.7341   26.2862 H   0  0  0  0  0  0  0  0  0  0  0  0
  1  2  1  0  0  0  0
  1  3  1  0  0  0  0
  1  4  1  0  0  0  0
  4  5  1  0  0  0  0
  4  6  1  0  0  0  0
  4  7  1  0  0  0  0
  7  8  1  0  0  0  0
  7  9  1  0  0  0  0
  7 10  1  0  0  0  0
 10 11  1  0  0  0  0
 10 12  1  0  0  0  0
 10 13  1  0  0  0  0
 13 14  1  0  0  0  0
 13 15  1  0  0  0  0
 13 16  1  0  0  0  0
 16 17  1  0  0  0  0
 16 18  1  0  0  0  0
 16 19  1  0  0  0  0
 19 20  1  0  0  0  0
 19 21  1  0  0  0  0
 19 22  1  0  0  0  0
  1 23  1  0  0  0  0
 23 24  1  0  0  0  0
 23 25  1  0  0  0  0
 23 26  1  0  0  0  0
M  END
> <VM2 Rank>
124

> <Conf_Id>
835

> <Probability>
0.04

> <Sum Probability>
99.09

> <Delta G>
3.120

> <G>
78.587

> <E>
46.171

> <-TS>
32.416

> <U+W>
24.709

> <U>
74.305

> <W>
-49.597

> <W(PB)>
-51.865

> <W(SA)>
2.269

> <Valence>
4.513

> <Coulomb>
69.361

> <VdW>
0.431

> <VdW6>
-7.509

> <VdW12>
7.941

> <Bond>
0.240

> <Angle>
1.206

> <Pdih>
3.067

> <Idih>
0.000

> <Tether>
0.000

$$$$
VeraChem MOL file


 26 25  0  0  0  0  0  0  0  0999 V2000     
   20.1332   19.8991   25.9326 N   0  3  0  0  0  0  0  0  0  0  0  0
   19.2498   19.8725   26.4648 H   0  0  0  0  0  0  0  0  0  0  0  0
   20.5154   20.8438   26.0978 H   0  0  0  0  0  0  0  0  0  0  0  0
   19.8592   19.7123   24.4499 C   0  0  0  0  0  0  0  0  0  0  0  0
   20.8215   19.7077   23.9335 H   0  0  0  0  0  0  0  0  0  0  0  0
   19.2912   20.5825   24.1112 H   0  0  0  0  0  0  0  0  0  0  0  0
   19.0728   18.4323   24.1019 C   0  0  0  0  0  0  0  0  0  0  0  0
   19.6712   17.5485   24.3583 H   0  0  0  0  0  0  0  0  0  0  0  0
   18.1725   18.3897   24.7290 H   0  0  0  0  0  0  0  0  0  0  0  0
   18.6427   18.3474   22.6156 C   0  0  0  0  0  0  0  0  0  0  0  0
   17.9868   19.1915   22.3613 H   0  0  0  0  0  0  0  0  0  0  0  0
   18.0237   17.4465   22.5023 H   0  0  0  0  0  0  0  0  0  0  0  0
   19.8159   18.2539   21.6048 C   0  0  0  0  0  0  0  0  0  0  0  0
   20.6434   17.6766   22.0398 H   0  0  0  0  0  0  0  0  0  0  0  0
   19.4722   17.6798   20.7331 H   0  0  0  0  0  0  0  0  0  0  0  0
   20.3236   19.6276   21.1024 C   0  0  0  0  0  0  0  0  0  0  0  0
   20.6936   20.2359   21.9357 H   0  0  0  0  0  0  0  0  0  0  0  0
   19.4913   20.1862   20.6516 H   0  0  0  0  0  0  0  0  0  0  0  0
   21.4516   19.4695   20.0606 C   0  0  0  0  0  0  0  0  0  0  0  0
   21.1057   18.9036   19.1858 H   0  0  0  0  0  0  0  0  0  0  0  0
   22.3138   18.9424   20.4895 H   0  0  0  0  0  0  0  0  0  0  0  0
   21.7970   20.4511   19.7111 H   0  0  0  0  0  0  0  0  0  0  0  0
   21.1090   18.8480   26.4492 C   0  0  0  0  0  0  0  0  0  0  0  0
   21.3082   19.0347   27.5069 H   0  0  0  0  0  0  0  0  0  0  0  0
   20.6694   17.8559   26.3282 H   0  0  0  0  0  0  0  0  0  0  0  0
   22.0399   18.9129   25.8817 H   0  0  0  0  0  0  0  0  0  0  0  0
  1  2  1  0  0  0  0
  1  3  1  0  0  0  0
  1  4  1  0  0  0  0
  4  5  1  0  0  0  0
  4  6  1  0  0  0  0
  4  7  1  0  0  0  0
  7  8  1  0  0  0  0
  7  9  1  0  0  0  0
  7 10  1  0  0  0  0
 10 11  1  0  0  0  0
 10 12  1  0  0  0  0
 10 13  1  0  0  0  0
 13 14  1  0  0  0  0
 13 15  1  0  0  0  0
 13 16  1  0  0  0  0
 16 17  1  0  0  0  0
 16 18  1  0  0  0  0
 16 19  1  0  0  0  0
 19 20  1  0  0  0  0
 19 21  1  0  0  0  0
 19 22  1  0  0  0  0
  1 23  1  0  0  0  0
 23 24  1  0  0  0  0
 23 25  1  0  0  0  0
 23 26  1  0  0  0  0
M  END
> <VM2 Rank>
125

> <Conf_Id>
1602

> <Probability>
0.04

> <Sum Probability>
99.12

> <Delta G>
3.133

> <G>
78.599

> <E>
46.183

> <-TS>
32.416

> <U+W>
24.721

> <U>
74.305

> <W>
-49.584

> <W(PB)>
-51.862

> <W(SA)>
2.278

> <Valence>
4.513

> <Coulomb>
69.361

> <VdW>
0.431

> <VdW6>
-7.509

> <VdW12>
7.941

> <Bond>
0.240

> <Angle>
1.206

> <Pdih>
3.067

> <Idih>
0.000

> <Tether>
0.000

$$$$
VeraChem MOL file


 26 25  0  0  0  0  0  0  0  0999 V2000     
   19.7312   19.6661   25.9909 N   0  3  0  0  0  0  0  0  0  0  0  0
   19.4469   18.9126   26.6358 H   0  0  0  0  0  0  0  0  0  0  0  0
   19.2480   20.5100   26.3376 H   0  0  0  0  0  0  0  0  0  0  0  0
   19.2632   19.3549   24.5796 C   0  0  0  0  0  0  0  0  0  0  0  0
   19.6249   20.1514   23.9277 H   0  0  0  0  0  0  0  0  0  0  0  0
   18.1709   19.3942   24.5841 H   0  0  0  0  0  0  0  0  0  0  0  0
   19.7100   17.9750   24.0484 C   0  0  0  0  0  0  0  0  0  0  0  0
   20.8043   17.8909   24.0557 H   0  0  0  0  0  0  0  0  0  0  0  0
   19.3360   17.2079   24.7392 H   0  0  0  0  0  0  0  0  0  0  0  0
   19.1680   17.6689   22.6293 C   0  0  0  0  0  0  0  0  0  0  0  0
   18.1478   18.0631   22.5228 H   0  0  0  0  0  0  0  0  0  0  0  0
   19.0773   16.5787   22.5254 H   0  0  0  0  0  0  0  0  0  0  0  0
   20.0600   18.1769   21.4665 C   0  0  0  0  0  0  0  0  0  0  0  0
   21.0423   17.6874   21.5187 H   0  0  0  0  0  0  0  0  0  0  0  0
   19.6073   17.8500   20.5202 H   0  0  0  0  0  0  0  0  0  0  0  0
   20.2539   19.7105   21.4260 C   0  0  0  0  0  0  0  0  0  0  0  0
   20.8424   20.0361   22.2937 H   0  0  0  0  0  0  0  0  0  0  0  0
   19.2782   20.2125   21.4863 H   0  0  0  0  0  0  0  0  0  0  0  0
   20.9815   20.1589   20.1404 C   0  0  0  0  0  0  0  0  0  0  0  0
   21.1200   21.2478   20.1332 H   0  0  0  0  0  0  0  0  0  0  0  0
   20.4067   19.8873   19.2454 H   0  0  0  0  0  0  0  0  0  0  0  0
   21.9725   19.6927   20.0648 H   0  0  0  0  0  0  0  0  0  0  0  0
   21.2402   19.8788   26.0359 C   0  0  0  0  0  0  0  0  0  0  0  0
   21.7446   18.9606   25.7286 H   0  0  0  0  0  0  0  0  0  0  0  0
   21.5080   20.6934   25.3595 H   0  0  0  0  0  0  0  0  0  0  0  0
   21.5343   20.1352   27.0561 H   0  0  0  0  0  0  0  0  0  0  0  0
  1  2  1  0  0  0  0
  1  3  1  0  0  0  0
  1  4  1  0  0  0  0
  4  5  1  0  0  0  0
  4  6  1  0  0  0  0
  4  7  1  0  0  0  0
  7  8  1  0  0  0  0
  7  9  1  0  0  0  0
  7 10  1  0  0  0  0
 10 11  1  0  0  0  0
 10 12  1  0  0  0  0
 10 13  1  0  0  0  0
 13 14  1  0  0  0  0
 13 15  1  0  0  0  0
 13 16  1  0  0  0  0
 16 17  1  0  0  0  0
 16 18  1  0  0  0  0
 16 19  1  0  0  0  0
 19 20  1  0  0  0  0
 19 21  1  0  0  0  0
 19 22  1  0  0  0  0
  1 23  1  0  0  0  0
 23 24  1  0  0  0  0
 23 25  1  0  0  0  0
 23 26  1  0  0  0  0
M  END
> <VM2 Rank>
126

> <Conf_Id>
1072

> <Probability>
0.03

> <Sum Probability>
99.16

> <Delta G>
3.140

> <G>
78.607

> <E>
45.959

> <-TS>
32.648

> <U+W>
24.497

> <U>
74.229

> <W>
-49.731

> <W(PB)>
-51.984

> <W(SA)>
2.253

> <Valence>
4.376

> <Coulomb>
69.549

> <VdW>
0.304

> <VdW6>
-7.807

> <VdW12>
8.111

> <Bond>
0.233

> <Angle>
1.219

> <Pdih>
2.924

> <Idih>
0.000

> <Tether>
0.000

$$$$
VeraChem MOL file


 26 25  0  0  0  0  0  0  0  0999 V2000     
   20.5602   18.6236   25.3150 N   0  3  0  0  0  0  0  0  0  0  0  0
   21.0690   18.5627   24.4215 H   0  0  0  0  0  0  0  0  0  0  0  0
   20.3031   17.6531   25.5533 H   0  0  0  0  0  0  0  0  0  0  0  0
   19.3105   19.4671   25.1490 C   0  0  0  0  0  0  0  0  0  0  0  0
   19.6122   20.4969   24.9419 H   0  0  0  0  0  0  0  0  0  0  0  0
   18.7891   19.4528   26.1094 H   0  0  0  0  0  0  0  0  0  0  0  0
   18.3500   18.9718   24.0473 C   0  0  0  0  0  0  0  0  0  0  0  0
   18.2674   17.8774   24.0839 H   0  0  0  0  0  0  0  0  0  0  0  0
   17.3480   19.3569   24.2789 H   0  0  0  0  0  0  0  0  0  0  0  0
   18.7194   19.4385   22.6157 C   0  0  0  0  0  0  0  0  0  0  0  0
   18.7205   20.5367   22.5789 H   0  0  0  0  0  0  0  0  0  0  0  0
   17.9228   19.1108   21.9334 H   0  0  0  0  0  0  0  0  0  0  0  0
   20.0760   18.9046   22.0970 C   0  0  0  0  0  0  0  0  0  0  0  0
   20.8959   19.3455   22.6777 H   0  0  0  0  0  0  0  0  0  0  0  0
   20.1225   17.8154   22.2344 H   0  0  0  0  0  0  0  0  0  0  0  0
   20.2916   19.2418   20.6048 C   0  0  0  0  0  0  0  0  0  0  0  0
   20.2389   20.3299   20.4587 H   0  0  0  0  0  0  0  0  0  0  0  0
   19.4835   18.8020   20.0034 H   0  0  0  0  0  0  0  0  0  0  0  0
   21.6513   18.7214   20.0916 C   0  0  0  0  0  0  0  0  0  0  0  0
   21.7854   18.9689   19.0305 H   0  0  0  0  0  0  0  0  0  0  0  0
   21.7211   17.6306   20.1940 H   0  0  0  0  0  0  0  0  0  0  0  0
   22.4829   19.1712   20.6495 H   0  0  0  0  0  0  0  0  0  0  0  0
   21.4490   19.2213   26.3967 C   0  0  0  0  0  0  0  0  0  0  0  0
   21.7333   20.2356   26.1082 H   0  0  0  0  0  0  0  0  0  0  0  0
   20.8992   19.2453   27.3401 H   0  0  0  0  0  0  0  0  0  0  0  0
   22.3437   18.6044   26.5068 H   0  0  0  0  0  0  0  0  0  0  0  0
  1  2  1  0  0  0  0
  1  3  1  0  0  0  0
  1  4  1  0  0  0  0
  4  5  1  0  0  0  0
  4  6  1  0  0  0  0
  4  7  1  0  0  0  0
  7  8  1  0  0  0  0
  7  9  1  0  0  0  0
  7 10  1  0  0  0  0
 10 11  1  0  0  0  0
 10 12  1  0  0  0  0
 10 13  1  0  0  0  0
 13 14  1  0  0  0  0
 13 15  1  0  0  0  0
 13 16  1  0  0  0  0
 16 17  1  0  0  0  0
 16 18  1  0  0  0  0
 16 19  1  0  0  0  0
 19 20  1  0  0  0  0
 19 21  1  0  0  0  0
 19 22  1  0  0  0  0
  1 23  1  0  0  0  0
 23 24  1  0  0  0  0
 23 25  1  0  0  0  0
 23 26  1  0  0  0  0
M  END
> <VM2 Rank>
127

> <Conf_Id>
229

> <Probability>
0.03

> <Sum Probability>
99.19

> <Delta G>
3.148

> <G>
78.614

> <E>
46.269

> <-TS>
32.346

> <U+W>
24.807

> <U>
73.983

> <W>
-49.176

> <W(PB)>
-51.452

> <W(SA)>
2.276

> <Valence>
3.347

> <Coulomb>
70.654

> <VdW>
-0.018

> <VdW6>
-6.981

> <VdW12>
6.963

> <Bond>
0.176

> <Angle>
0.935

> <Pdih>
2.235

> <Idih>
0.000

> <Tether>
0.000

$$$$
VeraChem MOL file


 26 25  0  0  0  0  0  0  0  0999 V2000     
   20.3476   19.3339   25.7620 N   0  3  0  0  0  0  0  0  0  0  0  0
   21.1625   18.7109   25.8667 H   0  0  0  0  0  0  0  0  0  0  0  0
   20.1007   19.6115   26.7251 H   0  0  0  0  0  0  0  0  0  0  0  0
   19.1810   18.5776   25.1449 C   0  0  0  0  0  0  0  0  0  0  0  0
   18.5000   19.3024   24.6928 H   0  0  0  0  0  0  0  0  0  0  0  0
   18.6507   18.0967   25.9708 H   0  0  0  0  0  0  0  0  0  0  0  0
   19.5641   17.4798   24.1250 C   0  0  0  0  0  0  0  0  0  0  0  0
   20.2396   16.7625   24.6095 H   0  0  0  0  0  0  0  0  0  0  0  0
   18.6577   16.9148   23.8702 H   0  0  0  0  0  0  0  0  0  0  0  0
   20.2166   17.9917   22.8173 C   0  0  0  0  0  0  0  0  0  0  0  0
   20.4542   17.1263   22.1837 H   0  0  0  0  0  0  0  0  0  0  0  0
   21.1773   18.4658   23.0502 H   0  0  0  0  0  0  0  0  0  0  0  0
   19.3045   18.9612   22.0231 C   0  0  0  0  0  0  0  0  0  0  0  0
   18.3414   18.4681   21.8321 H   0  0  0  0  0  0  0  0  0  0  0  0
   19.0792   19.8524   22.6229 H   0  0  0  0  0  0  0  0  0  0  0  0
   19.9098   19.4020   20.6688 C   0  0  0  0  0  0  0  0  0  0  0  0
   19.1554   19.9800   20.1168 H   0  0  0  0  0  0  0  0  0  0  0  0
   20.1301   18.5184   20.0536 H   0  0  0  0  0  0  0  0  0  0  0  0
   21.1843   20.2639   20.8191 C   0  0  0  0  0  0  0  0  0  0  0  0
   20.9958   21.1415   21.4509 H   0  0  0  0  0  0  0  0  0  0  0  0
   21.5219   20.6237   19.8386 H   0  0  0  0  0  0  0  0  0  0  0  0
   22.0093   19.6919   21.2612 H   0  0  0  0  0  0  0  0  0  0  0  0
   20.7001   20.5798   24.9568 C   0  0  0  0  0  0  0  0  0  0  0  0
   21.5214   21.1031   25.4515 H   0  0  0  0  0  0  0  0  0  0  0  0
   21.0027   20.2936   23.9489 H   0  0  0  0  0  0  0  0  0  0  0  0
   19.8258   21.2324   24.9077 H   0  0  0  0  0  0  0  0  0  0  0  0
  1  2  1  0  0  0  0
  1  3  1  0  0  0  0
  1  4  1  0  0  0  0
  4  5  1  0  0  0  0
  4  6  1  0  0  0  0
  4  7  1  0  0  0  0
  7  8  1  0  0  0  0
  7  9  1  0  0  0  0
  7 10  1  0  0  0  0
 10 11  1  0  0  0  0
 10 12  1  0  0  0  0
 10 13  1  0  0  0  0
 13 14  1  0  0  0  0
 13 15  1  0  0  0  0
 13 16  1  0  0  0  0
 16 17  1  0  0  0  0
 16 18  1  0  0  0  0
 16 19  1  0  0  0  0
 19 20  1  0  0  0  0
 19 21  1  0  0  0  0
 19 22  1  0  0  0  0
  1 23  1  0  0  0  0
 23 24  1  0  0  0  0
 23 25  1  0  0  0  0
 23 26  1  0  0  0  0
M  END
> <VM2 Rank>
128

> <Conf_Id>
563

> <Probability>
0.03

> <Sum Probability>
99.23

> <Delta G>
3.152

> <G>
78.618

> <E>
45.491

> <-TS>
33.127

> <U+W>
24.030

> <U>
74.177

> <W>
-50.147

> <W(PB)>
-52.281

> <W(SA)>
2.134

> <Valence>
4.524

> <Coulomb>
69.760

> <VdW>
-0.108

> <VdW6>
-9.141

> <VdW12>
9.034

> <Bond>
0.254

> <Angle>
1.400

> <Pdih>
2.870

> <Idih>
0.000

> <Tether>
0.000

$$$$
VeraChem MOL file


 26 25  0  0  0  0  0  0  0  0999 V2000     
   20.4768   18.6902   25.9375 N   0  3  0  0  0  0  0  0  0  0  0  0
   21.0714   17.8706   25.7408 H   0  0  0  0  0  0  0  0  0  0  0  0
   20.3073   18.6530   26.9551 H   0  0  0  0  0  0  0  0  0  0  0  0
   19.1468   18.5618   25.2069 C   0  0  0  0  0  0  0  0  0  0  0  0
   18.5427   19.4455   25.4267 H   0  0  0  0  0  0  0  0  0  0  0  0
   18.6419   17.6976   25.6463 H   0  0  0  0  0  0  0  0  0  0  0  0
   19.2335   18.3413   23.6801 C   0  0  0  0  0  0  0  0  0  0  0  0
   20.1263   17.7486   23.4445 H   0  0  0  0  0  0  0  0  0  0  0  0
   18.3696   17.7354   23.3768 H   0  0  0  0  0  0  0  0  0  0  0  0
   19.2121   19.6617   22.8690 C   0  0  0  0  0  0  0  0  0  0  0  0
   20.0882   20.2758   23.1045 H   0  0  0  0  0  0  0  0  0  0  0  0
   18.3401   20.2540   23.1787 H   0  0  0  0  0  0  0  0  0  0  0  0
   19.1331   19.4425   21.3359 C   0  0  0  0  0  0  0  0  0  0  0  0
   18.1895   18.9341   21.0946 H   0  0  0  0  0  0  0  0  0  0  0  0
   19.0803   20.4227   20.8424 H   0  0  0  0  0  0  0  0  0  0  0  0
   20.3066   18.6359   20.7227 C   0  0  0  0  0  0  0  0  0  0  0  0
   20.1456   18.5543   19.6387 H   0  0  0  0  0  0  0  0  0  0  0  0
   20.3000   17.6063   21.1046 H   0  0  0  0  0  0  0  0  0  0  0  0
   21.6911   19.2758   20.9735 C   0  0  0  0  0  0  0  0  0  0  0  0
   21.9508   19.2680   22.0393 H   0  0  0  0  0  0  0  0  0  0  0  0
   21.7157   20.3148   20.6202 H   0  0  0  0  0  0  0  0  0  0  0  0
   22.4734   18.7210   20.4394 H   0  0  0  0  0  0  0  0  0  0  0  0
   21.2079   19.9808   25.5914 C   0  0  0  0  0  0  0  0  0  0  0  0
   22.0954   20.0672   26.2223 H   0  0  0  0  0  0  0  0  0  0  0  0
   21.5093   19.9536   24.5431 H   0  0  0  0  0  0  0  0  0  0  0  0
   20.5442   20.8297   25.7695 H   0  0  0  0  0  0  0  0  0  0  0  0
  1  2  1  0  0  0  0
  1  3  1  0  0  0  0
  1  4  1  0  0  0  0
  4  5  1  0  0  0  0
  4  6  1  0  0  0  0
  4  7  1  0  0  0  0
  7  8  1  0  0  0  0
  7  9  1  0  0  0  0
  7 10  1  0  0  0  0
 10 11  1  0  0  0  0
 10 12  1  0  0  0  0
 10 13  1  0  0  0  0
 13 14  1  0  0  0  0
 13 15  1  0  0  0  0
 13 16  1  0  0  0  0
 16 17  1  0  0  0  0
 16 18  1  0  0  0  0
 16 19  1  0  0  0  0
 19 20  1  0  0  0  0
 19 21  1  0  0  0  0
 19 22  1  0  0  0  0
  1 23  1  0  0  0  0
 23 24  1  0  0  0  0
 23 25  1  0  0  0  0
 23 26  1  0  0  0  0
M  END
> <VM2 Rank>
129

> <Conf_Id>
1627

> <Probability>
0.03

> <Sum Probability>
99.25

> <Delta G>
3.254

> <G>
78.721

> <E>
45.989

> <-TS>
32.732

> <U+W>
24.527

> <U>
74.537

> <W>
-50.010

> <W(PB)>
-52.200

> <W(SA)>
2.191

> <Valence>
4.772

> <Coulomb>
69.421

> <VdW>
0.344

> <VdW6>
-8.669

> <VdW12>
9.013

> <Bond>
0.278

> <Angle>
1.581

> <Pdih>
2.912

> <Idih>
0.000

> <Tether>
0.000

$$$$
VeraChem MOL file


 26 25  0  0  0  0  0  0  0  0999 V2000     
   19.6821   19.1881   25.9375 N   0  3  0  0  0  0  0  0  0  0  0  0
   19.9413   19.2640   26.9337 H   0  0  0  0  0  0  0  0  0  0  0  0
   18.7763   18.6952   25.9360 H   0  0  0  0  0  0  0  0  0  0  0  0
   20.7321   18.3646   25.2080 C   0  0  0  0  0  0  0  0  0  0  0  0
   21.1603   17.6821   25.9466 H   0  0  0  0  0  0  0  0  0  0  0  0
   21.5289   19.0351   24.8781 H   0  0  0  0  0  0  0  0  0  0  0  0
   20.2087   17.5151   24.0261 C   0  0  0  0  0  0  0  0  0  0  0  0
   21.0256   16.8693   23.6779 H   0  0  0  0  0  0  0  0  0  0  0  0
   19.4265   16.8383   24.3942 H   0  0  0  0  0  0  0  0  0  0  0  0
   19.6602   18.3178   22.8203 C   0  0  0  0  0  0  0  0  0  0  0  0
   18.7822   18.8999   23.1274 H   0  0  0  0  0  0  0  0  0  0  0  0
   19.2987   17.6006   22.0720 H   0  0  0  0  0  0  0  0  0  0  0  0
   20.7190   19.2460   22.1720 C   0  0  0  0  0  0  0  0  0  0  0  0
   21.1299   19.9252   22.9299 H   0  0  0  0  0  0  0  0  0  0  0  0
   21.5636   18.6448   21.8083 H   0  0  0  0  0  0  0  0  0  0  0  0
   20.1576   20.1032   21.0117 C   0  0  0  0  0  0  0  0  0  0  0  0
   20.9377   20.8035   20.6820 H   0  0  0  0  0  0  0  0  0  0  0  0
   19.3246   20.7210   21.3753 H   0  0  0  0  0  0  0  0  0  0  0  0
   19.6937   19.2681   19.7964 C   0  0  0  0  0  0  0  0  0  0  0  0
   18.8291   18.6401   20.0442 H   0  0  0  0  0  0  0  0  0  0  0  0
   20.4997   18.6172   19.4335 H   0  0  0  0  0  0  0  0  0  0  0  0
   19.3962   19.9260   18.9696 H   0  0  0  0  0  0  0  0  0  0  0  0
   19.5546   20.5871   25.3449 C   0  0  0  0  0  0  0  0  0  0  0  0
   18.8105   21.1487   25.9141 H   0  0  0  0  0  0  0  0  0  0  0  0
   20.5216   21.0909   25.4076 H   0  0  0  0  0  0  0  0  0  0  0  0
   19.2425   20.5183   24.3022 H   0  0  0  0  0  0  0  0  0  0  0  0
  1  2  1  0  0  0  0
  1  3  1  0  0  0  0
  1  4  1  0  0  0  0
  4  5  1  0  0  0  0
  4  6  1  0  0  0  0
  4  7  1  0  0  0  0
  7  8  1  0  0  0  0
  7  9  1  0  0  0  0
  7 10  1  0  0  0  0
 10 11  1  0  0  0  0
 10 12  1  0  0  0  0
 10 13  1  0  0  0  0
 13 14  1  0  0  0  0
 13 15  1  0  0  0  0
 13 16  1  0  0  0  0
 16 17  1  0  0  0  0
 16 18  1  0  0  0  0
 16 19  1  0  0  0  0
 19 20  1  0  0  0  0
 19 21  1  0  0  0  0
 19 22  1  0  0  0  0
  1 23  1  0  0  0  0
 23 24  1  0  0  0  0
 23 25  1  0  0  0  0
 23 26  1  0  0  0  0
M  END
> <VM2 Rank>
130

> <Conf_Id>
218

> <Probability>
0.02

> <Sum Probability>
99.28

> <Delta G>
3.335

> <G>
78.802

> <E>
45.755

> <-TS>
33.046

> <U+W>
24.294

> <U>
74.192

> <W>
-49.897

> <W(PB)>
-52.091

> <W(SA)>
2.194

> <Valence>
4.602

> <Coulomb>
69.486

> <VdW>
0.104

> <VdW6>
-8.802

> <VdW12>
8.907

> <Bond>
0.257

> <Angle>
1.462

> <Pdih>
2.883

> <Idih>
0.000

> <Tether>
0.000

$$$$
VeraChem MOL file


 26 25  0  0  0  0  0  0  0  0999 V2000     
   20.2026   19.2415   25.9560 N   0  3  0  0  0  0  0  0  0  0  0  0
   21.1874   18.9428   26.0216 H   0  0  0  0  0  0  0  0  0  0  0  0
   19.8642   19.2560   26.9310 H   0  0  0  0  0  0  0  0  0  0  0  0
   19.3955   18.2272   25.1606 C   0  0  0  0  0  0  0  0  0  0  0  0
   18.5042   18.7244   24.7709 H   0  0  0  0  0  0  0  0  0  0  0  0
   19.0641   17.4667   25.8722 H   0  0  0  0  0  0  0  0  0  0  0  0
   20.1619   17.5104   24.0244 C   0  0  0  0  0  0  0  0  0  0  0  0
   21.0376   17.0039   24.4512 H   0  0  0  0  0  0  0  0  0  0  0  0
   19.5197   16.7146   23.6245 H   0  0  0  0  0  0  0  0  0  0  0  0
   20.6191   18.4164   22.8543 C   0  0  0  0  0  0  0  0  0  0  0  0
   21.1701   17.7929   22.1383 H   0  0  0  0  0  0  0  0  0  0  0  0
   21.3370   19.1624   23.2179 H   0  0  0  0  0  0  0  0  0  0  0  0
   19.4420   19.1150   22.1268 C   0  0  0  0  0  0  0  0  0  0  0  0
   18.7645   18.3574   21.7094 H   0  0  0  0  0  0  0  0  0  0  0  0
   18.8497   19.6912   22.8491 H   0  0  0  0  0  0  0  0  0  0  0  0
   19.8974   20.0765   21.0024 C   0  0  0  0  0  0  0  0  0  0  0  0
   20.5602   20.8479   21.4188 H   0  0  0  0  0  0  0  0  0  0  0  0
   19.0163   20.6063   20.6140 H   0  0  0  0  0  0  0  0  0  0  0  0
   20.6048   19.3616   19.8286 C   0  0  0  0  0  0  0  0  0  0  0  0
   19.9751   18.5632   19.4149 H   0  0  0  0  0  0  0  0  0  0  0  0
   21.5594   18.9203   20.1407 H   0  0  0  0  0  0  0  0  0  0  0  0
   20.8197   20.0720   19.0198 H   0  0  0  0  0  0  0  0  0  0  0  0
   20.0846   20.6415   25.3639 C   0  0  0  0  0  0  0  0  0  0  0  0
   19.0336   20.9380   25.3549 H   0  0  0  0  0  0  0  0  0  0  0  0
   20.6575   21.3383   25.9798 H   0  0  0  0  0  0  0  0  0  0  0  0
   20.4766   20.6450   24.3461 H   0  0  0  0  0  0  0  0  0  0  0  0
  1  2  1  0  0  0  0
  1  3  1  0  0  0  0
  1  4  1  0  0  0  0
  4  5  1  0  0  0  0
  4  6  1  0  0  0  0
  4  7  1  0  0  0  0
  7  8  1  0  0  0  0
  7  9  1  0  0  0  0
  7 10  1  0  0  0  0
 10 11  1  0  0  0  0
 10 12  1  0  0  0  0
 10 13  1  0  0  0  0
 13 14  1  0  0  0  0
 13 15  1  0  0  0  0
 13 16  1  0  0  0  0
 16 17  1  0  0  0  0
 16 18  1  0  0  0  0
 16 19  1  0  0  0  0
 19 20  1  0  0  0  0
 19 21  1  0  0  0  0
 19 22  1  0  0  0  0
  1 23  1  0  0  0  0
 23 24  1  0  0  0  0
 23 25  1  0  0  0  0
 23 26  1  0  0  0  0
M  END
> <VM2 Rank>
131

> <Conf_Id>
503

> <Probability>
0.02

> <Sum Probability>
99.30

> <Delta G>
3.343

> <G>
78.810

> <E>
45.764

> <-TS>
33.046

> <U+W>
24.302

> <U>
74.192

> <W>
-49.890

> <W(PB)>
-52.098

> <W(SA)>
2.209

> <Valence>
4.602

> <Coulomb>
69.486

> <VdW>
0.104

> <VdW6>
-8.802

> <VdW12>
8.907

> <Bond>
0.257

> <Angle>
1.462

> <Pdih>
2.883

> <Idih>
0.000

> <Tether>
0.000

$$$$
VeraChem MOL file


 26 25  0  0  0  0  0  0  0  0999 V2000     
   19.0785   18.5581   25.6995 N   0  3  0  0  0  0  0  0  0  0  0  0
   19.2494   17.5564   25.5215 H   0  0  0  0  0  0  0  0  0  0  0  0
   18.0584   18.6339   25.8391 H   0  0  0  0  0  0  0  0  0  0  0  0
   19.4896   19.3843   24.4921 C   0  0  0  0  0  0  0  0  0  0  0  0
   19.3332   20.4377   24.7376 H   0  0  0  0  0  0  0  0  0  0  0  0
   18.8086   19.1255   23.6799 H   0  0  0  0  0  0  0  0  0  0  0  0
   20.9486   19.1664   24.0340 C   0  0  0  0  0  0  0  0  0  0  0  0
   21.6178   19.4892   24.8419 H   0  0  0  0  0  0  0  0  0  0  0  0
   21.1440   18.0972   23.8786 H   0  0  0  0  0  0  0  0  0  0  0  0
   21.3074   19.9645   22.7550 C   0  0  0  0  0  0  0  0  0  0  0  0
   22.3849   20.1791   22.7772 H   0  0  0  0  0  0  0  0  0  0  0  0
   20.8096   20.9441   22.7704 H   0  0  0  0  0  0  0  0  0  0  0  0
   21.0046   19.2328   21.4213 C   0  0  0  0  0  0  0  0  0  0  0  0
   21.3632   19.8638   20.5963 H   0  0  0  0  0  0  0  0  0  0  0  0
   21.5916   18.3053   21.3717 H   0  0  0  0  0  0  0  0  0  0  0  0
   19.5109   18.9069   21.1896 C   0  0  0  0  0  0  0  0  0  0  0  0
   18.9031   19.8092   21.3449 H   0  0  0  0  0  0  0  0  0  0  0  0
   19.1742   18.1576   21.9177 H   0  0  0  0  0  0  0  0  0  0  0  0
   19.2612   18.3604   19.7677 C   0  0  0  0  0  0  0  0  0  0  0  0
   19.5484   19.0959   19.0050 H   0  0  0  0  0  0  0  0  0  0  0  0
   18.1987   18.1248   19.6241 H   0  0  0  0  0  0  0  0  0  0  0  0
   19.8365   17.4422   19.5911 H   0  0  0  0  0  0  0  0  0  0  0  0
   19.8071   19.0166   26.9577 C   0  0  0  0  0  0  0  0  0  0  0  0
   19.4578   18.4262   27.8077 H   0  0  0  0  0  0  0  0  0  0  0  0
   20.8813   18.8714   26.8272 H   0  0  0  0  0  0  0  0  0  0  0  0
   19.5939   20.0737   27.1307 H   0  0  0  0  0  0  0  0  0  0  0  0
  1  2  1  0  0  0  0
  1  3  1  0  0  0  0
  1  4  1  0  0  0  0
  4  5  1  0  0  0  0
  4  6  1  0  0  0  0
  4  7  1  0  0  0  0
  7  8  1  0  0  0  0
  7  9  1  0  0  0  0
  7 10  1  0  0  0  0
 10 11  1  0  0  0  0
 10 12  1  0  0  0  0
 10 13  1  0  0  0  0
 13 14  1  0  0  0  0
 13 15  1  0  0  0  0
 13 16  1  0  0  0  0
 16 17  1  0  0  0  0
 16 18  1  0  0  0  0
 16 19  1  0  0  0  0
 19 20  1  0  0  0  0
 19 21  1  0  0  0  0
 19 22  1  0  0  0  0
  1 23  1  0  0  0  0
 23 24  1  0  0  0  0
 23 25  1  0  0  0  0
 23 26  1  0  0  0  0
M  END
> <VM2 Rank>
132

> <Conf_Id>
1372

> <Probability>
0.02

> <Sum Probability>
99.33

> <Delta G>
3.361

> <G>
78.827

> <E>
46.143

> <-TS>
32.685

> <U+W>
24.681

> <U>
74.467

> <W>
-49.787

> <W(PB)>
-52.033

> <W(SA)>
2.246

> <Valence>
4.429

> <Coulomb>
69.610

> <VdW>
0.428

> <VdW6>
-7.655

> <VdW12>
8.082

> <Bond>
0.236

> <Angle>
1.210

> <Pdih>
2.984

> <Idih>
0.000

> <Tether>
0.000

$$$$
VeraChem MOL file


 26 25  0  0  0  0  0  0  0  0999 V2000     
   19.7002   18.4407   26.0188 N   0  3  0  0  0  0  0  0  0  0  0  0
   20.5251   17.8442   26.1879 H   0  0  0  0  0  0  0  0  0  0  0  0
   18.9591   17.7995   25.6958 H   0  0  0  0  0  0  0  0  0  0  0  0
   20.0080   19.4671   24.9471 C   0  0  0  0  0  0  0  0  0  0  0  0
   20.8004   20.1185   25.3245 H   0  0  0  0  0  0  0  0  0  0  0  0
   19.1101   20.0708   24.7933 H   0  0  0  0  0  0  0  0  0  0  0  0
   20.4455   18.8402   23.6109 C   0  0  0  0  0  0  0  0  0  0  0  0
   21.3377   18.2217   23.7757 H   0  0  0  0  0  0  0  0  0  0  0  0
   19.6566   18.1695   23.2526 H   0  0  0  0  0  0  0  0  0  0  0  0
   20.7585   19.9275   22.5548 C   0  0  0  0  0  0  0  0  0  0  0  0
   21.5680   20.5595   22.9458 H   0  0  0  0  0  0  0  0  0  0  0  0
   19.8935   20.5918   22.4207 H   0  0  0  0  0  0  0  0  0  0  0  0
   21.2043   19.3506   21.1855 C   0  0  0  0  0  0  0  0  0  0  0  0
   21.9566   20.0279   20.7579 H   0  0  0  0  0  0  0  0  0  0  0  0
   21.7179   18.3894   21.3250 H   0  0  0  0  0  0  0  0  0  0  0  0
   20.0671   19.2008   20.1424 C   0  0  0  0  0  0  0  0  0  0  0  0
   20.5062   18.8548   19.1962 H   0  0  0  0  0  0  0  0  0  0  0  0
   19.6287   20.1862   19.9310 H   0  0  0  0  0  0  0  0  0  0  0  0
   18.9475   18.2204   20.5557 C   0  0  0  0  0  0  0  0  0  0  0  0
   18.2505   18.0617   19.7227 H   0  0  0  0  0  0  0  0  0  0  0  0
   18.3651   18.6126   21.3983 H   0  0  0  0  0  0  0  0  0  0  0  0
   19.3601   17.2434   20.8385 H   0  0  0  0  0  0  0  0  0  0  0  0
   19.2769   19.1426   27.3018 C   0  0  0  0  0  0  0  0  0  0  0  0
   18.3842   19.7407   27.1063 H   0  0  0  0  0  0  0  0  0  0  0  0
   19.0584   18.3924   28.0652 H   0  0  0  0  0  0  0  0  0  0  0  0
   20.0887   19.7893   27.6420 H   0  0  0  0  0  0  0  0  0  0  0  0
  1  2  1  0  0  0  0
  1  3  1  0  0  0  0
  1  4  1  0  0  0  0
  4  5  1  0  0  0  0
  4  6  1  0  0  0  0
  4  7  1  0  0  0  0
  7  8  1  0  0  0  0
  7  9  1  0  0  0  0
  7 10  1  0  0  0  0
 10 11  1  0  0  0  0
 10 12  1  0  0  0  0
 10 13  1  0  0  0  0
 13 14  1  0  0  0  0
 13 15  1  0  0  0  0
 13 16  1  0  0  0  0
 16 17  1  0  0  0  0
 16 18  1  0  0  0  0
 16 19  1  0  0  0  0
 19 20  1  0  0  0  0
 19 21  1  0  0  0  0
 19 22  1  0  0  0  0
  1 23  1  0  0  0  0
 23 24  1  0  0  0  0
 23 25  1  0  0  0  0
 23 26  1  0  0  0  0
M  END
> <VM2 Rank>
133

> <Conf_Id>
1225

> <Probability>
0.02

> <Sum Probability>
99.35

> <Delta G>
3.370

> <G>
78.837

> <E>
46.334

> <-TS>
32.503

> <U+W>
24.872

> <U>
74.070

> <W>
-49.198

> <W(PB)>
-51.475

> <W(SA)>
2.277

> <Valence>
4.690

> <Coulomb>
69.115

> <VdW>
0.266

> <VdW6>
-6.809

> <VdW12>
7.075

> <Bond>
0.212

> <Angle>
1.133

> <Pdih>
3.345

> <Idih>
0.000

> <Tether>
0.000

$$$$
VeraChem MOL file


 26 25  0  0  0  0  0  0  0  0999 V2000     
   20.9361   18.7475   25.7655 N   0  3  0  0  0  0  0  0  0  0  0  0
   21.9077   19.0262   25.9755 H   0  0  0  0  0  0  0  0  0  0  0  0
   20.9833   17.7331   25.5834 H   0  0  0  0  0  0  0  0  0  0  0  0
   20.4527   19.4822   24.5262 C   0  0  0  0  0  0  0  0  0  0  0  0
   21.2271   19.3715   23.7657 H   0  0  0  0  0  0  0  0  0  0  0  0
   20.3760   20.5438   24.7743 H   0  0  0  0  0  0  0  0  0  0  0  0
   19.1033   18.9779   23.9686 C   0  0  0  0  0  0  0  0  0  0  0  0
   19.1389   17.8924   23.8075 H   0  0  0  0  0  0  0  0  0  0  0  0
   18.3279   19.1534   24.7254 H   0  0  0  0  0  0  0  0  0  0  0  0
   18.6813   19.6964   22.6620 C   0  0  0  0  0  0  0  0  0  0  0  0
   18.9691   20.7561   22.7053 H   0  0  0  0  0  0  0  0  0  0  0  0
   17.5839   19.6892   22.6072 H   0  0  0  0  0  0  0  0  0  0  0  0
   19.2182   19.0504   21.3580 C   0  0  0  0  0  0  0  0  0  0  0  0
   18.8354   18.0239   21.2741 H   0  0  0  0  0  0  0  0  0  0  0  0
   18.7983   19.6020   20.5054 H   0  0  0  0  0  0  0  0  0  0  0  0
   20.7593   19.0345   21.2337 C   0  0  0  0  0  0  0  0  0  0  0  0
   21.1887   18.3633   21.9889 H   0  0  0  0  0  0  0  0  0  0  0  0
   21.1602   20.0397   21.4247 H   0  0  0  0  0  0  0  0  0  0  0  0
   21.2132   18.5598   19.8367 C   0  0  0  0  0  0  0  0  0  0  0  0
   20.8375   19.2276   19.0506 H   0  0  0  0  0  0  0  0  0  0  0  0
   20.8487   17.5457   19.6268 H   0  0  0  0  0  0  0  0  0  0  0  0
   22.3087   18.5445   19.7694 H   0  0  0  0  0  0  0  0  0  0  0  0
   20.0438   19.0413   26.9662 C   0  0  0  0  0  0  0  0  0  0  0  0
   19.0327   18.6838   26.7619 H   0  0  0  0  0  0  0  0  0  0  0  0
   20.4444   18.5276   27.8430 H   0  0  0  0  0  0  0  0  0  0  0  0
   20.0273   20.1185   27.1458 H   0  0  0  0  0  0  0  0  0  0  0  0
  1  2  1  0  0  0  0
  1  3  1  0  0  0  0
  1  4  1  0  0  0  0
  4  5  1  0  0  0  0
  4  6  1  0  0  0  0
  4  7  1  0  0  0  0
  7  8  1  0  0  0  0
  7  9  1  0  0  0  0
  7 10  1  0  0  0  0
 10 11  1  0  0  0  0
 10 12  1  0  0  0  0
 10 13  1  0  0  0  0
 13 14  1  0  0  0  0
 13 15  1  0  0  0  0
 13 16  1  0  0  0  0
 16 17  1  0  0  0  0
 16 18  1  0  0  0  0
 16 19  1  0  0  0  0
 19 20  1  0  0  0  0
 19 21  1  0  0  0  0
 19 22  1  0  0  0  0
  1 23  1  0  0  0  0
 23 24  1  0  0  0  0
 23 25  1  0  0  0  0
 23 26  1  0  0  0  0
M  END
> <VM2 Rank>
134

> <Conf_Id>
504

> <Probability>
0.02

> <Sum Probability>
99.37

> <Delta G>
3.381

> <G>
78.848

> <E>
46.164

> <-TS>
32.684

> <U+W>
24.702

> <U>
74.467

> <W>
-49.765

> <W(PB)>
-52.030

> <W(SA)>
2.265

> <Valence>
4.429

> <Coulomb>
69.610

> <VdW>
0.428

> <VdW6>
-7.654

> <VdW12>
8.082

> <Bond>
0.236

> <Angle>
1.210

> <Pdih>
2.984

> <Idih>
0.000

> <Tether>
0.000

$$$$
VeraChem MOL file


 26 25  0  0  0  0  0  0  0  0999 V2000     
   20.8510   18.6720   25.8287 N   0  3  0  0  0  0  0  0  0  0  0  0
   21.8783   18.7031   25.9265 H   0  0  0  0  0  0  0  0  0  0  0  0
   20.6011   17.6795   25.9591 H   0  0  0  0  0  0  0  0  0  0  0  0
   20.4590   19.1344   24.4353 C   0  0  0  0  0  0  0  0  0  0  0  0
   21.0966   18.5968   23.7300 H   0  0  0  0  0  0  0  0  0  0  0  0
   20.6844   20.2009   24.3579 H   0  0  0  0  0  0  0  0  0  0  0  0
   18.9832   18.8799   24.0665 C   0  0  0  0  0  0  0  0  0  0  0  0
   18.7737   17.8039   24.1300 H   0  0  0  0  0  0  0  0  0  0  0  0
   18.3348   19.3656   24.8068 H   0  0  0  0  0  0  0  0  0  0  0  0
   18.5919   19.4006   22.6603 C   0  0  0  0  0  0  0  0  0  0  0  0
   18.7129   20.4917   22.6134 H   0  0  0  0  0  0  0  0  0  0  0  0
   17.5170   19.2155   22.5266 H   0  0  0  0  0  0  0  0  0  0  0  0
   19.3473   18.7249   21.4858 C   0  0  0  0  0  0  0  0  0  0  0  0
   19.5715   17.6781   21.7334 H   0  0  0  0  0  0  0  0  0  0  0  0
   18.6749   18.6925   20.6172 H   0  0  0  0  0  0  0  0  0  0  0  0
   20.6384   19.4680   21.0636 C   0  0  0  0  0  0  0  0  0  0  0  0
   21.3440   19.5317   21.9002 H   0  0  0  0  0  0  0  0  0  0  0  0
   20.3931   20.5017   20.7823 H   0  0  0  0  0  0  0  0  0  0  0  0
   21.3325   18.7700   19.8746 C   0  0  0  0  0  0  0  0  0  0  0  0
   21.6215   17.7431   20.1337 H   0  0  0  0  0  0  0  0  0  0  0  0
   22.2416   19.3122   19.5835 H   0  0  0  0  0  0  0  0  0  0  0  0
   20.6710   18.7284   18.9995 H   0  0  0  0  0  0  0  0  0  0  0  0
   20.2047   19.5404   26.9023 C   0  0  0  0  0  0  0  0  0  0  0  0
   19.1187   19.4503   26.8363 H   0  0  0  0  0  0  0  0  0  0  0  0
   20.5414   19.2026   27.8850 H   0  0  0  0  0  0  0  0  0  0  0  0
   20.5008   20.5804   26.7488 H   0  0  0  0  0  0  0  0  0  0  0  0
  1  2  1  0  0  0  0
  1  3  1  0  0  0  0
  1  4  1  0  0  0  0
  4  5  1  0  0  0  0
  4  6  1  0  0  0  0
  4  7  1  0  0  0  0
  7  8  1  0  0  0  0
  7  9  1  0  0  0  0
  7 10  1  0  0  0  0
 10 11  1  0  0  0  0
 10 12  1  0  0  0  0
 10 13  1  0  0  0  0
 13 14  1  0  0  0  0
 13 15  1  0  0  0  0
 13 16  1  0  0  0  0
 16 17  1  0  0  0  0
 16 18  1  0  0  0  0
 16 19  1  0  0  0  0
 19 20  1  0  0  0  0
 19 21  1  0  0  0  0
 19 22  1  0  0  0  0
  1 23  1  0  0  0  0
 23 24  1  0  0  0  0
 23 25  1  0  0  0  0
 23 26  1  0  0  0  0
M  END
> <VM2 Rank>
135

> <Conf_Id>
1616

> <Probability>
0.02

> <Sum Probability>
99.40

> <Delta G>
3.390

> <G>
78.857

> <E>
46.353

> <-TS>
32.503

> <U+W>
24.891

> <U>
74.474

> <W>
-49.583

> <W(PB)>
-51.832

> <W(SA)>
2.249

> <Valence>
4.600

> <Coulomb>
69.381

> <VdW>
0.493

> <VdW6>
-7.465

> <VdW12>
7.958

> <Bond>
0.243

> <Angle>
1.200

> <Pdih>
3.157

> <Idih>
0.000

> <Tether>
0.000

$$$$
VeraChem MOL file


 26 25  0  0  0  0  0  0  0  0999 V2000     
   20.4162   18.4573   25.9571 N   0  3  0  0  0  0  0  0  0  0  0  0
   21.4120   18.3085   25.7315 H   0  0  0  0  0  0  0  0  0  0  0  0
   19.9707   17.5317   25.8585 H   0  0  0  0  0  0  0  0  0  0  0  0
   19.8001   19.4406   24.9823 C   0  0  0  0  0  0  0  0  0  0  0  0
   20.3033   20.4020   25.1126 H   0  0  0  0  0  0  0  0  0  0  0  0
   18.7477   19.5636   25.2505 H   0  0  0  0  0  0  0  0  0  0  0  0
   19.9114   18.9929   23.5136 C   0  0  0  0  0  0  0  0  0  0  0  0
   20.9711   18.8598   23.2632 H   0  0  0  0  0  0  0  0  0  0  0  0
   19.4174   18.0201   23.3896 H   0  0  0  0  0  0  0  0  0  0  0  0
   19.2737   20.0279   22.5593 C   0  0  0  0  0  0  0  0  0  0  0  0
   19.8315   20.9727   22.6204 H   0  0  0  0  0  0  0  0  0  0  0  0
   18.2554   20.2522   22.9065 H   0  0  0  0  0  0  0  0  0  0  0  0
   19.1924   19.5719   21.0792 C   0  0  0  0  0  0  0  0  0  0  0  0
   18.5463   18.6876   20.9909 H   0  0  0  0  0  0  0  0  0  0  0  0
   18.6826   20.3666   20.5169 H   0  0  0  0  0  0  0  0  0  0  0  0
   20.5619   19.3055   20.4024 C   0  0  0  0  0  0  0  0  0  0  0  0
   21.3397   19.9393   20.8506 H   0  0  0  0  0  0  0  0  0  0  0  0
   20.4958   19.6096   19.3483 H   0  0  0  0  0  0  0  0  0  0  0  0
   20.9894   17.8194   20.4423 C   0  0  0  0  0  0  0  0  0  0  0  0
   20.2510   17.1856   19.9343 H   0  0  0  0  0  0  0  0  0  0  0  0
   21.1032   17.4490   21.4668 H   0  0  0  0  0  0  0  0  0  0  0  0
   21.9514   17.6832   19.9314 H   0  0  0  0  0  0  0  0  0  0  0  0
   20.2630   18.9744   27.3808 C   0  0  0  0  0  0  0  0  0  0  0  0
   19.2011   19.0924   27.6077 H   0  0  0  0  0  0  0  0  0  0  0  0
   20.7106   18.2573   28.0725 H   0  0  0  0  0  0  0  0  0  0  0  0
   20.7697   19.9379   27.4694 H   0  0  0  0  0  0  0  0  0  0  0  0
  1  2  1  0  0  0  0
  1  3  1  0  0  0  0
  1  4  1  0  0  0  0
  4  5  1  0  0  0  0
  4  6  1  0  0  0  0
  4  7  1  0  0  0  0
  7  8  1  0  0  0  0
  7  9  1  0  0  0  0
  7 10  1  0  0  0  0
 10 11  1  0  0  0  0
 10 12  1  0  0  0  0
 10 13  1  0  0  0  0
 13 14  1  0  0  0  0
 13 15  1  0  0  0  0
 13 16  1  0  0  0  0
 16 17  1  0  0  0  0
 16 18  1  0  0  0  0
 16 19  1  0  0  0  0
 19 20  1  0  0  0  0
 19 21  1  0  0  0  0
 19 22  1  0  0  0  0
  1 23  1  0  0  0  0
 23 24  1  0  0  0  0
 23 25  1  0  0  0  0
 23 26  1  0  0  0  0
M  END
> <VM2 Rank>
136

> <Conf_Id>
1087

> <Probability>
0.02

> <Sum Probability>
99.42

> <Delta G>
3.420

> <G>
78.886

> <E>
46.394

> <-TS>
32.493

> <U+W>
24.932

> <U>
74.134

> <W>
-49.202

> <W(PB)>
-51.487

> <W(SA)>
2.285

> <Valence>
4.712

> <Coulomb>
69.140

> <VdW>
0.281

> <VdW6>
-6.800

> <VdW12>
7.082

> <Bond>
0.212

> <Angle>
1.171

> <Pdih>
3.329

> <Idih>
0.000

> <Tether>
0.000

$$$$
VeraChem MOL file


 26 25  0  0  0  0  0  0  0  0999 V2000     
   19.9718   18.6189   26.2310 N   0  3  0  0  0  0  0  0  0  0  0  0
   20.9053   18.2017   26.3682 H   0  0  0  0  0  0  0  0  0  0  0  0
   19.4056   18.2586   27.0154 H   0  0  0  0  0  0  0  0  0  0  0  0
   19.3708   18.1365   24.9177 C   0  0  0  0  0  0  0  0  0  0  0  0
   18.3851   18.5929   24.7976 H   0  0  0  0  0  0  0  0  0  0  0  0
   19.2263   17.0586   25.0275 H   0  0  0  0  0  0  0  0  0  0  0  0
   20.2284   18.3810   23.6560 C   0  0  0  0  0  0  0  0  0  0  0  0
   21.2947   18.3558   23.9162 H   0  0  0  0  0  0  0  0  0  0  0  0
   20.0558   17.5412   22.9714 H   0  0  0  0  0  0  0  0  0  0  0  0
   19.8750   19.7016   22.9259 C   0  0  0  0  0  0  0  0  0  0  0  0
   19.9562   20.5451   23.6212 H   0  0  0  0  0  0  0  0  0  0  0  0
   18.8236   19.6778   22.6101 H   0  0  0  0  0  0  0  0  0  0  0  0
   20.7862   19.9973   21.7062 C   0  0  0  0  0  0  0  0  0  0  0  0
   20.4941   20.9649   21.2752 H   0  0  0  0  0  0  0  0  0  0  0  0
   21.8199   20.1248   22.0558 H   0  0  0  0  0  0  0  0  0  0  0  0
   20.7668   18.9254   20.5862 C   0  0  0  0  0  0  0  0  0  0  0  0
   21.1727   17.9763   20.9610 H   0  0  0  0  0  0  0  0  0  0  0  0
   21.4469   19.2458   19.7846 H   0  0  0  0  0  0  0  0  0  0  0  0
   19.3632   18.6913   19.9828 C   0  0  0  0  0  0  0  0  0  0  0  0
   19.4200   17.9959   19.1354 H   0  0  0  0  0  0  0  0  0  0  0  0
   18.9290   19.6309   19.6174 H   0  0  0  0  0  0  0  0  0  0  0  0
   18.6755   18.2579   20.7195 H   0  0  0  0  0  0  0  0  0  0  0  0
   20.0459   20.1382   26.3113 C   0  0  0  0  0  0  0  0  0  0  0  0
   19.0518   20.5566   26.1397 H   0  0  0  0  0  0  0  0  0  0  0  0
   20.4015   20.4257   27.3033 H   0  0  0  0  0  0  0  0  0  0  0  0
   20.7422   20.5043   25.5546 H   0  0  0  0  0  0  0  0  0  0  0  0
  1  2  1  0  0  0  0
  1  3  1  0  0  0  0
  1  4  1  0  0  0  0
  4  5  1  0  0  0  0
  4  6  1  0  0  0  0
  4  7  1  0  0  0  0
  7  8  1  0  0  0  0
  7  9  1  0  0  0  0
  7 10  1  0  0  0  0
 10 11  1  0  0  0  0
 10 12  1  0  0  0  0
 10 13  1  0  0  0  0
 13 14  1  0  0  0  0
 13 15  1  0  0  0  0
 13 16  1  0  0  0  0
 16 17  1  0  0  0  0
 16 18  1  0  0  0  0
 16 19  1  0  0  0  0
 19 20  1  0  0  0  0
 19 21  1  0  0  0  0
 19 22  1  0  0  0  0
  1 23  1  0  0  0  0
 23 24  1  0  0  0  0
 23 25  1  0  0  0  0
 23 26  1  0  0  0  0
M  END
> <VM2 Rank>
137

> <Conf_Id>
1366

> <Probability>
0.02

> <Sum Probability>
99.44

> <Delta G>
3.439

> <G>
78.905

> <E>
46.098

> <-TS>
32.807

> <U+W>
24.636

> <U>
74.315

> <W>
-49.678

> <W(PB)>
-51.875

> <W(SA)>
2.197

> <Valence>
4.914

> <Coulomb>
68.873

> <VdW>
0.528

> <VdW6>
-8.387

> <VdW12>
8.915

> <Bond>
0.278

> <Angle>
1.571

> <Pdih>
3.064

> <Idih>
0.000

> <Tether>
0.000

$$$$
VeraChem MOL file


 26 25  0  0  0  0  0  0  0  0999 V2000     
   20.3304   18.5051   26.0410 N   0  3  0  0  0  0  0  0  0  0  0  0
   21.2064   18.0291   25.7751 H   0  0  0  0  0  0  0  0  0  0  0  0
   19.6332   17.7532   26.1565 H   0  0  0  0  0  0  0  0  0  0  0  0
   19.8972   19.4558   24.9431 C   0  0  0  0  0  0  0  0  0  0  0  0
   20.6633   20.2295   24.8480 H   0  0  0  0  0  0  0  0  0  0  0  0
   18.9653   19.9310   25.2596 H   0  0  0  0  0  0  0  0  0  0  0  0
   19.6899   18.7630   23.5841 C   0  0  0  0  0  0  0  0  0  0  0  0
   20.6209   18.2678   23.2867 H   0  0  0  0  0  0  0  0  0  0  0  0
   18.9315   17.9760   23.6905 H   0  0  0  0  0  0  0  0  0  0  0  0
   19.2387   19.7722   22.5009 C   0  0  0  0  0  0  0  0  0  0  0  0
   19.9589   20.5985   22.4231 H   0  0  0  0  0  0  0  0  0  0  0  0
   18.2927   20.2249   22.8296 H   0  0  0  0  0  0  0  0  0  0  0  0
   19.0159   19.1270   21.1078 C   0  0  0  0  0  0  0  0  0  0  0  0
   18.6985   18.0809   21.2178 H   0  0  0  0  0  0  0  0  0  0  0  0
   18.1742   19.6414   20.6236 H   0  0  0  0  0  0  0  0  0  0  0  0
   20.2303   19.2175   20.1484 C   0  0  0  0  0  0  0  0  0  0  0  0
   20.4743   20.2726   19.9611 H   0  0  0  0  0  0  0  0  0  0  0  0
   19.9377   18.7967   19.1761 H   0  0  0  0  0  0  0  0  0  0  0  0
   21.4929   18.4805   20.6462 C   0  0  0  0  0  0  0  0  0  0  0  0
   22.2644   18.4719   19.8655 H   0  0  0  0  0  0  0  0  0  0  0  0
   21.2674   17.4383   20.9064 H   0  0  0  0  0  0  0  0  0  0  0  0
   21.9235   18.9762   21.5249 H   0  0  0  0  0  0  0  0  0  0  0  0
   20.5127   19.2688   27.3454 C   0  0  0  0  0  0  0  0  0  0  0  0
   19.5654   19.7359   27.6235 H   0  0  0  0  0  0  0  0  0  0  0  0
   20.8245   18.5729   28.1274 H   0  0  0  0  0  0  0  0  0  0  0  0
   21.2777   20.0363   27.2083 H   0  0  0  0  0  0  0  0  0  0  0  0
  1  2  1  0  0  0  0
  1  3  1  0  0  0  0
  1  4  1  0  0  0  0
  4  5  1  0  0  0  0
  4  6  1  0  0  0  0
  4  7  1  0  0  0  0
  7  8  1  0  0  0  0
  7  9  1  0  0  0  0
  7 10  1  0  0  0  0
 10 11  1  0  0  0  0
 10 12  1  0  0  0  0
 10 13  1  0  0  0  0
 13 14  1  0  0  0  0
 13 15  1  0  0  0  0
 13 16  1  0  0  0  0
 16 17  1  0  0  0  0
 16 18  1  0  0  0  0
 16 19  1  0  0  0  0
 19 20  1  0  0  0  0
 19 21  1  0  0  0  0
 19 22  1  0  0  0  0
  1 23  1  0  0  0  0
 23 24  1  0  0  0  0
 23 25  1  0  0  0  0
 23 26  1  0  0  0  0
M  END
> <VM2 Rank>
138

> <Conf_Id>
212

> <Probability>
0.02

> <Sum Probability>
99.46

> <Delta G>
3.439

> <G>
78.905

> <E>
46.402

> <-TS>
32.503

> <U+W>
24.941

> <U>
74.070

> <W>
-49.130

> <W(PB)>
-51.424

> <W(SA)>
2.294

> <Valence>
4.690

> <Coulomb>
69.115

> <VdW>
0.266

> <VdW6>
-6.809

> <VdW12>
7.075

> <Bond>
0.212

> <Angle>
1.132

> <Pdih>
3.345

> <Idih>
0.000

> <Tether>
0.000

$$$$
VeraChem MOL file


 26 25  0  0  0  0  0  0  0  0999 V2000     
   19.6316   18.3773   25.9294 N   0  3  0  0  0  0  0  0  0  0  0  0
   20.2602   17.5612   25.8690 H   0  0  0  0  0  0  0  0  0  0  0  0
   18.7045   18.0324   25.6355 H   0  0  0  0  0  0  0  0  0  0  0  0
   20.1037   19.4715   24.9930 C   0  0  0  0  0  0  0  0  0  0  0  0
   21.0883   19.8020   25.3334 H   0  0  0  0  0  0  0  0  0  0  0  0
   19.4093   20.3109   25.0809 H   0  0  0  0  0  0  0  0  0  0  0  0
   20.1881   19.0209   23.5234 C   0  0  0  0  0  0  0  0  0  0  0  0
   20.8754   18.1685   23.4413 H   0  0  0  0  0  0  0  0  0  0  0  0
   19.1971   18.6789   23.2003 H   0  0  0  0  0  0  0  0  0  0  0  0
   20.6694   20.1701   22.6088 C   0  0  0  0  0  0  0  0  0  0  0  0
   21.5948   20.5924   23.0248 H   0  0  0  0  0  0  0  0  0  0  0  0
   19.9298   20.9827   22.6240 H   0  0  0  0  0  0  0  0  0  0  0  0
   20.9444   19.7504   21.1413 C   0  0  0  0  0  0  0  0  0  0  0  0
   21.3217   20.6355   20.6105 H   0  0  0  0  0  0  0  0  0  0  0  0
   21.7599   19.0150   21.1048 H   0  0  0  0  0  0  0  0  0  0  0  0
   19.7074   19.2185   20.3721 C   0  0  0  0  0  0  0  0  0  0  0  0
   19.7846   19.5373   19.3231 H   0  0  0  0  0  0  0  0  0  0  0  0
   18.7885   19.6795   20.7602 H   0  0  0  0  0  0  0  0  0  0  0  0
   19.5863   17.6765   20.3925 C   0  0  0  0  0  0  0  0  0  0  0  0
   18.7096   17.3530   19.8166 H   0  0  0  0  0  0  0  0  0  0  0  0
   19.4781   17.2834   21.4091 H   0  0  0  0  0  0  0  0  0  0  0  0
   20.4709   17.2081   19.9419 H   0  0  0  0  0  0  0  0  0  0  0  0
   19.5771   18.9047   27.3565 C   0  0  0  0  0  0  0  0  0  0  0  0
   18.8817   19.7457   27.4023 H   0  0  0  0  0  0  0  0  0  0  0  0
   19.2359   18.1072   28.0203 H   0  0  0  0  0  0  0  0  0  0  0  0
   20.5748   19.2327   27.6565 H   0  0  0  0  0  0  0  0  0  0  0  0
  1  2  1  0  0  0  0
  1  3  1  0  0  0  0
  1  4  1  0  0  0  0
  4  5  1  0  0  0  0
  4  6  1  0  0  0  0
  4  7  1  0  0  0  0
  7  8  1  0  0  0  0
  7  9  1  0  0  0  0
  7 10  1  0  0  0  0
 10 11  1  0  0  0  0
 10 12  1  0  0  0  0
 10 13  1  0  0  0  0
 13 14  1  0  0  0  0
 13 15  1  0  0  0  0
 13 16  1  0  0  0  0
 16 17  1  0  0  0  0
 16 18  1  0  0  0  0
 16 19  1  0  0  0  0
 19 20  1  0  0  0  0
 19 21  1  0  0  0  0
 19 22  1  0  0  0  0
  1 23  1  0  0  0  0
 23 24  1  0  0  0  0
 23 25  1  0  0  0  0
 23 26  1  0  0  0  0
M  END
> <VM2 Rank>
139

> <Conf_Id>
1240

> <Probability>
0.02

> <Sum Probability>
99.48

> <Delta G>
3.451

> <G>
78.918

> <E>
46.425

> <-TS>
32.493

> <U+W>
24.963

> <U>
74.134

> <W>
-49.171

> <W(PB)>
-51.475

> <W(SA)>
2.304

> <Valence>
4.712

> <Coulomb>
69.140

> <VdW>
0.281

> <VdW6>
-6.800

> <VdW12>
7.082

> <Bond>
0.212

> <Angle>
1.171

> <Pdih>
3.329

> <Idih>
0.000

> <Tether>
0.000

$$$$
VeraChem MOL file


 26 25  0  0  0  0  0  0  0  0999 V2000     
   19.9598   18.8122   26.1099 N   0  3  0  0  0  0  0  0  0  0  0  0
   20.3478   18.4830   27.0080 H   0  0  0  0  0  0  0  0  0  0  0  0
   19.1171   18.2378   25.9573 H   0  0  0  0  0  0  0  0  0  0  0  0
   20.9734   18.5671   25.0038 C   0  0  0  0  0  0  0  0  0  0  0  0
   21.6090   17.7426   25.3367 H   0  0  0  0  0  0  0  0  0  0  0  0
   21.6029   19.4559   24.9132 H   0  0  0  0  0  0  0  0  0  0  0  0
   20.3793   18.1870   23.6291 C   0  0  0  0  0  0  0  0  0  0  0  0
   21.2183   17.9501   22.9636 H   0  0  0  0  0  0  0  0  0  0  0  0
   19.7916   17.2650   23.7285 H   0  0  0  0  0  0  0  0  0  0  0  0
   19.5075   19.2975   22.9917 C   0  0  0  0  0  0  0  0  0  0  0  0
   20.0769   20.2348   22.9388 H   0  0  0  0  0  0  0  0  0  0  0  0
   18.6476   19.4977   23.6436 H   0  0  0  0  0  0  0  0  0  0  0  0
   18.9577   18.9296   21.5886 C   0  0  0  0  0  0  0  0  0  0  0  0
   18.3112   18.0458   21.6783 H   0  0  0  0  0  0  0  0  0  0  0  0
   18.3055   19.7438   21.2439 H   0  0  0  0  0  0  0  0  0  0  0  0
   20.0290   18.6569   20.5014 C   0  0  0  0  0  0  0  0  0  0  0  0
   19.5163   18.4265   19.5570 H   0  0  0  0  0  0  0  0  0  0  0  0
   20.6075   17.7581   20.7532 H   0  0  0  0  0  0  0  0  0  0  0  0
   20.9878   19.8466   20.2687 C   0  0  0  0  0  0  0  0  0  0  0  0
   21.6605   19.6393   19.4264 H   0  0  0  0  0  0  0  0  0  0  0  0
   21.6123   20.0382   21.1501 H   0  0  0  0  0  0  0  0  0  0  0  0
   20.4304   20.7631   20.0355 H   0  0  0  0  0  0  0  0  0  0  0  0
   19.6135   20.2930   26.2238 C   0  0  0  0  0  0  0  0  0  0  0  0
   19.1792   20.6429   25.2864 H   0  0  0  0  0  0  0  0  0  0  0  0
   18.8952   20.4298   27.0352 H   0  0  0  0  0  0  0  0  0  0  0  0
   20.5236   20.8566   26.4403 H   0  0  0  0  0  0  0  0  0  0  0  0
  1  2  1  0  0  0  0
  1  3  1  0  0  0  0
  1  4  1  0  0  0  0
  4  5  1  0  0  0  0
  4  6  1  0  0  0  0
  4  7  1  0  0  0  0
  7  8  1  0  0  0  0
  7  9  1  0  0  0  0
  7 10  1  0  0  0  0
 10 11  1  0  0  0  0
 10 12  1  0  0  0  0
 10 13  1  0  0  0  0
 13 14  1  0  0  0  0
 13 15  1  0  0  0  0
 13 16  1  0  0  0  0
 16 17  1  0  0  0  0
 16 18  1  0  0  0  0
 16 19  1  0  0  0  0
 19 20  1  0  0  0  0
 19 21  1  0  0  0  0
 19 22  1  0  0  0  0
  1 23  1  0  0  0  0
 23 24  1  0  0  0  0
 23 25  1  0  0  0  0
 23 26  1  0  0  0  0
M  END
> <VM2 Rank>
140

> <Conf_Id>
1057

> <Probability>
0.02

> <Sum Probability>
99.50

> <Delta G>
3.473

> <G>
78.940

> <E>
46.051

> <-TS>
32.889

> <U+W>
24.589

> <U>
74.261

> <W>
-49.672

> <W(PB)>
-51.878

> <W(SA)>
2.206

> <Valence>
4.837

> <Coulomb>
68.998

> <VdW>
0.426

> <VdW6>
-8.426

> <VdW12>
8.852

> <Bond>
0.274

> <Angle>
1.562

> <Pdih>
3.001

> <Idih>
0.000

> <Tether>
0.000

$$$$
VeraChem MOL file


 26 25  0  0  0  0  0  0  0  0999 V2000     
   20.3595   19.3845   25.5796 N   0  3  0  0  0  0  0  0  0  0  0  0
   21.2365   19.5458   25.0624 H   0  0  0  0  0  0  0  0  0  0  0  0
   20.5772   18.6496   26.2704 H   0  0  0  0  0  0  0  0  0  0  0  0
   19.2758   18.9062   24.6330 C   0  0  0  0  0  0  0  0  0  0  0  0
   19.0688   19.7129   23.9289 H   0  0  0  0  0  0  0  0  0  0  0  0
   18.3742   18.7384   25.2276 H   0  0  0  0  0  0  0  0  0  0  0  0
   19.6324   17.6086   23.8761 C   0  0  0  0  0  0  0  0  0  0  0  0
   19.8453   16.8288   24.6195 H   0  0  0  0  0  0  0  0  0  0  0  0
   18.7536   17.2590   23.3184 H   0  0  0  0  0  0  0  0  0  0  0  0
   20.8456   17.7303   22.9148 C   0  0  0  0  0  0  0  0  0  0  0  0
   21.2714   16.7260   22.7823 H   0  0  0  0  0  0  0  0  0  0  0  0
   21.6450   18.3275   23.3720 H   0  0  0  0  0  0  0  0  0  0  0  0
   20.5148   18.2814   21.5032 C   0  0  0  0  0  0  0  0  0  0  0  0
   21.4309   18.2363   20.8980 H   0  0  0  0  0  0  0  0  0  0  0  0
   19.7923   17.6167   21.0096 H   0  0  0  0  0  0  0  0  0  0  0  0
   19.9752   19.7302   21.4841 C   0  0  0  0  0  0  0  0  0  0  0  0
   20.6212   20.3793   22.0915 H   0  0  0  0  0  0  0  0  0  0  0  0
   18.9717   19.7609   21.9274 H   0  0  0  0  0  0  0  0  0  0  0  0
   19.8942   20.2889   20.0474 C   0  0  0  0  0  0  0  0  0  0  0  0
   19.4972   21.3123   20.0513 H   0  0  0  0  0  0  0  0  0  0  0  0
   19.2343   19.6741   19.4215 H   0  0  0  0  0  0  0  0  0  0  0  0
   20.8855   20.3149   19.5764 H   0  0  0  0  0  0  0  0  0  0  0  0
   19.9105   20.6600   26.2787 C   0  0  0  0  0  0  0  0  0  0  0  0
   18.9988   20.4571   26.8449 H   0  0  0  0  0  0  0  0  0  0  0  0
   20.6992   20.9935   26.9569 H   0  0  0  0  0  0  0  0  0  0  0  0
   19.7173   21.4312   25.5298 H   0  0  0  0  0  0  0  0  0  0  0  0
  1  2  1  0  0  0  0
  1  3  1  0  0  0  0
  1  4  1  0  0  0  0
  4  5  1  0  0  0  0
  4  6  1  0  0  0  0
  4  7  1  0  0  0  0
  7  8  1  0  0  0  0
  7  9  1  0  0  0  0
  7 10  1  0  0  0  0
 10 11  1  0  0  0  0
 10 12  1  0  0  0  0
 10 13  1  0  0  0  0
 13 14  1  0  0  0  0
 13 15  1  0  0  0  0
 13 16  1  0  0  0  0
 16 17  1  0  0  0  0
 16 18  1  0  0  0  0
 16 19  1  0  0  0  0
 19 20  1  0  0  0  0
 19 21  1  0  0  0  0
 19 22  1  0  0  0  0
  1 23  1  0  0  0  0
 23 24  1  0  0  0  0
 23 25  1  0  0  0  0
 23 26  1  0  0  0  0
M  END
> <VM2 Rank>
141

> <Conf_Id>
1241

> <Probability>
0.02

> <Sum Probability>
99.52

> <Delta G>
3.541

> <G>
79.008

> <E>
46.517

> <-TS>
32.490

> <U+W>
25.056

> <U>
74.583

> <W>
-49.528

> <W(PB)>
-51.788

> <W(SA)>
2.260

> <Valence>
4.290

> <Coulomb>
70.230

> <VdW>
0.063

> <VdW6>
-7.673

> <VdW12>
7.736

> <Bond>
0.226

> <Angle>
1.377

> <Pdih>
2.687

> <Idih>
0.000

> <Tether>
0.000

$$$$
VeraChem MOL file


 26 25  0  0  0  0  0  0  0  0999 V2000     
   20.7789   18.6471   25.3956 N   0  3  0  0  0  0  0  0  0  0  0  0
   21.3409   18.8048   24.5476 H   0  0  0  0  0  0  0  0  0  0  0  0
   21.2503   17.8751   25.8934 H   0  0  0  0  0  0  0  0  0  0  0  0
   19.3685   18.2211   25.0191 C   0  0  0  0  0  0  0  0  0  0  0  0
   18.8063   18.1283   25.9518 H   0  0  0  0  0  0  0  0  0  0  0  0
   19.4286   17.2283   24.5661 H   0  0  0  0  0  0  0  0  0  0  0  0
   18.6078   19.1680   24.0617 C   0  0  0  0  0  0  0  0  0  0  0  0
   17.5408   18.9189   24.1319 H   0  0  0  0  0  0  0  0  0  0  0  0
   18.6917   20.2081   24.4008 H   0  0  0  0  0  0  0  0  0  0  0  0
   19.0229   19.0521   22.5725 C   0  0  0  0  0  0  0  0  0  0  0  0
   18.3215   19.6522   21.9764 H   0  0  0  0  0  0  0  0  0  0  0  0
   18.8955   18.0126   22.2417 H   0  0  0  0  0  0  0  0  0  0  0  0
   20.4664   19.5278   22.2716 C   0  0  0  0  0  0  0  0  0  0  0  0
   20.6438   20.4896   22.7724 H   0  0  0  0  0  0  0  0  0  0  0  0
   21.1904   18.8143   22.6831 H   0  0  0  0  0  0  0  0  0  0  0  0
   20.7487   19.7010   20.7596 C   0  0  0  0  0  0  0  0  0  0  0  0
   21.7578   20.1179   20.6334 H   0  0  0  0  0  0  0  0  0  0  0  0
   20.0561   20.4406   20.3341 H   0  0  0  0  0  0  0  0  0  0  0  0
   20.6507   18.3796   19.9637 C   0  0  0  0  0  0  0  0  0  0  0  0
   21.3198   17.6161   20.3812 H   0  0  0  0  0  0  0  0  0  0  0  0
   20.9369   18.5397   18.9161 H   0  0  0  0  0  0  0  0  0  0  0  0
   19.6285   17.9810   19.9692 H   0  0  0  0  0  0  0  0  0  0  0  0
   20.7641   19.8933   26.2732 C   0  0  0  0  0  0  0  0  0  0  0  0
   20.1742   19.6930   27.1702 H   0  0  0  0  0  0  0  0  0  0  0  0
   21.7892   20.1440   26.5548 H   0  0  0  0  0  0  0  0  0  0  0  0
   20.3233   20.7230   25.7172 H   0  0  0  0  0  0  0  0  0  0  0  0
  1  2  1  0  0  0  0
  1  3  1  0  0  0  0
  1  4  1  0  0  0  0
  4  5  1  0  0  0  0
  4  6  1  0  0  0  0
  4  7  1  0  0  0  0
  7  8  1  0  0  0  0
  7  9  1  0  0  0  0
  7 10  1  0  0  0  0
 10 11  1  0  0  0  0
 10 12  1  0  0  0  0
 10 13  1  0  0  0  0
 13 14  1  0  0  0  0
 13 15  1  0  0  0  0
 13 16  1  0  0  0  0
 16 17  1  0  0  0  0
 16 18  1  0  0  0  0
 16 19  1  0  0  0  0
 19 20  1  0  0  0  0
 19 21  1  0  0  0  0
 19 22  1  0  0  0  0
  1 23  1  0  0  0  0
 23 24  1  0  0  0  0
 23 25  1  0  0  0  0
 23 26  1  0  0  0  0
M  END
> <VM2 Rank>
142

> <Conf_Id>
1603

> <Probability>
0.02

> <Sum Probability>
99.54

> <Delta G>
3.549

> <G>
79.015

> <E>
46.512

> <-TS>
32.503

> <U+W>
25.050

> <U>
74.899

> <W>
-49.849

> <W(PB)>
-52.063

> <W(SA)>
2.214

> <Valence>
4.085

> <Coulomb>
70.542

> <VdW>
0.272

> <VdW6>
-8.421

> <VdW12>
8.693

> <Bond>
0.258

> <Angle>
1.368

> <Pdih>
2.459

> <Idih>
0.000

> <Tether>
0.000

$$$$
VeraChem MOL file


 26 25  0  0  0  0  0  0  0  0999 V2000     
   19.9671   18.9641   26.2816 N   0  3  0  0  0  0  0  0  0  0  0  0
   20.2606   19.4740   27.1301 H   0  0  0  0  0  0  0  0  0  0  0  0
   20.3041   17.9991   26.4214 H   0  0  0  0  0  0  0  0  0  0  0  0
   20.6317   19.5816   25.0625 C   0  0  0  0  0  0  0  0  0  0  0  0
   21.6964   19.6816   25.2888 H   0  0  0  0  0  0  0  0  0  0  0  0
   20.2186   20.5841   24.9258 H   0  0  0  0  0  0  0  0  0  0  0  0
   20.4702   18.7665   23.7634 C   0  0  0  0  0  0  0  0  0  0  0  0
   20.8476   17.7484   23.9260 H   0  0  0  0  0  0  0  0  0  0  0  0
   19.4068   18.6742   23.5188 H   0  0  0  0  0  0  0  0  0  0  0  0
   21.2390   19.4212   22.5905 C   0  0  0  0  0  0  0  0  0  0  0  0
   22.3029   19.4650   22.8621 H   0  0  0  0  0  0  0  0  0  0  0  0
   20.9174   20.4632   22.4560 H   0  0  0  0  0  0  0  0  0  0  0  0
   21.1050   18.6459   21.2535 C   0  0  0  0  0  0  0  0  0  0  0  0
   22.0574   18.7311   20.7120 H   0  0  0  0  0  0  0  0  0  0  0  0
   20.9702   17.5727   21.4463 H   0  0  0  0  0  0  0  0  0  0  0  0
   19.9867   19.1630   20.3123 C   0  0  0  0  0  0  0  0  0  0  0  0
   20.0296   18.5918   19.3744 H   0  0  0  0  0  0  0  0  0  0  0  0
   20.1884   20.2085   20.0401 H   0  0  0  0  0  0  0  0  0  0  0  0
   18.5605   19.0517   20.8944 C   0  0  0  0  0  0  0  0  0  0  0  0
   18.4181   19.7410   21.7357 H   0  0  0  0  0  0  0  0  0  0  0  0
   18.3508   18.0305   21.2380 H   0  0  0  0  0  0  0  0  0  0  0  0
   17.8142   19.3088   20.1317 H   0  0  0  0  0  0  0  0  0  0  0  0
   18.4478   18.9960   26.1588 C   0  0  0  0  0  0  0  0  0  0  0  0
   18.1199   20.0298   26.0301 H   0  0  0  0  0  0  0  0  0  0  0  0
   18.1416   18.3997   25.2970 H   0  0  0  0  0  0  0  0  0  0  0  0
   18.0073   18.5801   27.0676 H   0  0  0  0  0  0  0  0  0  0  0  0
  1  2  1  0  0  0  0
  1  3  1  0  0  0  0
  1  4  1  0  0  0  0
  4  5  1  0  0  0  0
  4  6  1  0  0  0  0
  4  7  1  0  0  0  0
  7  8  1  0  0  0  0
  7  9  1  0  0  0  0
  7 10  1  0  0  0  0
 10 11  1  0  0  0  0
 10 12  1  0  0  0  0
 10 13  1  0  0  0  0
 13 14  1  0  0  0  0
 13 15  1  0  0  0  0
 13 16  1  0  0  0  0
 16 17  1  0  0  0  0
 16 18  1  0  0  0  0
 16 19  1  0  0  0  0
 19 20  1  0  0  0  0
 19 21  1  0  0  0  0
 19 22  1  0  0  0  0
  1 23  1  0  0  0  0
 23 24  1  0  0  0  0
 23 25  1  0  0  0  0
 23 26  1  0  0  0  0
M  END
> <VM2 Rank>
143

> <Conf_Id>
1275

> <Probability>
0.02

> <Sum Probability>
99.55

> <Delta G>
3.637

> <G>
79.103

> <E>
46.420

> <-TS>
32.683

> <U+W>
24.958

> <U>
74.399

> <W>
-49.441

> <W(PB)>
-51.681

> <W(SA)>
2.240

> <Valence>
4.963

> <Coulomb>
68.942

> <VdW>
0.494

> <VdW6>
-7.589

> <VdW12>
8.083

> <Bond>
0.249

> <Angle>
1.244

> <Pdih>
3.470

> <Idih>
0.000

> <Tether>
0.000

$$$$
VeraChem MOL file


 26 25  0  0  0  0  0  0  0  0999 V2000     
   20.2399   19.2150   25.8380 N   0  3  0  0  0  0  0  0  0  0  0  0
   21.2489   19.0040   25.8834 H   0  0  0  0  0  0  0  0  0  0  0  0
   19.7828   18.4965   26.4207 H   0  0  0  0  0  0  0  0  0  0  0  0
   19.7490   19.1188   24.4078 C   0  0  0  0  0  0  0  0  0  0  0  0
   20.2536   19.8963   23.8327 H   0  0  0  0  0  0  0  0  0  0  0  0
   18.6776   19.3345   24.4072 H   0  0  0  0  0  0  0  0  0  0  0  0
   19.9971   17.7376   23.7705 C   0  0  0  0  0  0  0  0  0  0  0  0
   21.0661   17.4890   23.8048 H   0  0  0  0  0  0  0  0  0  0  0  0
   19.4839   16.9836   24.3822 H   0  0  0  0  0  0  0  0  0  0  0  0
   19.4729   17.6307   22.3158 C   0  0  0  0  0  0  0  0  0  0  0  0
   18.5107   18.1511   22.2184 H   0  0  0  0  0  0  0  0  0  0  0  0
   19.2528   16.5731   22.1147 H   0  0  0  0  0  0  0  0  0  0  0  0
   20.4687   18.1095   21.2244 C   0  0  0  0  0  0  0  0  0  0  0  0
   21.3830   17.5036   21.2874 H   0  0  0  0  0  0  0  0  0  0  0  0
   20.0354   17.8895   20.2389 H   0  0  0  0  0  0  0  0  0  0  0  0
   20.8621   19.6072   21.2641 C   0  0  0  0  0  0  0  0  0  0  0  0
   21.5702   19.8010   20.4462 H   0  0  0  0  0  0  0  0  0  0  0  0
   21.4115   19.8325   22.1868 H   0  0  0  0  0  0  0  0  0  0  0  0
   19.6583   20.5646   21.1082 C   0  0  0  0  0  0  0  0  0  0  0  0
   19.1104   20.3585   20.1796 H   0  0  0  0  0  0  0  0  0  0  0  0
   19.9987   21.6075   21.0715 H   0  0  0  0  0  0  0  0  0  0  0  0
   18.9556   20.4754   21.9451 H   0  0  0  0  0  0  0  0  0  0  0  0
   19.9601   20.6066   26.3882 C   0  0  0  0  0  0  0  0  0  0  0  0
   20.4803   21.3463   25.7758 H   0  0  0  0  0  0  0  0  0  0  0  0
   18.8844   20.7939   26.3610 H   0  0  0  0  0  0  0  0  0  0  0  0
   20.3183   20.6630   27.4186 H   0  0  0  0  0  0  0  0  0  0  0  0
  1  2  1  0  0  0  0
  1  3  1  0  0  0  0
  1  4  1  0  0  0  0
  4  5  1  0  0  0  0
  4  6  1  0  0  0  0
  4  7  1  0  0  0  0
  7  8  1  0  0  0  0
  7  9  1  0  0  0  0
  7 10  1  0  0  0  0
 10 11  1  0  0  0  0
 10 12  1  0  0  0  0
 10 13  1  0  0  0  0
 13 14  1  0  0  0  0
 13 15  1  0  0  0  0
 13 16  1  0  0  0  0
 16 17  1  0  0  0  0
 16 18  1  0  0  0  0
 16 19  1  0  0  0  0
 19 20  1  0  0  0  0
 19 21  1  0  0  0  0
 19 22  1  0  0  0  0
  1 23  1  0  0  0  0
 23 24  1  0  0  0  0
 23 25  1  0  0  0  0
 23 26  1  0  0  0  0
M  END
> <VM2 Rank>
144

> <Conf_Id>
521

> <Probability>
0.01

> <Sum Probability>
99.57

> <Delta G>
3.639

> <G>
79.106

> <E>
46.122

> <-TS>
32.984

> <U+W>
24.660

> <U>
74.250

> <W>
-49.591

> <W(PB)>
-51.809

> <W(SA)>
2.218

> <Valence>
4.607

> <Coulomb>
69.758

> <VdW>
-0.115

> <VdW6>
-8.153

> <VdW12>
8.038

> <Bond>
0.239

> <Angle>
1.671

> <Pdih>
2.697

> <Idih>
0.000

> <Tether>
0.000

$$$$
VeraChem MOL file


 26 25  0  0  0  0  0  0  0  0999 V2000     
   19.6595   19.1551   25.8175 N   0  3  0  0  0  0  0  0  0  0  0  0
   20.2116   18.5407   26.4358 H   0  0  0  0  0  0  0  0  0  0  0  0
   18.7140   18.7427   25.7938 H   0  0  0  0  0  0  0  0  0  0  0  0
   20.2584   19.1713   24.4258 C   0  0  0  0  0  0  0  0  0  0  0  0
   21.2606   19.6008   24.4985 H   0  0  0  0  0  0  0  0  0  0  0  0
   19.6473   19.8338   23.8112 H   0  0  0  0  0  0  0  0  0  0  0  0
   20.3420   17.7732   23.7828 C   0  0  0  0  0  0  0  0  0  0  0  0
   20.9540   17.1352   24.4343 H   0  0  0  0  0  0  0  0  0  0  0  0
   19.3464   17.3117   23.7440 H   0  0  0  0  0  0  0  0  0  0  0  0
   20.9775   17.7857   22.3691 C   0  0  0  0  0  0  0  0  0  0  0  0
   21.4219   16.7965   22.1915 H   0  0  0  0  0  0  0  0  0  0  0  0
   21.8180   18.4918   22.3355 H   0  0  0  0  0  0  0  0  0  0  0  0
   19.9840   18.0596   21.2072 C   0  0  0  0  0  0  0  0  0  0  0  0
   20.5209   17.9395   20.2561 H   0  0  0  0  0  0  0  0  0  0  0  0
   19.2101   17.2797   21.2104 H   0  0  0  0  0  0  0  0  0  0  0  0
   19.2921   19.4455   21.2084 C   0  0  0  0  0  0  0  0  0  0  0  0
   18.6450   19.5475   22.0887 H   0  0  0  0  0  0  0  0  0  0  0  0
   18.6185   19.4969   20.3415 H   0  0  0  0  0  0  0  0  0  0  0  0
   20.2837   20.6290   21.1303 C   0  0  0  0  0  0  0  0  0  0  0  0
   19.7415   21.5810   21.0624 H   0  0  0  0  0  0  0  0  0  0  0  0
   20.9257   20.5455   20.2439 H   0  0  0  0  0  0  0  0  0  0  0  0
   20.9294   20.6787   22.0150 H   0  0  0  0  0  0  0  0  0  0  0  0
   19.6108   20.5705   26.3760 C   0  0  0  0  0  0  0  0  0  0  0  0
   20.6250   20.9733   26.4226 H   0  0  0  0  0  0  0  0  0  0  0  0
   18.9948   21.1932   25.7234 H   0  0  0  0  0  0  0  0  0  0  0  0
   19.1776   20.5453   27.3783 H   0  0  0  0  0  0  0  0  0  0  0  0
  1  2  1  0  0  0  0
  1  3  1  0  0  0  0
  1  4  1  0  0  0  0
  4  5  1  0  0  0  0
  4  6  1  0  0  0  0
  4  7  1  0  0  0  0
  7  8  1  0  0  0  0
  7  9  1  0  0  0  0
  7 10  1  0  0  0  0
 10 11  1  0  0  0  0
 10 12  1  0  0  0  0
 10 13  1  0  0  0  0
 13 14  1  0  0  0  0
 13 15  1  0  0  0  0
 13 16  1  0  0  0  0
 16 17  1  0  0  0  0
 16 18  1  0  0  0  0
 16 19  1  0  0  0  0
 19 20  1  0  0  0  0
 19 21  1  0  0  0  0
 19 22  1  0  0  0  0
  1 23  1  0  0  0  0
 23 24  1  0  0  0  0
 23 25  1  0  0  0  0
 23 26  1  0  0  0  0
M  END
> <VM2 Rank>
145

> <Conf_Id>
1270

> <Probability>
0.01

> <Sum Probability>
99.58

> <Delta G>
3.648

> <G>
79.114

> <E>
46.131

> <-TS>
32.984

> <U+W>
24.669

> <U>
74.250

> <W>
-49.581

> <W(PB)>
-51.813

> <W(SA)>
2.232

> <Valence>
4.607

> <Coulomb>
69.758

> <VdW>
-0.115

> <VdW6>
-8.153

> <VdW12>
8.037

> <Bond>
0.239

> <Angle>
1.671

> <Pdih>
2.697

> <Idih>
0.000

> <Tether>
0.000

$$$$
VeraChem MOL file


 26 25  0  0  0  0  0  0  0  0999 V2000     
   20.5571   18.5040   26.1173 N   0  3  0  0  0  0  0  0  0  0  0  0
   21.2621   18.6980   26.8462 H   0  0  0  0  0  0  0  0  0  0  0  0
   20.7687   17.5489   25.7899 H   0  0  0  0  0  0  0  0  0  0  0  0
   20.7168   19.4977   24.9787 C   0  0  0  0  0  0  0  0  0  0  0  0
   21.7757   19.5139   24.7085 H   0  0  0  0  0  0  0  0  0  0  0  0
   20.4480   20.4877   25.3557 H   0  0  0  0  0  0  0  0  0  0  0  0
   19.8846   19.1714   23.7220 C   0  0  0  0  0  0  0  0  0  0  0  0
   20.1186   18.1537   23.3907 H   0  0  0  0  0  0  0  0  0  0  0  0
   18.8163   19.1852   23.9735 H   0  0  0  0  0  0  0  0  0  0  0  0
   20.1563   20.1900   22.5888 C   0  0  0  0  0  0  0  0  0  0  0  0
   21.2300   20.2304   22.3590 H   0  0  0  0  0  0  0  0  0  0  0  0
   19.8876   21.1896   22.9579 H   0  0  0  0  0  0  0  0  0  0  0  0
   19.3452   19.9098   21.2965 C   0  0  0  0  0  0  0  0  0  0  0  0
   18.3897   19.4265   21.5425 H   0  0  0  0  0  0  0  0  0  0  0  0
   19.0796   20.8752   20.8437 H   0  0  0  0  0  0  0  0  0  0  0  0
   20.0991   19.0842   20.2224 C   0  0  0  0  0  0  0  0  0  0  0  0
   21.0006   19.6272   19.9058 H   0  0  0  0  0  0  0  0  0  0  0  0
   19.4614   19.0090   19.3304 H   0  0  0  0  0  0  0  0  0  0  0  0
   20.4908   17.6594   20.6717 C   0  0  0  0  0  0  0  0  0  0  0  0
   19.6214   17.1121   21.0582 H   0  0  0  0  0  0  0  0  0  0  0  0
   21.2635   17.6851   21.4498 H   0  0  0  0  0  0  0  0  0  0  0  0
   20.8974   17.0894   19.8264 H   0  0  0  0  0  0  0  0  0  0  0  0
   19.1582   18.5734   26.7195 C   0  0  0  0  0  0  0  0  0  0  0  0
   19.0945   17.8740   27.5561 H   0  0  0  0  0  0  0  0  0  0  0  0
   18.9700   19.5894   27.0734 H   0  0  0  0  0  0  0  0  0  0  0  0
   18.4229   18.3034   25.9590 H   0  0  0  0  0  0  0  0  0  0  0  0
  1  2  1  0  0  0  0
  1  3  1  0  0  0  0
  1  4  1  0  0  0  0
  4  5  1  0  0  0  0
  4  6  1  0  0  0  0
  4  7  1  0  0  0  0
  7  8  1  0  0  0  0
  7  9  1  0  0  0  0
  7 10  1  0  0  0  0
 10 11  1  0  0  0  0
 10 12  1  0  0  0  0
 10 13  1  0  0  0  0
 13 14  1  0  0  0  0
 13 15  1  0  0  0  0
 13 16  1  0  0  0  0
 16 17  1  0  0  0  0
 16 18  1  0  0  0  0
 16 19  1  0  0  0  0
 19 20  1  0  0  0  0
 19 21  1  0  0  0  0
 19 22  1  0  0  0  0
  1 23  1  0  0  0  0
 23 24  1  0  0  0  0
 23 25  1  0  0  0  0
 23 26  1  0  0  0  0
M  END
> <VM2 Rank>
146

> <Conf_Id>
861

> <Probability>
0.01

> <Sum Probability>
99.60

> <Delta G>
3.649

> <G>
79.115

> <E>
46.442

> <-TS>
32.673

> <U+W>
24.980

> <U>
74.461

> <W>
-49.481

> <W(PB)>
-51.719

> <W(SA)>
2.238

> <Valence>
4.969

> <Coulomb>
68.965

> <VdW>
0.528

> <VdW6>
-7.525

> <VdW12>
8.053

> <Bond>
0.248

> <Angle>
1.260

> <Pdih>
3.461

> <Idih>
0.000

> <Tether>
0.000

$$$$
VeraChem MOL file


 26 25  0  0  0  0  0  0  0  0999 V2000     
   19.4383   18.6208   26.0998 N   0  3  0  0  0  0  0  0  0  0  0  0
   18.8831   17.8131   25.7777 H   0  0  0  0  0  0  0  0  0  0  0  0
   18.9465   18.9636   26.9404 H   0  0  0  0  0  0  0  0  0  0  0  0
   19.4488   19.7083   25.0385 C   0  0  0  0  0  0  0  0  0  0  0  0
   20.0737   20.5278   25.4025 H   0  0  0  0  0  0  0  0  0  0  0  0
   18.4250   20.0790   24.9434 H   0  0  0  0  0  0  0  0  0  0  0  0
   19.9449   19.2462   23.6533 C   0  0  0  0  0  0  0  0  0  0  0  0
   20.9853   18.9046   23.7262 H   0  0  0  0  0  0  0  0  0  0  0  0
   19.3388   18.3918   23.3279 H   0  0  0  0  0  0  0  0  0  0  0  0
   19.8462   20.3845   22.6126 C   0  0  0  0  0  0  0  0  0  0  0  0
   20.3411   21.2791   23.0157 H   0  0  0  0  0  0  0  0  0  0  0  0
   18.7915   20.6578   22.4696 H   0  0  0  0  0  0  0  0  0  0  0  0
   20.4843   20.0545   21.2381 C   0  0  0  0  0  0  0  0  0  0  0  0
   20.3905   20.9496   20.6076 H   0  0  0  0  0  0  0  0  0  0  0  0
   21.5641   19.8868   21.3530 H   0  0  0  0  0  0  0  0  0  0  0  0
   19.8341   18.8648   20.4854 C   0  0  0  0  0  0  0  0  0  0  0  0
   19.8601   19.0772   19.4073 H   0  0  0  0  0  0  0  0  0  0  0  0
   18.7709   18.7801   20.7502 H   0  0  0  0  0  0  0  0  0  0  0  0
   20.5566   17.5177   20.7220 C   0  0  0  0  0  0  0  0  0  0  0  0
   20.0713   16.7164   20.1498 H   0  0  0  0  0  0  0  0  0  0  0  0
   20.5480   17.2230   21.7769 H   0  0  0  0  0  0  0  0  0  0  0  0
   21.6032   17.5719   20.3953 H   0  0  0  0  0  0  0  0  0  0  0  0
   20.8547   18.1932   26.4674 C   0  0  0  0  0  0  0  0  0  0  0  0
   21.4116   19.0635   26.8215 H   0  0  0  0  0  0  0  0  0  0  0  0
   20.8068   17.4400   27.2570 H   0  0  0  0  0  0  0  0  0  0  0  0
   21.3453   17.7717   25.5878 H   0  0  0  0  0  0  0  0  0  0  0  0
  1  2  1  0  0  0  0
  1  3  1  0  0  0  0
  1  4  1  0  0  0  0
  4  5  1  0  0  0  0
  4  6  1  0  0  0  0
  4  7  1  0  0  0  0
  7  8  1  0  0  0  0
  7  9  1  0  0  0  0
  7 10  1  0  0  0  0
 10 11  1  0  0  0  0
 10 12  1  0  0  0  0
 10 13  1  0  0  0  0
 13 14  1  0  0  0  0
 13 15  1  0  0  0  0
 13 16  1  0  0  0  0
 16 17  1  0  0  0  0
 16 18  1  0  0  0  0
 16 19  1  0  0  0  0
 19 20  1  0  0  0  0
 19 21  1  0  0  0  0
 19 22  1  0  0  0  0
  1 23  1  0  0  0  0
 23 24  1  0  0  0  0
 23 25  1  0  0  0  0
 23 26  1  0  0  0  0
M  END
> <VM2 Rank>
147

> <Conf_Id>
1337

> <Probability>
0.01

> <Sum Probability>
99.61

> <Delta G>
3.651

> <G>
79.118

> <E>
46.447

> <-TS>
32.671

> <U+W>
24.985

> <U>
74.475

> <W>
-49.490

> <W(PB)>
-51.738

> <W(SA)>
2.248

> <Valence>
4.984

> <Coulomb>
68.965

> <VdW>
0.526

> <VdW6>
-7.550

> <VdW12>
8.076

> <Bond>
0.247

> <Angle>
1.295

> <Pdih>
3.441

> <Idih>
0.000

> <Tether>
0.000

$$$$
VeraChem MOL file


 26 25  0  0  0  0  0  0  0  0999 V2000     
   19.4730   18.3938   26.0790 N   0  3  0  0  0  0  0  0  0  0  0  0
   19.4810   17.4180   25.7443 H   0  0  0  0  0  0  0  0  0  0  0  0
   18.6941   18.4370   26.7553 H   0  0  0  0  0  0  0  0  0  0  0  0
   19.1969   19.3432   24.9249 C   0  0  0  0  0  0  0  0  0  0  0  0
   19.2342   20.3643   25.3127 H   0  0  0  0  0  0  0  0  0  0  0  0
   18.1779   19.1481   24.5811 H   0  0  0  0  0  0  0  0  0  0  0  0
   20.1636   19.1998   23.7319 C   0  0  0  0  0  0  0  0  0  0  0  0
   21.1870   19.4262   24.0574 H   0  0  0  0  0  0  0  0  0  0  0  0
   20.1626   18.1582   23.3923 H   0  0  0  0  0  0  0  0  0  0  0  0
   19.7727   20.1510   22.5753 C   0  0  0  0  0  0  0  0  0  0  0  0
   19.8084   21.1816   22.9551 H   0  0  0  0  0  0  0  0  0  0  0  0
   18.7315   19.9764   22.2705 H   0  0  0  0  0  0  0  0  0  0  0  0
   20.7120   20.0489   21.3449 C   0  0  0  0  0  0  0  0  0  0  0  0
   20.8091   21.0512   20.9050 H   0  0  0  0  0  0  0  0  0  0  0  0
   21.7256   19.7659   21.6607 H   0  0  0  0  0  0  0  0  0  0  0  0
   20.2167   19.0962   20.2266 C   0  0  0  0  0  0  0  0  0  0  0  0
   20.9173   19.1572   19.3820 H   0  0  0  0  0  0  0  0  0  0  0  0
   19.2488   19.4489   19.8439 H   0  0  0  0  0  0  0  0  0  0  0  0
   20.0893   17.6185   20.6574 C   0  0  0  0  0  0  0  0  0  0  0  0
   19.8659   16.9844   19.7898 H   0  0  0  0  0  0  0  0  0  0  0  0
   19.2747   17.4826   21.3793 H   0  0  0  0  0  0  0  0  0  0  0  0
   21.0218   17.2546   21.1077 H   0  0  0  0  0  0  0  0  0  0  0  0
   20.7838   18.7386   26.7770 C   0  0  0  0  0  0  0  0  0  0  0  0
   20.9281   18.0604   27.6210 H   0  0  0  0  0  0  0  0  0  0  0  0
   21.6097   18.6272   26.0717 H   0  0  0  0  0  0  0  0  0  0  0  0
   20.7387   19.7692   27.1359 H   0  0  0  0  0  0  0  0  0  0  0  0
  1  2  1  0  0  0  0
  1  3  1  0  0  0  0
  1  4  1  0  0  0  0
  4  5  1  0  0  0  0
  4  6  1  0  0  0  0
  4  7  1  0  0  0  0
  7  8  1  0  0  0  0
  7  9  1  0  0  0  0
  7 10  1  0  0  0  0
 10 11  1  0  0  0  0
 10 12  1  0  0  0  0
 10 13  1  0  0  0  0
 13 14  1  0  0  0  0
 13 15  1  0  0  0  0
 13 16  1  0  0  0  0
 16 17  1  0  0  0  0
 16 18  1  0  0  0  0
 16 19  1  0  0  0  0
 19 20  1  0  0  0  0
 19 21  1  0  0  0  0
 19 22  1  0  0  0  0
  1 23  1  0  0  0  0
 23 24  1  0  0  0  0
 23 25  1  0  0  0  0
 23 26  1  0  0  0  0
M  END
> <VM2 Rank>
148

> <Conf_Id>
545

> <Probability>
0.01

> <Sum Probability>
99.62

> <Delta G>
3.662

> <G>
79.129

> <E>
46.456

> <-TS>
32.673

> <U+W>
24.994

> <U>
74.461

> <W>
-49.467

> <W(PB)>
-51.713

> <W(SA)>
2.246

> <Valence>
4.969

> <Coulomb>
68.965

> <VdW>
0.528

> <VdW6>
-7.525

> <VdW12>
8.053

> <Bond>
0.248

> <Angle>
1.260

> <Pdih>
3.461

> <Idih>
0.000

> <Tether>
0.000

$$$$
VeraChem MOL file


 26 25  0  0  0  0  0  0  0  0999 V2000     
   20.0766   18.6460   26.1961 N   0  3  0  0  0  0  0  0  0  0  0  0
   20.2487   17.6357   26.0769 H   0  0  0  0  0  0  0  0  0  0  0  0
   19.5745   18.7261   27.0947 H   0  0  0  0  0  0  0  0  0  0  0  0
   19.1941   19.1648   25.0731 C   0  0  0  0  0  0  0  0  0  0  0  0
   19.0670   20.2410   25.2144 H   0  0  0  0  0  0  0  0  0  0  0  0
   18.2157   18.6904   25.1840 H   0  0  0  0  0  0  0  0  0  0  0  0
   19.7302   18.8819   23.6550 C   0  0  0  0  0  0  0  0  0  0  0  0
   20.6957   19.3856   23.5279 H   0  0  0  0  0  0  0  0  0  0  0  0
   19.9018   17.8038   23.5383 H   0  0  0  0  0  0  0  0  0  0  0  0
   18.7430   19.3736   22.5722 C   0  0  0  0  0  0  0  0  0  0  0  0
   18.6463   20.4664   22.6364 H   0  0  0  0  0  0  0  0  0  0  0  0
   17.7455   18.9660   22.7879 H   0  0  0  0  0  0  0  0  0  0  0  0
   19.1280   18.9741   21.1240 C   0  0  0  0  0  0  0  0  0  0  0  0
   19.1213   17.8804   21.0190 H   0  0  0  0  0  0  0  0  0  0  0  0
   18.3330   19.3389   20.4589 H   0  0  0  0  0  0  0  0  0  0  0  0
   20.4773   19.5526   20.6243 C   0  0  0  0  0  0  0  0  0  0  0  0
   20.6881   20.5118   21.1175 H   0  0  0  0  0  0  0  0  0  0  0  0
   20.3852   19.7786   19.5527 H   0  0  0  0  0  0  0  0  0  0  0  0
   21.6678   18.5815   20.8046 C   0  0  0  0  0  0  0  0  0  0  0  0
   21.4968   17.6461   20.2561 H   0  0  0  0  0  0  0  0  0  0  0  0
   21.8399   18.3284   21.8564 H   0  0  0  0  0  0  0  0  0  0  0  0
   22.5912   19.0302   20.4160 H   0  0  0  0  0  0  0  0  0  0  0  0
   21.3909   19.4154   26.2676 C   0  0  0  0  0  0  0  0  0  0  0  0
   21.9790   19.0402   27.1081 H   0  0  0  0  0  0  0  0  0  0  0  0
   21.9458   19.2714   25.3385 H   0  0  0  0  0  0  0  0  0  0  0  0
   21.1777   20.4769   26.4118 H   0  0  0  0  0  0  0  0  0  0  0  0
  1  2  1  0  0  0  0
  1  3  1  0  0  0  0
  1  4  1  0  0  0  0
  4  5  1  0  0  0  0
  4  6  1  0  0  0  0
  4  7  1  0  0  0  0
  7  8  1  0  0  0  0
  7  9  1  0  0  0  0
  7 10  1  0  0  0  0
 10 11  1  0  0  0  0
 10 12  1  0  0  0  0
 10 13  1  0  0  0  0
 13 14  1  0  0  0  0
 13 15  1  0  0  0  0
 13 16  1  0  0  0  0
 16 17  1  0  0  0  0
 16 18  1  0  0  0  0
 16 19  1  0  0  0  0
 19 20  1  0  0  0  0
 19 21  1  0  0  0  0
 19 22  1  0  0  0  0
  1 23  1  0  0  0  0
 23 24  1  0  0  0  0
 23 25  1  0  0  0  0
 23 26  1  0  0  0  0
M  END
> <VM2 Rank>
149

> <Conf_Id>
556

> <Probability>
0.01

> <Sum Probability>
99.64

> <Delta G>
3.683

> <G>
79.149

> <E>
46.473

> <-TS>
32.676

> <U+W>
25.011

> <U>
74.458

> <W>
-49.447

> <W(PB)>
-51.669

> <W(SA)>
2.223

> <Valence>
4.984

> <Coulomb>
68.955

> <VdW>
0.518

> <VdW6>
-7.574

> <VdW12>
8.093

> <Bond>
0.249

> <Angle>
1.287

> <Pdih>
3.448

> <Idih>
0.000

> <Tether>
0.000

$$$$
VeraChem MOL file


 26 25  0  0  0  0  0  0  0  0999 V2000     
   19.9087   18.6288   26.1902 N   0  3  0  0  0  0  0  0  0  0  0  0
   20.3200   18.8023   27.1211 H   0  0  0  0  0  0  0  0  0  0  0  0
   19.9528   17.6055   26.0665 H   0  0  0  0  0  0  0  0  0  0  0  0
   20.7449   19.3231   25.1280 C   0  0  0  0  0  0  0  0  0  0  0  0
   21.7887   19.0550   25.3107 H   0  0  0  0  0  0  0  0  0  0  0  0
   20.6420   20.4018   25.2702 H   0  0  0  0  0  0  0  0  0  0  0  0
   20.3776   18.9479   23.6779 C   0  0  0  0  0  0  0  0  0  0  0  0
   20.4359   17.8582   23.5573 H   0  0  0  0  0  0  0  0  0  0  0  0
   19.3416   19.2472   23.4799 H   0  0  0  0  0  0  0  0  0  0  0  0
   21.3185   19.6366   22.6635 C   0  0  0  0  0  0  0  0  0  0  0  0
   22.3602   19.4372   22.9513 H   0  0  0  0  0  0  0  0  0  0  0  0
   21.1879   20.7259   22.7265 H   0  0  0  0  0  0  0  0  0  0  0  0
   21.1244   19.1780   21.1947 C   0  0  0  0  0  0  0  0  0  0  0  0
   21.8740   19.7005   20.5843 H   0  0  0  0  0  0  0  0  0  0  0  0
   21.3591   18.1089   21.0983 H   0  0  0  0  0  0  0  0  0  0  0  0
   19.7245   19.4758   20.5978 C   0  0  0  0  0  0  0  0  0  0  0  0
   19.8438   19.7235   19.5336 H   0  0  0  0  0  0  0  0  0  0  0  0
   19.2904   20.3690   21.0682 H   0  0  0  0  0  0  0  0  0  0  0  0
   18.7449   18.2831   20.7010 C   0  0  0  0  0  0  0  0  0  0  0  0
   19.1392   17.4055   20.1724 H   0  0  0  0  0  0  0  0  0  0  0  0
   17.7795   18.5390   20.2455 H   0  0  0  0  0  0  0  0  0  0  0  0
   18.5542   17.9928   21.7399 H   0  0  0  0  0  0  0  0  0  0  0  0
   18.4645   19.1167   26.1638 C   0  0  0  0  0  0  0  0  0  0  0  0
   18.0166   18.8701   25.1991 H   0  0  0  0  0  0  0  0  0  0  0  0
   17.9067   18.6246   26.9637 H   0  0  0  0  0  0  0  0  0  0  0  0
   18.4484   20.1983   26.3148 H   0  0  0  0  0  0  0  0  0  0  0  0
  1  2  1  0  0  0  0
  1  3  1  0  0  0  0
  1  4  1  0  0  0  0
  4  5  1  0  0  0  0
  4  6  1  0  0  0  0
  4  7  1  0  0  0  0
  7  8  1  0  0  0  0
  7  9  1  0  0  0  0
  7 10  1  0  0  0  0
 10 11  1  0  0  0  0
 10 12  1  0  0  0  0
 10 13  1  0  0  0  0
 13 14  1  0  0  0  0
 13 15  1  0  0  0  0
 13 16  1  0  0  0  0
 16 17  1  0  0  0  0
 16 18  1  0  0  0  0
 16 19  1  0  0  0  0
 19 20  1  0  0  0  0
 19 21  1  0  0  0  0
 19 22  1  0  0  0  0
  1 23  1  0  0  0  0
 23 24  1  0  0  0  0
 23 25  1  0  0  0  0
 23 26  1  0  0  0  0
M  END
> <VM2 Rank>
150

> <Conf_Id>
550

> <Probability>
0.01

> <Sum Probability>
99.65

> <Delta G>
3.687

> <G>
79.153

> <E>
46.478

> <-TS>
32.676

> <U+W>
25.016

> <U>
74.458

> <W>
-49.442

> <W(PB)>
-51.688

> <W(SA)>
2.246

> <Valence>
4.984

> <Coulomb>
68.955

> <VdW>
0.519

> <VdW6>
-7.575

> <VdW12>
8.093

> <Bond>
0.249

> <Angle>
1.287

> <Pdih>
3.449

> <Idih>
0.000

> <Tether>
0.000

$$$$
VeraChem MOL file


 26 25  0  0  0  0  0  0  0  0999 V2000     
   20.5849   19.2768   25.4313 N   0  3  0  0  0  0  0  0  0  0  0  0
   21.1091   19.6009   24.6061 H   0  0  0  0  0  0  0  0  0  0  0  0
   21.1241   18.4810   25.8067 H   0  0  0  0  0  0  0  0  0  0  0  0
   19.1980   18.8188   25.0225 C   0  0  0  0  0  0  0  0  0  0  0  0
   18.6376   19.6872   24.6672 H   0  0  0  0  0  0  0  0  0  0  0  0
   18.7087   18.4455   25.9257 H   0  0  0  0  0  0  0  0  0  0  0  0
   19.1830   17.7114   23.9477 C   0  0  0  0  0  0  0  0  0  0  0  0
   19.9474   16.9562   24.1738 H   0  0  0  0  0  0  0  0  0  0  0  0
   18.2178   17.1923   24.0164 H   0  0  0  0  0  0  0  0  0  0  0  0
   19.3434   18.2265   22.4944 C   0  0  0  0  0  0  0  0  0  0  0  0
   18.5312   18.9316   22.2723 H   0  0  0  0  0  0  0  0  0  0  0  0
   19.2069   17.3758   21.8125 H   0  0  0  0  0  0  0  0  0  0  0  0
   20.7110   18.8919   22.1987 C   0  0  0  0  0  0  0  0  0  0  0  0
   20.7845   19.8497   22.7290 H   0  0  0  0  0  0  0  0  0  0  0  0
   21.5169   18.2499   22.5803 H   0  0  0  0  0  0  0  0  0  0  0  0
   20.9551   19.1408   20.6906 C   0  0  0  0  0  0  0  0  0  0  0  0
   20.9177   18.1874   20.1451 H   0  0  0  0  0  0  0  0  0  0  0  0
   21.9739   19.5307   20.5567 H   0  0  0  0  0  0  0  0  0  0  0  0
   19.9529   20.1371   20.0643 C   0  0  0  0  0  0  0  0  0  0  0  0
   20.2179   20.3430   19.0191 H   0  0  0  0  0  0  0  0  0  0  0  0
   19.9550   21.0924   20.6051 H   0  0  0  0  0  0  0  0  0  0  0  0
   18.9306   19.7392   20.0729 H   0  0  0  0  0  0  0  0  0  0  0  0
   20.4797   20.3867   26.4676 C   0  0  0  0  0  0  0  0  0  0  0  0
   19.9330   21.2288   26.0378 H   0  0  0  0  0  0  0  0  0  0  0  0
   19.9488   20.0098   27.3446 H   0  0  0  0  0  0  0  0  0  0  0  0
   21.4843   20.7063   26.7538 H   0  0  0  0  0  0  0  0  0  0  0  0
  1  2  1  0  0  0  0
  1  3  1  0  0  0  0
  1  4  1  0  0  0  0
  4  5  1  0  0  0  0
  4  6  1  0  0  0  0
  4  7  1  0  0  0  0
  7  8  1  0  0  0  0
  7  9  1  0  0  0  0
  7 10  1  0  0  0  0
 10 11  1  0  0  0  0
 10 12  1  0  0  0  0
 10 13  1  0  0  0  0
 13 14  1  0  0  0  0
 13 15  1  0  0  0  0
 13 16  1  0  0  0  0
 16 17  1  0  0  0  0
 16 18  1  0  0  0  0
 16 19  1  0  0  0  0
 19 20  1  0  0  0  0
 19 21  1  0  0  0  0
 19 22  1  0  0  0  0
  1 23  1  0  0  0  0
 23 24  1  0  0  0  0
 23 25  1  0  0  0  0
 23 26  1  0  0  0  0
M  END
> <VM2 Rank>
151

> <Conf_Id>
818

> <Probability>
0.01

> <Sum Probability>
99.67

> <Delta G>
3.702

> <G>
79.168

> <E>
46.697

> <-TS>
32.472

> <U+W>
25.235

> <U>
74.474

> <W>
-49.240

> <W(PB)>
-51.484

> <W(SA)>
2.244

> <Valence>
3.793

> <Coulomb>
70.589

> <VdW>
0.093

> <VdW6>
-7.603

> <VdW12>
7.696

> <Bond>
0.211

> <Angle>
1.117

> <Pdih>
2.465

> <Idih>
0.000

> <Tether>
0.000

$$$$
VeraChem MOL file


 26 25  0  0  0  0  0  0  0  0999 V2000     
   19.3384   19.1478   25.3872 N   0  3  0  0  0  0  0  0  0  0  0  0
   18.9484   18.2559   25.7295 H   0  0  0  0  0  0  0  0  0  0  0  0
   18.8181   19.3639   24.5250 H   0  0  0  0  0  0  0  0  0  0  0  0
   20.8147   18.9861   25.0798 C   0  0  0  0  0  0  0  0  0  0  0  0
   21.3056   18.7142   26.0176 H   0  0  0  0  0  0  0  0  0  0  0  0
   21.2092   19.9533   24.7583 H   0  0  0  0  0  0  0  0  0  0  0  0
   21.1311   17.9130   24.0167 C   0  0  0  0  0  0  0  0  0  0  0  0
   22.1748   17.6018   24.1564 H   0  0  0  0  0  0  0  0  0  0  0  0
   20.5234   17.0158   24.1941 H   0  0  0  0  0  0  0  0  0  0  0  0
   20.9708   18.3949   22.5520 C   0  0  0  0  0  0  0  0  0  0  0  0
   21.3257   17.5951   21.8875 H   0  0  0  0  0  0  0  0  0  0  0  0
   21.6351   19.2528   22.3822 H   0  0  0  0  0  0  0  0  0  0  0  0
   19.5201   18.7688   22.1565 C   0  0  0  0  0  0  0  0  0  0  0  0
   18.8378   17.9728   22.4855 H   0  0  0  0  0  0  0  0  0  0  0  0
   19.2154   19.6875   22.6734 H   0  0  0  0  0  0  0  0  0  0  0  0
   19.3364   18.9733   20.6333 C   0  0  0  0  0  0  0  0  0  0  0  0
   18.2713   19.1476   20.4257 H   0  0  0  0  0  0  0  0  0  0  0  0
   19.6059   18.0516   20.0988 H   0  0  0  0  0  0  0  0  0  0  0  0
   20.1550   20.1579   20.0713 C   0  0  0  0  0  0  0  0  0  0  0  0
   19.9198   21.0887   20.6036 H   0  0  0  0  0  0  0  0  0  0  0  0
   19.9273   20.3127   19.0087 H   0  0  0  0  0  0  0  0  0  0  0  0
   21.2340   19.9774   20.1544 H   0  0  0  0  0  0  0  0  0  0  0  0
   19.1415   20.2482   26.4204 C   0  0  0  0  0  0  0  0  0  0  0  0
   19.5333   21.1874   26.0238 H   0  0  0  0  0  0  0  0  0  0  0  0
   18.0754   20.3535   26.6332 H   0  0  0  0  0  0  0  0  0  0  0  0
   19.6756   19.9813   27.3350 H   0  0  0  0  0  0  0  0  0  0  0  0
  1  2  1  0  0  0  0
  1  3  1  0  0  0  0
  1  4  1  0  0  0  0
  4  5  1  0  0  0  0
  4  6  1  0  0  0  0
  4  7  1  0  0  0  0
  7  8  1  0  0  0  0
  7  9  1  0  0  0  0
  7 10  1  0  0  0  0
 10 11  1  0  0  0  0
 10 12  1  0  0  0  0
 10 13  1  0  0  0  0
 13 14  1  0  0  0  0
 13 15  1  0  0  0  0
 13 16  1  0  0  0  0
 16 17  1  0  0  0  0
 16 18  1  0  0  0  0
 16 19  1  0  0  0  0
 19 20  1  0  0  0  0
 19 21  1  0  0  0  0
 19 22  1  0  0  0  0
  1 23  1  0  0  0  0
 23 24  1  0  0  0  0
 23 25  1  0  0  0  0
 23 26  1  0  0  0  0
M  END
> <VM2 Rank>
152

> <Conf_Id>
802

> <Probability>
0.01

> <Sum Probability>
99.68

> <Delta G>
3.724

> <G>
79.190

> <E>
46.718

> <-TS>
32.472

> <U+W>
25.256

> <U>
74.474

> <W>
-49.218

> <W(PB)>
-51.462

> <W(SA)>
2.244

> <Valence>
3.793

> <Coulomb>
70.589

> <VdW>
0.093

> <VdW6>
-7.603

> <VdW12>
7.696

> <Bond>
0.211

> <Angle>
1.117

> <Pdih>
2.465

> <Idih>
0.000

> <Tether>
0.000

$$$$
VeraChem MOL file


 26 25  0  0  0  0  0  0  0  0999 V2000     
   19.5423   19.8264   25.4875 N   0  3  0  0  0  0  0  0  0  0  0  0
   18.8953   20.2196   26.1894 H   0  0  0  0  0  0  0  0  0  0  0  0
   19.3778   20.3777   24.6328 H   0  0  0  0  0  0  0  0  0  0  0  0
   19.1956   18.3685   25.2382 C   0  0  0  0  0  0  0  0  0  0  0  0
   18.1227   18.3193   25.0355 H   0  0  0  0  0  0  0  0  0  0  0  0
   19.3826   17.8286   26.1698 H   0  0  0  0  0  0  0  0  0  0  0  0
   19.9544   17.6692   24.0856 C   0  0  0  0  0  0  0  0  0  0  0  0
   21.0360   17.6779   24.2717 H   0  0  0  0  0  0  0  0  0  0  0  0
   19.6599   16.6116   24.1034 H   0  0  0  0  0  0  0  0  0  0  0  0
   19.6387   18.2310   22.6751 C   0  0  0  0  0  0  0  0  0  0  0  0
   18.5748   18.4972   22.6086 H   0  0  0  0  0  0  0  0  0  0  0  0
   19.7968   17.4220   21.9500 H   0  0  0  0  0  0  0  0  0  0  0  0
   20.5236   19.4377   22.2683 C   0  0  0  0  0  0  0  0  0  0  0  0
   20.4353   20.2380   23.0105 H   0  0  0  0  0  0  0  0  0  0  0  0
   21.5801   19.1360   22.2694 H   0  0  0  0  0  0  0  0  0  0  0  0
   20.1600   20.0278   20.8840 C   0  0  0  0  0  0  0  0  0  0  0  0
   20.7562   20.9367   20.7213 H   0  0  0  0  0  0  0  0  0  0  0  0
   19.1082   20.3464   20.8800 H   0  0  0  0  0  0  0  0  0  0  0  0
   20.4121   19.0528   19.7111 C   0  0  0  0  0  0  0  0  0  0  0  0
   21.4491   18.6928   19.7123 H   0  0  0  0  0  0  0  0  0  0  0  0
   20.2322   19.5531   18.7507 H   0  0  0  0  0  0  0  0  0  0  0  0
   19.7453   18.1830   19.7582 H   0  0  0  0  0  0  0  0  0  0  0  0
   20.9814   19.9766   25.9673 C   0  0  0  0  0  0  0  0  0  0  0  0
   21.1159   19.3978   26.8836 H   0  0  0  0  0  0  0  0  0  0  0  0
   21.6596   19.6098   25.1943 H   0  0  0  0  0  0  0  0  0  0  0  0
   21.1844   21.0316   26.1643 H   0  0  0  0  0  0  0  0  0  0  0  0
  1  2  1  0  0  0  0
  1  3  1  0  0  0  0
  1  4  1  0  0  0  0
  4  5  1  0  0  0  0
  4  6  1  0  0  0  0
  4  7  1  0  0  0  0
  7  8  1  0  0  0  0
  7  9  1  0  0  0  0
  7 10  1  0  0  0  0
 10 11  1  0  0  0  0
 10 12  1  0  0  0  0
 10 13  1  0  0  0  0
 13 14  1  0  0  0  0
 13 15  1  0  0  0  0
 13 16  1  0  0  0  0
 16 17  1  0  0  0  0
 16 18  1  0  0  0  0
 16 19  1  0  0  0  0
 19 20  1  0  0  0  0
 19 21  1  0  0  0  0
 19 22  1  0  0  0  0
  1 23  1  0  0  0  0
 23 24  1  0  0  0  0
 23 25  1  0  0  0  0
 23 26  1  0  0  0  0
M  END
> <VM2 Rank>
153

> <Conf_Id>
535

> <Probability>
0.01

> <Sum Probability>
99.69

> <Delta G>
3.724

> <G>
79.190

> <E>
46.515

> <-TS>
32.676

> <U+W>
25.053

> <U>
75.034

> <W>
-49.981

> <W(PB)>
-52.181

> <W(SA)>
2.200

> <Valence>
4.541

> <Coulomb>
70.171

> <VdW>
0.322

> <VdW6>
-8.485

> <VdW12>
8.807

> <Bond>
0.270

> <Angle>
1.463

> <Pdih>
2.808

> <Idih>
0.000

> <Tether>
0.000

$$$$
VeraChem MOL file


 26 25  0  0  0  0  0  0  0  0999 V2000     
   20.7158   18.9870   25.8418 N   0  3  0  0  0  0  0  0  0  0  0  0
   21.7086   18.9817   26.1248 H   0  0  0  0  0  0  0  0  0  0  0  0
   20.2679   18.2654   26.4275 H   0  0  0  0  0  0  0  0  0  0  0  0
   20.6027   18.6167   24.3729 C   0  0  0  0  0  0  0  0  0  0  0  0
   21.2087   17.7207   24.2166 H   0  0  0  0  0  0  0  0  0  0  0  0
   21.0455   19.4273   23.7923 H   0  0  0  0  0  0  0  0  0  0  0  0
   19.1622   18.3338   23.8944 C   0  0  0  0  0  0  0  0  0  0  0  0
   18.7492   17.5305   24.5187 H   0  0  0  0  0  0  0  0  0  0  0  0
   18.5216   19.2103   24.0549 H   0  0  0  0  0  0  0  0  0  0  0  0
   19.0873   17.8927   22.4104 C   0  0  0  0  0  0  0  0  0  0  0  0
   18.1855   17.2771   22.2872 H   0  0  0  0  0  0  0  0  0  0  0  0
   19.9277   17.2291   22.1670 H   0  0  0  0  0  0  0  0  0  0  0  0
   18.9938   19.0576   21.3876 C   0  0  0  0  0  0  0  0  0  0  0  0
   18.8444   18.6301   20.3865 H   0  0  0  0  0  0  0  0  0  0  0  0
   18.0878   19.6425   21.5978 H   0  0  0  0  0  0  0  0  0  0  0  0
   20.2051   20.0215   21.3349 C   0  0  0  0  0  0  0  0  0  0  0  0
   20.3088   20.5552   22.2882 H   0  0  0  0  0  0  0  0  0  0  0  0
   19.9981   20.7975   20.5847 H   0  0  0  0  0  0  0  0  0  0  0  0
   21.5326   19.3216   20.9637 C   0  0  0  0  0  0  0  0  0  0  0  0
   21.4453   18.7988   20.0025 H   0  0  0  0  0  0  0  0  0  0  0  0
   21.8338   18.5901   21.7229 H   0  0  0  0  0  0  0  0  0  0  0  0
   22.3426   20.0568   20.8725 H   0  0  0  0  0  0  0  0  0  0  0  0
   20.1084   20.3591   26.1113 C   0  0  0  0  0  0  0  0  0  0  0  0
   20.2396   20.6064   27.1671 H   0  0  0  0  0  0  0  0  0  0  0  0
   20.6147   21.1033   25.4928 H   0  0  0  0  0  0  0  0  0  0  0  0
   19.0440   20.3377   25.8692 H   0  0  0  0  0  0  0  0  0  0  0  0
  1  2  1  0  0  0  0
  1  3  1  0  0  0  0
  1  4  1  0  0  0  0
  4  5  1  0  0  0  0
  4  6  1  0  0  0  0
  4  7  1  0  0  0  0
  7  8  1  0  0  0  0
  7  9  1  0  0  0  0
  7 10  1  0  0  0  0
 10 11  1  0  0  0  0
 10 12  1  0  0  0  0
 10 13  1  0  0  0  0
 13 14  1  0  0  0  0
 13 15  1  0  0  0  0
 13 16  1  0  0  0  0
 16 17  1  0  0  0  0
 16 18  1  0  0  0  0
 16 19  1  0  0  0  0
 19 20  1  0  0  0  0
 19 21  1  0  0  0  0
 19 22  1  0  0  0  0
  1 23  1  0  0  0  0
 23 24  1  0  0  0  0
 23 25  1  0  0  0  0
 23 26  1  0  0  0  0
M  END
> <VM2 Rank>
154

> <Conf_Id>
1601

> <Probability>
0.01

> <Sum Probability>
99.70

> <Delta G>
3.751

> <G>
79.217

> <E>
46.083

> <-TS>
33.135

> <U+W>
24.621

> <U>
74.630

> <W>
-50.010

> <W(PB)>
-52.190

> <W(SA)>
2.180

> <Valence>
4.879

> <Coulomb>
69.648

> <VdW>
0.103

> <VdW6>
-8.910

> <VdW12>
9.013

> <Bond>
0.274

> <Angle>
1.756

> <Pdih>
2.849

> <Idih>
0.000

> <Tether>
0.000

$$$$
VeraChem MOL file


 26 25  0  0  0  0  0  0  0  0999 V2000     
   19.7290   18.9033   25.9326 N   0  3  0  0  0  0  0  0  0  0  0  0
   20.4444   18.2194   26.2221 H   0  0  0  0  0  0  0  0  0  0  0  0
   19.0157   18.8716   26.6780 H   0  0  0  0  0  0  0  0  0  0  0  0
   19.0946   18.4788   24.6168 C   0  0  0  0  0  0  0  0  0  0  0  0
   18.6220   19.3519   24.1608 H   0  0  0  0  0  0  0  0  0  0  0  0
   18.3031   17.7694   24.8715 H   0  0  0  0  0  0  0  0  0  0  0  0
   20.0434   17.7853   23.6118 C   0  0  0  0  0  0  0  0  0  0  0  0
   20.5467   16.9483   24.1132 H   0  0  0  0  0  0  0  0  0  0  0  0
   19.4341   17.3306   22.8205 H   0  0  0  0  0  0  0  0  0  0  0  0
   21.1081   18.7063   22.9619 C   0  0  0  0  0  0  0  0  0  0  0  0
   21.6985   18.1157   22.2489 H   0  0  0  0  0  0  0  0  0  0  0  0
   21.8256   19.0284   23.7271 H   0  0  0  0  0  0  0  0  0  0  0  0
   20.5355   19.9571   22.2414 C   0  0  0  0  0  0  0  0  0  0  0  0
   20.0686   20.6235   22.9780 H   0  0  0  0  0  0  0  0  0  0  0  0
   21.3707   20.5287   21.8138 H   0  0  0  0  0  0  0  0  0  0  0  0
   19.5081   19.6584   21.1200 C   0  0  0  0  0  0  0  0  0  0  0  0
   19.1627   20.6128   20.6988 H   0  0  0  0  0  0  0  0  0  0  0  0
   18.6160   19.1757   21.5410 H   0  0  0  0  0  0  0  0  0  0  0  0
   20.0813   18.7896   19.9773 C   0  0  0  0  0  0  0  0  0  0  0  0
   20.9838   19.2454   19.5499 H   0  0  0  0  0  0  0  0  0  0  0  0
   19.3454   18.6815   19.1702 H   0  0  0  0  0  0  0  0  0  0  0  0
   20.3378   17.7821   20.3273 H   0  0  0  0  0  0  0  0  0  0  0  0
   20.3079   20.3112   25.8552 C   0  0  0  0  0  0  0  0  0  0  0  0
   20.7125   20.5839   26.8325 H   0  0  0  0  0  0  0  0  0  0  0  0
   21.1030   20.3414   25.1097 H   0  0  0  0  0  0  0  0  0  0  0  0
   19.5149   21.0091   25.5784 H   0  0  0  0  0  0  0  0  0  0  0  0
  1  2  1  0  0  0  0
  1  3  1  0  0  0  0
  1  4  1  0  0  0  0
  4  5  1  0  0  0  0
  4  6  1  0  0  0  0
  4  7  1  0  0  0  0
  7  8  1  0  0  0  0
  7  9  1  0  0  0  0
  7 10  1  0  0  0  0
 10 11  1  0  0  0  0
 10 12  1  0  0  0  0
 10 13  1  0  0  0  0
 13 14  1  0  0  0  0
 13 15  1  0  0  0  0
 13 16  1  0  0  0  0
 16 17  1  0  0  0  0
 16 18  1  0  0  0  0
 16 19  1  0  0  0  0
 19 20  1  0  0  0  0
 19 21  1  0  0  0  0
 19 22  1  0  0  0  0
  1 23  1  0  0  0  0
 23 24  1  0  0  0  0
 23 25  1  0  0  0  0
 23 26  1  0  0  0  0
M  END
> <VM2 Rank>
155

> <Conf_Id>
254

> <Probability>
0.01

> <Sum Probability>
99.72

> <Delta G>
3.753

> <G>
79.220

> <E>
45.809

> <-TS>
33.411

> <U+W>
24.347

> <U>
74.535

> <W>
-50.187

> <W(PB)>
-52.346

> <W(SA)>
2.159

> <Valence>
4.948

> <Coulomb>
69.619

> <VdW>
-0.032

> <VdW6>
-9.810

> <VdW12>
9.778

> <Bond>
0.300

> <Angle>
1.880

> <Pdih>
2.768

> <Idih>
0.000

> <Tether>
0.000

$$$$
VeraChem MOL file


 26 25  0  0  0  0  0  0  0  0999 V2000     
   20.2857   19.1291   25.9330 N   0  3  0  0  0  0  0  0  0  0  0  0
   20.9710   19.8213   25.5948 H   0  0  0  0  0  0  0  0  0  0  0  0
   20.8279   18.2712   26.1195 H   0  0  0  0  0  0  0  0  0  0  0  0
   19.2420   18.8647   24.8649 C   0  0  0  0  0  0  0  0  0  0  0  0
   18.6971   19.7954   24.6881 H   0  0  0  0  0  0  0  0  0  0  0  0
   18.5398   18.1292   25.2656 H   0  0  0  0  0  0  0  0  0  0  0  0
   19.8234   18.3441   23.5356 C   0  0  0  0  0  0  0  0  0  0  0  0
   20.3746   17.4123   23.7190 H   0  0  0  0  0  0  0  0  0  0  0  0
   18.9883   18.0815   22.8767 H   0  0  0  0  0  0  0  0  0  0  0  0
   20.7493   19.3769   22.8434 C   0  0  0  0  0  0  0  0  0  0  0  0
   21.6171   19.5578   23.4915 H   0  0  0  0  0  0  0  0  0  0  0  0
   20.2367   20.3437   22.7436 H   0  0  0  0  0  0  0  0  0  0  0  0
   21.2697   18.9064   21.4599 C   0  0  0  0  0  0  0  0  0  0  0  0
   22.2978   19.2744   21.3376 H   0  0  0  0  0  0  0  0  0  0  0  0
   21.3432   17.8105   21.4320 H   0  0  0  0  0  0  0  0  0  0  0  0
   20.4459   19.4166   20.2497 C   0  0  0  0  0  0  0  0  0  0  0  0
   20.9422   19.0865   19.3263 H   0  0  0  0  0  0  0  0  0  0  0  0
   20.4647   20.5152   20.2282 H   0  0  0  0  0  0  0  0  0  0  0  0
   18.9805   18.9291   20.2251 C   0  0  0  0  0  0  0  0  0  0  0  0
   18.4946   19.2229   19.2857 H   0  0  0  0  0  0  0  0  0  0  0  0
   18.3998   19.3694   21.0450 H   0  0  0  0  0  0  0  0  0  0  0  0
   18.9250   17.8357   20.3036 H   0  0  0  0  0  0  0  0  0  0  0  0
   19.6117   19.6232   27.2054 C   0  0  0  0  0  0  0  0  0  0  0  0
   18.9147   18.8614   27.5616 H   0  0  0  0  0  0  0  0  0  0  0  0
   20.3738   19.8100   27.9652 H   0  0  0  0  0  0  0  0  0  0  0  0
   19.0712   20.5475   26.9898 H   0  0  0  0  0  0  0  0  0  0  0  0
  1  2  1  0  0  0  0
  1  3  1  0  0  0  0
  1  4  1  0  0  0  0
  4  5  1  0  0  0  0
  4  6  1  0  0  0  0
  4  7  1  0  0  0  0
  7  8  1  0  0  0  0
  7  9  1  0  0  0  0
  7 10  1  0  0  0  0
 10 11  1  0  0  0  0
 10 12  1  0  0  0  0
 10 13  1  0  0  0  0
 13 14  1  0  0  0  0
 13 15  1  0  0  0  0
 13 16  1  0  0  0  0
 16 17  1  0  0  0  0
 16 18  1  0  0  0  0
 16 19  1  0  0  0  0
 19 20  1  0  0  0  0
 19 21  1  0  0  0  0
 19 22  1  0  0  0  0
  1 23  1  0  0  0  0
 23 24  1  0  0  0  0
 23 25  1  0  0  0  0
 23 26  1  0  0  0  0
M  END
> <VM2 Rank>
156

> <Conf_Id>
427

> <Probability>
0.01

> <Sum Probability>
99.73

> <Delta G>
3.796

> <G>
79.262

> <E>
46.644

> <-TS>
32.619

> <U+W>
25.182

> <U>
74.517

> <W>
-49.335

> <W(PB)>
-51.569

> <W(SA)>
2.234

> <Valence>
4.842

> <Coulomb>
69.333

> <VdW>
0.342

> <VdW6>
-7.369

> <VdW12>
7.711

> <Bond>
0.232

> <Angle>
1.153

> <Pdih>
3.457

> <Idih>
0.000

> <Tether>
0.000

$$$$
VeraChem MOL file


 26 25  0  0  0  0  0  0  0  0999 V2000     
   20.6316   18.9884   25.4941 N   0  3  0  0  0  0  0  0  0  0  0  0
   21.2135   19.2965   24.7022 H   0  0  0  0  0  0  0  0  0  0  0  0
   20.9512   18.0326   25.7159 H   0  0  0  0  0  0  0  0  0  0  0  0
   19.1689   18.9676   25.0929 C   0  0  0  0  0  0  0  0  0  0  0  0
   18.8446   19.9948   24.9085 H   0  0  0  0  0  0  0  0  0  0  0  0
   18.6111   18.5845   25.9512 H   0  0  0  0  0  0  0  0  0  0  0  0
   18.8596   18.0918   23.8604 C   0  0  0  0  0  0  0  0  0  0  0  0
   19.4401   17.1608   23.9044 H   0  0  0  0  0  0  0  0  0  0  0  0
   17.8051   17.7915   23.9201 H   0  0  0  0  0  0  0  0  0  0  0  0
   19.0748   18.7988   22.4973 C   0  0  0  0  0  0  0  0  0  0  0  0
   18.4262   19.6839   22.4395 H   0  0  0  0  0  0  0  0  0  0  0  0
   18.7305   18.1157   21.7105 H   0  0  0  0  0  0  0  0  0  0  0  0
   20.5404   19.2160   22.2156 C   0  0  0  0  0  0  0  0  0  0  0  0
   20.8483   19.9719   22.9483 H   0  0  0  0  0  0  0  0  0  0  0  0
   21.2076   18.3528   22.3458 H   0  0  0  0  0  0  0  0  0  0  0  0
   20.7490   19.8200   20.8053 C   0  0  0  0  0  0  0  0  0  0  0  0
   21.7684   20.2263   20.7448 H   0  0  0  0  0  0  0  0  0  0  0  0
   20.0706   20.6726   20.6608 H   0  0  0  0  0  0  0  0  0  0  0  0
   20.5563   18.7995   19.6601 C   0  0  0  0  0  0  0  0  0  0  0  0
   20.8154   19.2532   18.6947 H   0  0  0  0  0  0  0  0  0  0  0  0
   19.5166   18.4568   19.5925 H   0  0  0  0  0  0  0  0  0  0  0  0
   21.1999   17.9215   19.8006 H   0  0  0  0  0  0  0  0  0  0  0  0
   20.8275   19.9079   26.6913 C   0  0  0  0  0  0  0  0  0  0  0  0
   20.5122   20.9186   26.4233 H   0  0  0  0  0  0  0  0  0  0  0  0
   20.2266   19.5421   27.5269 H   0  0  0  0  0  0  0  0  0  0  0  0
   21.8835   19.9125   26.9707 H   0  0  0  0  0  0  0  0  0  0  0  0
  1  2  1  0  0  0  0
  1  3  1  0  0  0  0
  1  4  1  0  0  0  0
  4  5  1  0  0  0  0
  4  6  1  0  0  0  0
  4  7  1  0  0  0  0
  7  8  1  0  0  0  0
  7  9  1  0  0  0  0
  7 10  1  0  0  0  0
 10 11  1  0  0  0  0
 10 12  1  0  0  0  0
 10 13  1  0  0  0  0
 13 14  1  0  0  0  0
 13 15  1  0  0  0  0
 13 16  1  0  0  0  0
 16 17  1  0  0  0  0
 16 18  1  0  0  0  0
 16 19  1  0  0  0  0
 19 20  1  0  0  0  0
 19 21  1  0  0  0  0
 19 22  1  0  0  0  0
  1 23  1  0  0  0  0
 23 24  1  0  0  0  0
 23 25  1  0  0  0  0
 23 26  1  0  0  0  0
M  END
> <VM2 Rank>
157

> <Conf_Id>
519

> <Probability>
0.01

> <Sum Probability>
99.74

> <Delta G>
3.818

> <G>
79.285

> <E>
46.910

> <-TS>
32.375

> <U+W>
25.448

> <U>
74.712

> <W>
-49.264

> <W(PB)>
-51.536

> <W(SA)>
2.272

> <Valence>
4.001

> <Coulomb>
70.536

> <VdW>
0.175

> <VdW6>
-7.477

> <VdW12>
7.652

> <Bond>
0.220

> <Angle>
1.251

> <Pdih>
2.531

> <Idih>
0.000

> <Tether>
0.000

$$$$
VeraChem MOL file


 26 25  0  0  0  0  0  0  0  0999 V2000     
   20.5173   19.3864   25.7251 N   0  3  0  0  0  0  0  0  0  0  0  0
   20.3357   20.3472   25.3981 H   0  0  0  0  0  0  0  0  0  0  0  0
   21.5056   19.1981   25.4961 H   0  0  0  0  0  0  0  0  0  0  0  0
   19.6169   18.4092   24.9943 C   0  0  0  0  0  0  0  0  0  0  0  0
   18.5819   18.6452   25.2544 H   0  0  0  0  0  0  0  0  0  0  0  0
   19.8431   17.4078   25.3695 H   0  0  0  0  0  0  0  0  0  0  0  0
   19.7846   18.4314   23.4623 C   0  0  0  0  0  0  0  0  0  0  0  0
   20.8263   18.1928   23.2144 H   0  0  0  0  0  0  0  0  0  0  0  0
   19.1618   17.6357   23.0327 H   0  0  0  0  0  0  0  0  0  0  0  0
   19.3850   19.7911   22.8400 C   0  0  0  0  0  0  0  0  0  0  0  0
   20.0875   20.5700   23.1655 H   0  0  0  0  0  0  0  0  0  0  0  0
   18.3998   20.0843   23.2289 H   0  0  0  0  0  0  0  0  0  0  0  0
   19.3132   19.7884   21.2909 C   0  0  0  0  0  0  0  0  0  0  0  0
   18.5401   19.0866   20.9487 H   0  0  0  0  0  0  0  0  0  0  0  0
   18.9688   20.7830   20.9752 H   0  0  0  0  0  0  0  0  0  0  0  0
   20.6581   19.4958   20.5764 C   0  0  0  0  0  0  0  0  0  0  0  0
   21.5006   19.8450   21.1894 H   0  0  0  0  0  0  0  0  0  0  0  0
   20.6958   20.0844   19.6490 H   0  0  0  0  0  0  0  0  0  0  0  0
   20.8463   18.0069   20.2017 C   0  0  0  0  0  0  0  0  0  0  0  0
   20.8531   17.3562   21.0827 H   0  0  0  0  0  0  0  0  0  0  0  0
   21.7983   17.8615   19.6750 H   0  0  0  0  0  0  0  0  0  0  0  0
   20.0430   17.6658   19.5359 H   0  0  0  0  0  0  0  0  0  0  0  0
   20.2867   19.2809   27.2262 C   0  0  0  0  0  0  0  0  0  0  0  0
   20.5151   18.2644   27.5540 H   0  0  0  0  0  0  0  0  0  0  0  0
   20.9401   19.9897   27.7398 H   0  0  0  0  0  0  0  0  0  0  0  0
   19.2429   19.5150   27.4465 H   0  0  0  0  0  0  0  0  0  0  0  0
  1  2  1  0  0  0  0
  1  3  1  0  0  0  0
  1  4  1  0  0  0  0
  4  5  1  0  0  0  0
  4  6  1  0  0  0  0
  4  7  1  0  0  0  0
  7  8  1  0  0  0  0
  7  9  1  0  0  0  0
  7 10  1  0  0  0  0
 10 11  1  0  0  0  0
 10 12  1  0  0  0  0
 10 13  1  0  0  0  0
 13 14  1  0  0  0  0
 13 15  1  0  0  0  0
 13 16  1  0  0  0  0
 16 17  1  0  0  0  0
 16 18  1  0  0  0  0
 16 19  1  0  0  0  0
 19 20  1  0  0  0  0
 19 21  1  0  0  0  0
 19 22  1  0  0  0  0
  1 23  1  0  0  0  0
 23 24  1  0  0  0  0
 23 25  1  0  0  0  0
 23 26  1  0  0  0  0
M  END
> <VM2 Rank>
158

> <Conf_Id>
284

> <Probability>
0.01

> <Sum Probability>
99.75

> <Delta G>
3.831

> <G>
79.298

> <E>
46.712

> <-TS>
32.586

> <U+W>
25.250

> <U>
74.608

> <W>
-49.357

> <W(PB)>
-51.611

> <W(SA)>
2.254

> <Valence>
4.823

> <Coulomb>
69.470

> <VdW>
0.315

> <VdW6>
-7.375

> <VdW12>
7.690

> <Bond>
0.227

> <Angle>
1.209

> <Pdih>
3.387

> <Idih>
0.000

> <Tether>
0.000

$$$$
VeraChem MOL file


 26 25  0  0  0  0  0  0  0  0999 V2000     
   19.6255   19.0614   25.9097 N   0  3  0  0  0  0  0  0  0  0  0  0
   19.2564   18.1102   26.0638 H   0  0  0  0  0  0  0  0  0  0  0  0
   18.8396   19.6029   25.5194 H   0  0  0  0  0  0  0  0  0  0  0  0
   20.7732   19.0215   24.9192 C   0  0  0  0  0  0  0  0  0  0  0  0
   21.5799   18.4404   25.3733 H   0  0  0  0  0  0  0  0  0  0  0  0
   21.1295   20.0445   24.7744 H   0  0  0  0  0  0  0  0  0  0  0  0
   20.4038   18.4036   23.5562 C   0  0  0  0  0  0  0  0  0  0  0  0
   21.3188   18.3201   22.9592 H   0  0  0  0  0  0  0  0  0  0  0  0
   20.0409   17.3783   23.7071 H   0  0  0  0  0  0  0  0  0  0  0  0
   19.3390   19.2327   22.7935 C   0  0  0  0  0  0  0  0  0  0  0  0
   19.6511   20.2840   22.7228 H   0  0  0  0  0  0  0  0  0  0  0  0
   18.4093   19.2298   23.3779 H   0  0  0  0  0  0  0  0  0  0  0  0
   19.0226   18.6766   21.3803 C   0  0  0  0  0  0  0  0  0  0  0  0
   19.1743   17.5887   21.3553 H   0  0  0  0  0  0  0  0  0  0  0  0
   17.9523   18.8299   21.1837 H   0  0  0  0  0  0  0  0  0  0  0  0
   19.8088   19.3514   20.2271 C   0  0  0  0  0  0  0  0  0  0  0  0
   19.5698   20.4236   20.1964 H   0  0  0  0  0  0  0  0  0  0  0  0
   19.4553   18.9344   19.2736 H   0  0  0  0  0  0  0  0  0  0  0  0
   21.3405   19.1704   20.3085 C   0  0  0  0  0  0  0  0  0  0  0  0
   21.8215   19.5629   19.4033 H   0  0  0  0  0  0  0  0  0  0  0  0
   21.6102   18.1102   20.3986 H   0  0  0  0  0  0  0  0  0  0  0  0
   21.7614   19.7131   21.1638 H   0  0  0  0  0  0  0  0  0  0  0  0
   20.0947   19.6725   27.2226 C   0  0  0  0  0  0  0  0  0  0  0  0
   20.4505   20.6886   27.0389 H   0  0  0  0  0  0  0  0  0  0  0  0
   19.2593   19.6956   27.9259 H   0  0  0  0  0  0  0  0  0  0  0  0
   20.9048   19.0650   27.6321 H   0  0  0  0  0  0  0  0  0  0  0  0
  1  2  1  0  0  0  0
  1  3  1  0  0  0  0
  1  4  1  0  0  0  0
  4  5  1  0  0  0  0
  4  6  1  0  0  0  0
  4  7  1  0  0  0  0
  7  8  1  0  0  0  0
  7  9  1  0  0  0  0
  7 10  1  0  0  0  0
 10 11  1  0  0  0  0
 10 12  1  0  0  0  0
 10 13  1  0  0  0  0
 13 14  1  0  0  0  0
 13 15  1  0  0  0  0
 13 16  1  0  0  0  0
 16 17  1  0  0  0  0
 16 18  1  0  0  0  0
 16 19  1  0  0  0  0
 19 20  1  0  0  0  0
 19 21  1  0  0  0  0
 19 22  1  0  0  0  0
  1 23  1  0  0  0  0
 23 24  1  0  0  0  0
 23 25  1  0  0  0  0
 23 26  1  0  0  0  0
M  END
> <VM2 Rank>
159

> <Conf_Id>
423

> <Probability>
0.01

> <Sum Probability>
99.76

> <Delta G>
3.837

> <G>
79.303

> <E>
46.685

> <-TS>
32.618

> <U+W>
25.223

> <U>
74.516

> <W>
-49.294

> <W(PB)>
-51.561

> <W(SA)>
2.267

> <Valence>
4.842

> <Coulomb>
69.332

> <VdW>
0.342

> <VdW6>
-7.369

> <VdW12>
7.710

> <Bond>
0.232

> <Angle>
1.153

> <Pdih>
3.457

> <Idih>
0.000

> <Tether>
0.000

$$$$
VeraChem MOL file


 26 25  0  0  0  0  0  0  0  0999 V2000     
   19.1343   19.6803   25.2844 N   0  3  0  0  0  0  0  0  0  0  0  0
   18.1213   19.8018   25.4416 H   0  0  0  0  0  0  0  0  0  0  0  0
   19.4133   20.4817   24.6995 H   0  0  0  0  0  0  0  0  0  0  0  0
   19.3810   18.3775   24.5393 C   0  0  0  0  0  0  0  0  0  0  0  0
   18.7081   18.3640   23.6812 H   0  0  0  0  0  0  0  0  0  0  0  0
   19.0857   17.5608   25.2029 H   0  0  0  0  0  0  0  0  0  0  0  0
   20.8360   18.1489   24.0652 C   0  0  0  0  0  0  0  0  0  0  0  0
   21.4824   18.0911   24.9504 H   0  0  0  0  0  0  0  0  0  0  0  0
   20.9087   17.1653   23.5828 H   0  0  0  0  0  0  0  0  0  0  0  0
   21.3937   19.2394   23.1110 C   0  0  0  0  0  0  0  0  0  0  0  0
   22.4900   19.2166   23.1820 H   0  0  0  0  0  0  0  0  0  0  0  0
   21.1024   20.2405   23.4537 H   0  0  0  0  0  0  0  0  0  0  0  0
   21.0258   19.0613   21.6147 C   0  0  0  0  0  0  0  0  0  0  0  0
   21.5574   19.8332   21.0412 H   0  0  0  0  0  0  0  0  0  0  0  0
   21.4104   18.0973   21.2542 H   0  0  0  0  0  0  0  0  0  0  0  0
   19.5149   19.1607   21.3018 C   0  0  0  0  0  0  0  0  0  0  0  0
   19.0904   20.0545   21.7797 H   0  0  0  0  0  0  0  0  0  0  0  0
   18.9901   18.2893   21.7128 H   0  0  0  0  0  0  0  0  0  0  0  0
   19.2511   19.2193   19.7819 C   0  0  0  0  0  0  0  0  0  0  0  0
   18.1741   19.2757   19.5774 H   0  0  0  0  0  0  0  0  0  0  0  0
   19.6432   18.3259   19.2786 H   0  0  0  0  0  0  0  0  0  0  0  0
   19.7251   20.1012   19.3316 H   0  0  0  0  0  0  0  0  0  0  0  0
   19.8711   19.7026   26.6186 C   0  0  0  0  0  0  0  0  0  0  0  0
   20.9461   19.6388   26.4385 H   0  0  0  0  0  0  0  0  0  0  0  0
   19.6407   20.6352   27.1384 H   0  0  0  0  0  0  0  0  0  0  0  0
   19.5449   18.8533   27.2228 H   0  0  0  0  0  0  0  0  0  0  0  0
  1  2  1  0  0  0  0
  1  3  1  0  0  0  0
  1  4  1  0  0  0  0
  4  5  1  0  0  0  0
  4  6  1  0  0  0  0
  4  7  1  0  0  0  0
  7  8  1  0  0  0  0
  7  9  1  0  0  0  0
  7 10  1  0  0  0  0
 10 11  1  0  0  0  0
 10 12  1  0  0  0  0
 10 13  1  0  0  0  0
 13 14  1  0  0  0  0
 13 15  1  0  0  0  0
 13 16  1  0  0  0  0
 16 17  1  0  0  0  0
 16 18  1  0  0  0  0
 16 19  1  0  0  0  0
 19 20  1  0  0  0  0
 19 21  1  0  0  0  0
 19 22  1  0  0  0  0
  1 23  1  0  0  0  0
 23 24  1  0  0  0  0
 23 25  1  0  0  0  0
 23 26  1  0  0  0  0
M  END
> <VM2 Rank>
160

> <Conf_Id>
1058

> <Probability>
0.01

> <Sum Probability>
99.77

> <Delta G>
3.841

> <G>
79.307

> <E>
46.718

> <-TS>
32.589

> <U+W>
25.257

> <U>
75.226

> <W>
-49.969

> <W(PB)>
-52.203

> <W(SA)>
2.234

> <Valence>
4.592

> <Coulomb>
70.317

> <VdW>
0.317

> <VdW6>
-8.478

> <VdW12>
8.795

> <Bond>
0.276

> <Angle>
1.616

> <Pdih>
2.700

> <Idih>
0.000

> <Tether>
0.000

$$$$
VeraChem MOL file


 26 25  0  0  0  0  0  0  0  0999 V2000     
   19.3749   19.6970   25.4717 N   0  3  0  0  0  0  0  0  0  0  0  0
   18.8470   19.8464   24.6006 H   0  0  0  0  0  0  0  0  0  0  0  0
   19.1889   20.5330   26.0483 H   0  0  0  0  0  0  0  0  0  0  0  0
   20.8641   19.6056   25.1767 C   0  0  0  0  0  0  0  0  0  0  0  0
   21.3592   19.3698   26.1220 H   0  0  0  0  0  0  0  0  0  0  0  0
   21.2054   20.5942   24.8594 H   0  0  0  0  0  0  0  0  0  0  0  0
   21.2787   18.5618   24.1136 C   0  0  0  0  0  0  0  0  0  0  0  0
   22.3429   18.3395   24.2682 H   0  0  0  0  0  0  0  0  0  0  0  0
   20.7516   17.6136   24.2777 H   0  0  0  0  0  0  0  0  0  0  0  0
   21.1032   19.0264   22.6449 C   0  0  0  0  0  0  0  0  0  0  0  0
   21.5529   18.2609   22.0001 H   0  0  0  0  0  0  0  0  0  0  0  0
   21.6832   19.9448   22.4792 H   0  0  0  0  0  0  0  0  0  0  0  0
   19.6319   19.2599   22.2183 C   0  0  0  0  0  0  0  0  0  0  0  0
   19.0244   18.3791   22.4685 H   0  0  0  0  0  0  0  0  0  0  0  0
   19.2204   20.1028   22.7858 H   0  0  0  0  0  0  0  0  0  0  0  0
   19.4706   19.5878   20.7137 C   0  0  0  0  0  0  0  0  0  0  0  0
   20.0949   20.4534   20.4515 H   0  0  0  0  0  0  0  0  0  0  0  0
   18.4308   19.8935   20.5308 H   0  0  0  0  0  0  0  0  0  0  0  0
   19.8059   18.4005   19.7818 C   0  0  0  0  0  0  0  0  0  0  0  0
   19.5764   18.6550   18.7390 H   0  0  0  0  0  0  0  0  0  0  0  0
   19.2179   17.5121   20.0465 H   0  0  0  0  0  0  0  0  0  0  0  0
   20.8691   18.1356   19.8280 H   0  0  0  0  0  0  0  0  0  0  0  0
   18.8787   18.4510   26.1963 C   0  0  0  0  0  0  0  0  0  0  0  0
   17.8174   18.5703   26.4257 H   0  0  0  0  0  0  0  0  0  0  0  0
   19.0194   17.5784   25.5556 H   0  0  0  0  0  0  0  0  0  0  0  0
   19.4438   18.3260   27.1225 H   0  0  0  0  0  0  0  0  0  0  0  0
  1  2  1  0  0  0  0
  1  3  1  0  0  0  0
  1  4  1  0  0  0  0
  4  5  1  0  0  0  0
  4  6  1  0  0  0  0
  4  7  1  0  0  0  0
  7  8  1  0  0  0  0
  7  9  1  0  0  0  0
  7 10  1  0  0  0  0
 10 11  1  0  0  0  0
 10 12  1  0  0  0  0
 10 13  1  0  0  0  0
 13 14  1  0  0  0  0
 13 15  1  0  0  0  0
 13 16  1  0  0  0  0
 16 17  1  0  0  0  0
 16 18  1  0  0  0  0
 16 19  1  0  0  0  0
 19 20  1  0  0  0  0
 19 21  1  0  0  0  0
 19 22  1  0  0  0  0
  1 23  1  0  0  0  0
 23 24  1  0  0  0  0
 23 25  1  0  0  0  0
 23 26  1  0  0  0  0
M  END
> <VM2 Rank>
161

> <Conf_Id>
1103

> <Probability>
0.01

> <Sum Probability>
99.78

> <Delta G>
3.848

> <G>
79.315

> <E>
46.924

> <-TS>
32.391

> <U+W>
25.462

> <U>
75.175

> <W>
-49.713

> <W(PB)>
-51.954

> <W(SA)>
2.241

> <Valence>
4.303

> <Coulomb>
70.504

> <VdW>
0.368

> <VdW6>
-8.223

> <VdW12>
8.590

> <Bond>
0.267

> <Angle>
1.486

> <Pdih>
2.551

> <Idih>
0.000

> <Tether>
0.000

$$$$
VeraChem MOL file


 26 25  0  0  0  0  0  0  0  0999 V2000     
   19.3617   19.2684   25.6841 N   0  3  0  0  0  0  0  0  0  0  0  0
   18.4503   18.8861   25.3878 H   0  0  0  0  0  0  0  0  0  0  0  0
   19.3681   20.2484   25.3636 H   0  0  0  0  0  0  0  0  0  0  0  0
   20.4898   18.4982   25.0253 C   0  0  0  0  0  0  0  0  0  0  0  0
   20.4447   17.4692   25.3908 H   0  0  0  0  0  0  0  0  0  0  0  0
   21.4350   18.9365   25.3555 H   0  0  0  0  0  0  0  0  0  0  0  0
   20.4289   18.4971   23.4852 C   0  0  0  0  0  0  0  0  0  0  0  0
   21.2280   17.8465   23.1060 H   0  0  0  0  0  0  0  0  0  0  0  0
   19.4767   18.0550   23.1666 H   0  0  0  0  0  0  0  0  0  0  0  0
   20.5885   19.9139   22.8826 C   0  0  0  0  0  0  0  0  0  0  0  0
   21.4645   20.3970   23.3375 H   0  0  0  0  0  0  0  0  0  0  0  0
   19.7223   20.5326   23.1525 H   0  0  0  0  0  0  0  0  0  0  0  0
   20.7677   19.9367   21.3424 C   0  0  0  0  0  0  0  0  0  0  0  0
   20.9258   20.9826   21.0445 H   0  0  0  0  0  0  0  0  0  0  0  0
   21.6885   19.4077   21.0603 H   0  0  0  0  0  0  0  0  0  0  0  0
   19.5629   19.3841   20.5376 C   0  0  0  0  0  0  0  0  0  0  0  0
   19.4723   19.9596   19.6056 H   0  0  0  0  0  0  0  0  0  0  0  0
   18.6264   19.5520   21.0875 H   0  0  0  0  0  0  0  0  0  0  0  0
   19.7053   17.8906   20.1614 C   0  0  0  0  0  0  0  0  0  0  0  0
   20.6056   17.7231   19.5560 H   0  0  0  0  0  0  0  0  0  0  0  0
   18.8415   17.5600   19.5702 H   0  0  0  0  0  0  0  0  0  0  0  0
   19.7680   17.2455   21.0444 H   0  0  0  0  0  0  0  0  0  0  0  0
   19.5031   19.2011   27.1984 C   0  0  0  0  0  0  0  0  0  0  0  0
   18.6856   19.7596   27.6597 H   0  0  0  0  0  0  0  0  0  0  0  0
   19.4623   18.1571   27.5167 H   0  0  0  0  0  0  0  0  0  0  0  0
   20.4601   19.6396   27.4895 H   0  0  0  0  0  0  0  0  0  0  0  0
  1  2  1  0  0  0  0
  1  3  1  0  0  0  0
  1  4  1  0  0  0  0
  4  5  1  0  0  0  0
  4  6  1  0  0  0  0
  4  7  1  0  0  0  0
  7  8  1  0  0  0  0
  7  9  1  0  0  0  0
  7 10  1  0  0  0  0
 10 11  1  0  0  0  0
 10 12  1  0  0  0  0
 10 13  1  0  0  0  0
 13 14  1  0  0  0  0
 13 15  1  0  0  0  0
 13 16  1  0  0  0  0
 16 17  1  0  0  0  0
 16 18  1  0  0  0  0
 16 19  1  0  0  0  0
 19 20  1  0  0  0  0
 19 21  1  0  0  0  0
 19 22  1  0  0  0  0
  1 23  1  0  0  0  0
 23 24  1  0  0  0  0
 23 25  1  0  0  0  0
 23 26  1  0  0  0  0
M  END
> <VM2 Rank>
162

> <Conf_Id>
228

> <Probability>
0.01

> <Sum Probability>
99.79

> <Delta G>
3.876

> <G>
79.343

> <E>
46.757

> <-TS>
32.585

> <U+W>
25.295

> <U>
74.609

> <W>
-49.313

> <W(PB)>
-51.565

> <W(SA)>
2.252

> <Valence>
4.823

> <Coulomb>
69.470

> <VdW>
0.315

> <VdW6>
-7.375

> <VdW12>
7.690

> <Bond>
0.227

> <Angle>
1.209

> <Pdih>
3.386

> <Idih>
0.000

> <Tether>
0.000

$$$$
VeraChem MOL file


 26 25  0  0  0  0  0  0  0  0999 V2000     
   19.7068   18.7421   25.8805 N   0  3  0  0  0  0  0  0  0  0  0  0
   19.7420   17.7133   25.8109 H   0  0  0  0  0  0  0  0  0  0  0  0
   18.7543   19.0064   25.5875 H   0  0  0  0  0  0  0  0  0  0  0  0
   20.7305   19.3632   24.9495 C   0  0  0  0  0  0  0  0  0  0  0  0
   21.7198   19.0570   25.2990 H   0  0  0  0  0  0  0  0  0  0  0  0
   20.6572   20.4496   25.0425 H   0  0  0  0  0  0  0  0  0  0  0  0
   20.5639   18.9563   23.4720 C   0  0  0  0  0  0  0  0  0  0  0  0
   21.4209   19.3562   22.9163 H   0  0  0  0  0  0  0  0  0  0  0  0
   20.6075   17.8626   23.3848 H   0  0  0  0  0  0  0  0  0  0  0  0
   19.2516   19.4907   22.8481 C   0  0  0  0  0  0  0  0  0  0  0  0
   19.2588   20.5893   22.8716 H   0  0  0  0  0  0  0  0  0  0  0  0
   18.3990   19.1782   23.4650 H   0  0  0  0  0  0  0  0  0  0  0  0
   18.9908   19.0091   21.3971 C   0  0  0  0  0  0  0  0  0  0  0  0
   18.8735   17.9169   21.3769 H   0  0  0  0  0  0  0  0  0  0  0  0
   18.0189   19.4156   21.0843 H   0  0  0  0  0  0  0  0  0  0  0  0
   20.0547   19.4536   20.3601 C   0  0  0  0  0  0  0  0  0  0  0  0
   20.5172   20.4015   20.6687 H   0  0  0  0  0  0  0  0  0  0  0  0
   19.5487   19.6616   19.4069 H   0  0  0  0  0  0  0  0  0  0  0  0
   21.1414   18.3843   20.0982 C   0  0  0  0  0  0  0  0  0  0  0  0
   21.8576   18.7410   19.3467 H   0  0  0  0  0  0  0  0  0  0  0  0
   20.6943   17.4570   19.7171 H   0  0  0  0  0  0  0  0  0  0  0  0
   21.7062   18.1381   21.0040 H   0  0  0  0  0  0  0  0  0  0  0  0
   19.9684   19.1907   27.3116 C   0  0  0  0  0  0  0  0  0  0  0  0
   19.8944   20.2790   27.3660 H   0  0  0  0  0  0  0  0  0  0  0  0
   19.2250   18.7369   27.9708 H   0  0  0  0  0  0  0  0  0  0  0  0
   20.9695   18.8724   27.6103 H   0  0  0  0  0  0  0  0  0  0  0  0
  1  2  1  0  0  0  0
  1  3  1  0  0  0  0
  1  4  1  0  0  0  0
  4  5  1  0  0  0  0
  4  6  1  0  0  0  0
  4  7  1  0  0  0  0
  7  8  1  0  0  0  0
  7  9  1  0  0  0  0
  7 10  1  0  0  0  0
 10 11  1  0  0  0  0
 10 12  1  0  0  0  0
 10 13  1  0  0  0  0
 13 14  1  0  0  0  0
 13 15  1  0  0  0  0
 13 16  1  0  0  0  0
 16 17  1  0  0  0  0
 16 18  1  0  0  0  0
 16 19  1  0  0  0  0
 19 20  1  0  0  0  0
 19 21  1  0  0  0  0
 19 22  1  0  0  0  0
  1 23  1  0  0  0  0
 23 24  1  0  0  0  0
 23 25  1  0  0  0  0
 23 26  1  0  0  0  0
M  END
> <VM2 Rank>
163

> <Conf_Id>
73

> <Probability>
0.01

> <Sum Probability>
99.80

> <Delta G>
3.877

> <G>
79.344

> <E>
46.765

> <-TS>
32.579

> <U+W>
25.303

> <U>
74.594

> <W>
-49.291

> <W(PB)>
-51.537

> <W(SA)>
2.246

> <Valence>
4.886

> <Coulomb>
69.331

> <VdW>
0.376

> <VdW6>
-7.329

> <VdW12>
7.706

> <Bond>
0.232

> <Angle>
1.251

> <Pdih>
3.403

> <Idih>
0.000

> <Tether>
0.000

$$$$
VeraChem MOL file


 26 25  0  0  0  0  0  0  0  0999 V2000     
   20.2727   18.8001   25.9006 N   0  3  0  0  0  0  0  0  0  0  0  0
   21.1704   19.2535   25.6731 H   0  0  0  0  0  0  0  0  0  0  0  0
   20.4512   17.7859   25.8361 H   0  0  0  0  0  0  0  0  0  0  0  0
   19.2125   19.2081   24.8957 C   0  0  0  0  0  0  0  0  0  0  0  0
   19.0581   20.2863   24.9858 H   0  0  0  0  0  0  0  0  0  0  0  0
   18.2834   18.7060   25.1773 H   0  0  0  0  0  0  0  0  0  0  0  0
   19.5608   18.8537   23.4364 C   0  0  0  0  0  0  0  0  0  0  0  0
   19.7451   17.7744   23.3543 H   0  0  0  0  0  0  0  0  0  0  0  0
   18.6819   19.0764   22.8193 H   0  0  0  0  0  0  0  0  0  0  0  0
   20.7788   19.6464   22.9022 C   0  0  0  0  0  0  0  0  0  0  0  0
   21.6315   19.5080   23.5796 H   0  0  0  0  0  0  0  0  0  0  0  0
   20.5484   20.7208   22.9173 H   0  0  0  0  0  0  0  0  0  0  0  0
   21.2324   19.2377   21.4766 C   0  0  0  0  0  0  0  0  0  0  0  0
   22.1218   19.8339   21.2298 H   0  0  0  0  0  0  0  0  0  0  0  0
   21.5686   18.1917   21.4725 H   0  0  0  0  0  0  0  0  0  0  0  0
   20.1760   19.4660   20.3644 C   0  0  0  0  0  0  0  0  0  0  0  0
   20.6953   19.7787   19.4476 H   0  0  0  0  0  0  0  0  0  0  0  0
   19.5115   20.2990   20.6330 H   0  0  0  0  0  0  0  0  0  0  0  0
   19.3484   18.2016   20.0345 C   0  0  0  0  0  0  0  0  0  0  0  0
   18.6294   18.4119   19.2321 H   0  0  0  0  0  0  0  0  0  0  0  0
   18.7827   17.8400   20.9002 H   0  0  0  0  0  0  0  0  0  0  0  0
   19.9988   17.3862   19.6923 H   0  0  0  0  0  0  0  0  0  0  0  0
   19.8264   19.1763   27.3066 C   0  0  0  0  0  0  0  0  0  0  0  0
   19.6749   20.2567   27.3582 H   0  0  0  0  0  0  0  0  0  0  0  0
   18.8918   18.6601   27.5368 H   0  0  0  0  0  0  0  0  0  0  0  0
   20.5981   18.8775   28.0195 H   0  0  0  0  0  0  0  0  0  0  0  0
  1  2  1  0  0  0  0
  1  3  1  0  0  0  0
  1  4  1  0  0  0  0
  4  5  1  0  0  0  0
  4  6  1  0  0  0  0
  4  7  1  0  0  0  0
  7  8  1  0  0  0  0
  7  9  1  0  0  0  0
  7 10  1  0  0  0  0
 10 11  1  0  0  0  0
 10 12  1  0  0  0  0
 10 13  1  0  0  0  0
 13 14  1  0  0  0  0
 13 15  1  0  0  0  0
 13 16  1  0  0  0  0
 16 17  1  0  0  0  0
 16 18  1  0  0  0  0
 16 19  1  0  0  0  0
 19 20  1  0  0  0  0
 19 21  1  0  0  0  0
 19 22  1  0  0  0  0
  1 23  1  0  0  0  0
 23 24  1  0  0  0  0
 23 25  1  0  0  0  0
 23 26  1  0  0  0  0
M  END
> <VM2 Rank>
164

> <Conf_Id>
109

> <Probability>
0.01

> <Sum Probability>
99.81

> <Delta G>
3.884

> <G>
79.350

> <E>
46.771

> <-TS>
32.579

> <U+W>
25.309

> <U>
74.594

> <W>
-49.284

> <W(PB)>
-51.538

> <W(SA)>
2.253

> <Valence>
4.886

> <Coulomb>
69.332

> <VdW>
0.376

> <VdW6>
-7.329

> <VdW12>
7.706

> <Bond>
0.232

> <Angle>
1.250

> <Pdih>
3.403

> <Idih>
0.000

> <Tether>
0.000

$$$$
VeraChem MOL file


 26 25  0  0  0  0  0  0  0  0999 V2000     
   19.3468   18.8570   25.4487 N   0  3  0  0  0  0  0  0  0  0  0  0
   19.2123   17.8548   25.6545 H   0  0  0  0  0  0  0  0  0  0  0  0
   18.7714   19.0467   24.6158 H   0  0  0  0  0  0  0  0  0  0  0  0
   20.8079   19.1352   25.1509 C   0  0  0  0  0  0  0  0  0  0  0  0
   21.3702   18.8667   26.0489 H   0  0  0  0  0  0  0  0  0  0  0  0
   20.9298   20.2081   24.9824 H   0  0  0  0  0  0  0  0  0  0  0  0
   21.3733   18.3490   23.9494 C   0  0  0  0  0  0  0  0  0  0  0  0
   22.4600   18.2676   24.0850 H   0  0  0  0  0  0  0  0  0  0  0  0
   20.9914   17.3195   23.9593 H   0  0  0  0  0  0  0  0  0  0  0  0
   21.1156   19.0076   22.5696 C   0  0  0  0  0  0  0  0  0  0  0  0
   21.6452   18.4140   21.8138 H   0  0  0  0  0  0  0  0  0  0  0  0
   21.5740   20.0060   22.5511 H   0  0  0  0  0  0  0  0  0  0  0  0
   19.6192   19.1215   22.1829 C   0  0  0  0  0  0  0  0  0  0  0  0
   19.1332   18.1401   22.2720 H   0  0  0  0  0  0  0  0  0  0  0  0
   19.1141   19.7941   22.8869 H   0  0  0  0  0  0  0  0  0  0  0  0
   19.3921   19.6811   20.7573 C   0  0  0  0  0  0  0  0  0  0  0  0
   19.8920   20.6545   20.6547 H   0  0  0  0  0  0  0  0  0  0  0  0
   18.3182   19.8728   20.6226 H   0  0  0  0  0  0  0  0  0  0  0  0
   19.8674   18.7293   19.6355 C   0  0  0  0  0  0  0  0  0  0  0  0
   20.9571   18.6049   19.6434 H   0  0  0  0  0  0  0  0  0  0  0  0
   19.5901   19.1282   18.6512 H   0  0  0  0  0  0  0  0  0  0  0  0
   19.4068   17.7380   19.7366 H   0  0  0  0  0  0  0  0  0  0  0  0
   18.8857   19.7093   26.6226 C   0  0  0  0  0  0  0  0  0  0  0  0
   19.0081   20.7648   26.3701 H   0  0  0  0  0  0  0  0  0  0  0  0
   17.8337   19.4984   26.8274 H   0  0  0  0  0  0  0  0  0  0  0  0
   19.4882   19.4667   27.5008 H   0  0  0  0  0  0  0  0  0  0  0  0
  1  2  1  0  0  0  0
  1  3  1  0  0  0  0
  1  4  1  0  0  0  0
  4  5  1  0  0  0  0
  4  6  1  0  0  0  0
  4  7  1  0  0  0  0
  7  8  1  0  0  0  0
  7  9  1  0  0  0  0
  7 10  1  0  0  0  0
 10 11  1  0  0  0  0
 10 12  1  0  0  0  0
 10 13  1  0  0  0  0
 13 14  1  0  0  0  0
 13 15  1  0  0  0  0
 13 16  1  0  0  0  0
 16 17  1  0  0  0  0
 16 18  1  0  0  0  0
 16 19  1  0  0  0  0
 19 20  1  0  0  0  0
 19 21  1  0  0  0  0
 19 22  1  0  0  0  0
  1 23  1  0  0  0  0
 23 24  1  0  0  0  0
 23 25  1  0  0  0  0
 23 26  1  0  0  0  0
M  END
> <VM2 Rank>
165

> <Conf_Id>
1253

> <Probability>
0.01

> <Sum Probability>
99.82

> <Delta G>
3.890

> <G>
79.356

> <E>
46.982

> <-TS>
32.375

> <U+W>
25.520

> <U>
74.712

> <W>
-49.192

> <W(PB)>
-51.483

> <W(SA)>
2.291

> <Valence>
4.001

> <Coulomb>
70.536

> <VdW>
0.175

> <VdW6>
-7.476

> <VdW12>
7.651

> <Bond>
0.220

> <Angle>
1.251

> <Pdih>
2.530

> <Idih>
0.000

> <Tether>
0.000

$$$$
VeraChem MOL file


 26 25  0  0  0  0  0  0  0  0999 V2000     
   19.7877   18.4304   25.8903 N   0  3  0  0  0  0  0  0  0  0  0  0
   20.6561   18.0643   26.3108 H   0  0  0  0  0  0  0  0  0  0  0  0
   19.2738   17.6008   25.5553 H   0  0  0  0  0  0  0  0  0  0  0  0
   20.1152   19.3473   24.7290 C   0  0  0  0  0  0  0  0  0  0  0  0
   20.6668   20.2042   25.1240 H   0  0  0  0  0  0  0  0  0  0  0  0
   19.1711   19.7071   24.3140 H   0  0  0  0  0  0  0  0  0  0  0  0
   20.9450   18.6607   23.6267 C   0  0  0  0  0  0  0  0  0  0  0  0
   21.8694   18.2697   24.0720 H   0  0  0  0  0  0  0  0  0  0  0  0
   20.3961   17.7938   23.2429 H   0  0  0  0  0  0  0  0  0  0  0  0
   21.3199   19.6264   22.4737 C   0  0  0  0  0  0  0  0  0  0  0  0
   22.0459   19.1420   21.8063 H   0  0  0  0  0  0  0  0  0  0  0  0
   21.8477   20.4864   22.9089 H   0  0  0  0  0  0  0  0  0  0  0  0
   20.1171   20.1516   21.6424 C   0  0  0  0  0  0  0  0  0  0  0  0
   19.2189   20.2445   22.2661 H   0  0  0  0  0  0  0  0  0  0  0  0
   20.3525   21.1738   21.3151 H   0  0  0  0  0  0  0  0  0  0  0  0
   19.7930   19.3235   20.3727 C   0  0  0  0  0  0  0  0  0  0  0  0
   20.6616   19.3238   19.6994 H   0  0  0  0  0  0  0  0  0  0  0  0
   18.9851   19.8292   19.8254 H   0  0  0  0  0  0  0  0  0  0  0  0
   19.3623   17.8672   20.6533 C   0  0  0  0  0  0  0  0  0  0  0  0
   19.0071   17.3885   19.7316 H   0  0  0  0  0  0  0  0  0  0  0  0
   18.5471   17.8286   21.3873 H   0  0  0  0  0  0  0  0  0  0  0  0
   20.2015   17.2689   21.0283 H   0  0  0  0  0  0  0  0  0  0  0  0
   18.9676   19.1830   26.9289 C   0  0  0  0  0  0  0  0  0  0  0  0
   18.0398   19.5316   26.4701 H   0  0  0  0  0  0  0  0  0  0  0  0
   18.7388   18.5118   27.7597 H   0  0  0  0  0  0  0  0  0  0  0  0
   19.5444   20.0364   27.2923 H   0  0  0  0  0  0  0  0  0  0  0  0
  1  2  1  0  0  0  0
  1  3  1  0  0  0  0
  1  4  1  0  0  0  0
  4  5  1  0  0  0  0
  4  6  1  0  0  0  0
  4  7  1  0  0  0  0
  7  8  1  0  0  0  0
  7  9  1  0  0  0  0
  7 10  1  0  0  0  0
 10 11  1  0  0  0  0
 10 12  1  0  0  0  0
 10 13  1  0  0  0  0
 13 14  1  0  0  0  0
 13 15  1  0  0  0  0
 13 16  1  0  0  0  0
 16 17  1  0  0  0  0
 16 18  1  0  0  0  0
 16 19  1  0  0  0  0
 19 20  1  0  0  0  0
 19 21  1  0  0  0  0
 19 22  1  0  0  0  0
  1 23  1  0  0  0  0
 23 24  1  0  0  0  0
 23 25  1  0  0  0  0
 23 26  1  0  0  0  0
M  END
> <VM2 Rank>
166

> <Conf_Id>
514

> <Probability>
0.01

> <Sum Probability>
99.83

> <Delta G>
3.905

> <G>
79.372

> <E>
46.848

> <-TS>
32.524

> <U+W>
25.386

> <U>
74.853

> <W>
-49.467

> <W(PB)>
-51.720

> <W(SA)>
2.254

> <Valence>
5.100

> <Coulomb>
69.478

> <VdW>
0.275

> <VdW6>
-7.403

> <VdW12>
7.678

> <Bond>
0.247

> <Angle>
1.394

> <Pdih>
3.458

> <Idih>
0.000

> <Tether>
0.000

$$$$
VeraChem MOL file


 26 25  0  0  0  0  0  0  0  0999 V2000     
   20.2559   18.4782   25.9068 N   0  3  0  0  0  0  0  0  0  0  0  0
   20.9489   17.7718   25.6144 H   0  0  0  0  0  0  0  0  0  0  0  0
   19.4521   17.9414   26.2681 H   0  0  0  0  0  0  0  0  0  0  0  0
   19.8321   19.3184   24.7190 C   0  0  0  0  0  0  0  0  0  0  0  0
   20.7108   19.8644   24.3685 H   0  0  0  0  0  0  0  0  0  0  0  0
   19.0927   20.0434   25.0683 H   0  0  0  0  0  0  0  0  0  0  0  0
   19.2373   18.4864   23.5662 C   0  0  0  0  0  0  0  0  0  0  0  0
   19.9753   17.7509   23.2280 H   0  0  0  0  0  0  0  0  0  0  0  0
   18.3819   17.9137   23.9485 H   0  0  0  0  0  0  0  0  0  0  0  0
   18.7568   19.3647   22.3828 C   0  0  0  0  0  0  0  0  0  0  0  0
   18.0371   20.0974   22.7739 H   0  0  0  0  0  0  0  0  0  0  0  0
   18.1921   18.7485   21.6698 H   0  0  0  0  0  0  0  0  0  0  0  0
   19.8841   20.1278   21.6342 C   0  0  0  0  0  0  0  0  0  0  0  0
   19.4706   21.0837   21.2837 H   0  0  0  0  0  0  0  0  0  0  0  0
   20.6990   20.3959   22.3185 H   0  0  0  0  0  0  0  0  0  0  0  0
   20.4570   19.3912   20.3963 C   0  0  0  0  0  0  0  0  0  0  0  0
   21.1824   20.0535   19.9033 H   0  0  0  0  0  0  0  0  0  0  0  0
   19.6556   19.2208   19.6638 H   0  0  0  0  0  0  0  0  0  0  0  0
   21.1522   18.0500   20.7170 C   0  0  0  0  0  0  0  0  0  0  0  0
   21.6606   17.6594   19.8260 H   0  0  0  0  0  0  0  0  0  0  0  0
   20.4269   17.2919   21.0365 H   0  0  0  0  0  0  0  0  0  0  0  0
   21.9048   18.1716   21.5066 H   0  0  0  0  0  0  0  0  0  0  0  0
   20.8326   19.3734   26.9948 C   0  0  0  0  0  0  0  0  0  0  0  0
   20.0715   20.0901   27.3109 H   0  0  0  0  0  0  0  0  0  0  0  0
   21.1335   18.7562   27.8443 H   0  0  0  0  0  0  0  0  0  0  0  0
   21.7007   19.9054   26.5996 H   0  0  0  0  0  0  0  0  0  0  0  0
  1  2  1  0  0  0  0
  1  3  1  0  0  0  0
  1  4  1  0  0  0  0
  4  5  1  0  0  0  0
  4  6  1  0  0  0  0
  4  7  1  0  0  0  0
  7  8  1  0  0  0  0
  7  9  1  0  0  0  0
  7 10  1  0  0  0  0
 10 11  1  0  0  0  0
 10 12  1  0  0  0  0
 10 13  1  0  0  0  0
 13 14  1  0  0  0  0
 13 15  1  0  0  0  0
 13 16  1  0  0  0  0
 16 17  1  0  0  0  0
 16 18  1  0  0  0  0
 16 19  1  0  0  0  0
 19 20  1  0  0  0  0
 19 21  1  0  0  0  0
 19 22  1  0  0  0  0
  1 23  1  0  0  0  0
 23 24  1  0  0  0  0
 23 25  1  0  0  0  0
 23 26  1  0  0  0  0
M  END
> <VM2 Rank>
167

> <Conf_Id>
1495

> <Probability>
0.01

> <Sum Probability>
99.84

> <Delta G>
3.916

> <G>
79.383

> <E>
46.860

> <-TS>
32.523

> <U+W>
25.398

> <U>
74.853

> <W>
-49.455

> <W(PB)>
-51.723

> <W(SA)>
2.268

> <Valence>
5.100

> <Coulomb>
69.479

> <VdW>
0.275

> <VdW6>
-7.404

> <VdW12>
7.679

> <Bond>
0.247

> <Angle>
1.395

> <Pdih>
3.458

> <Idih>
0.000

> <Tether>
0.000

$$$$
VeraChem MOL file


 26 25  0  0  0  0  0  0  0  0999 V2000     
   20.2061   19.3040   25.9676 N   0  3  0  0  0  0  0  0  0  0  0  0
   21.0059   19.8722   25.6510 H   0  0  0  0  0  0  0  0  0  0  0  0
   20.4258   19.0524   26.9444 H   0  0  0  0  0  0  0  0  0  0  0  0
   20.0987   18.0403   25.1283 C   0  0  0  0  0  0  0  0  0  0  0  0
   19.2349   17.4759   25.4887 H   0  0  0  0  0  0  0  0  0  0  0  0
   20.9940   17.4437   25.3212 H   0  0  0  0  0  0  0  0  0  0  0  0
   19.9675   18.2704   23.6069 C   0  0  0  0  0  0  0  0  0  0  0  0
   19.8766   17.2929   23.1153 H   0  0  0  0  0  0  0  0  0  0  0  0
   19.0382   18.8151   23.4025 H   0  0  0  0  0  0  0  0  0  0  0  0
   21.1754   19.0350   23.0138 C   0  0  0  0  0  0  0  0  0  0  0  0
   22.1031   18.5550   23.3551 H   0  0  0  0  0  0  0  0  0  0  0  0
   21.1953   20.0594   23.4096 H   0  0  0  0  0  0  0  0  0  0  0  0
   21.1984   19.0898   21.4643 C   0  0  0  0  0  0  0  0  0  0  0  0
   22.1221   19.6051   21.1663 H   0  0  0  0  0  0  0  0  0  0  0  0
   21.2802   18.0753   21.0505 H   0  0  0  0  0  0  0  0  0  0  0  0
   20.0015   19.8374   20.8213 C   0  0  0  0  0  0  0  0  0  0  0  0
   20.3586   20.3610   19.9233 H   0  0  0  0  0  0  0  0  0  0  0  0
   19.6306   20.6192   21.4986 H   0  0  0  0  0  0  0  0  0  0  0  0
   18.8459   18.9009   20.3970 C   0  0  0  0  0  0  0  0  0  0  0  0
   18.0391   19.4767   19.9253 H   0  0  0  0  0  0  0  0  0  0  0  0
   18.4146   18.3638   21.2487 H   0  0  0  0  0  0  0  0  0  0  0  0
   19.1923   18.1563   19.6685 H   0  0  0  0  0  0  0  0  0  0  0  0
   18.9145   20.1122   25.9178 C   0  0  0  0  0  0  0  0  0  0  0  0
   19.0181   20.9911   26.5581 H   0  0  0  0  0  0  0  0  0  0  0  0
   18.7252   20.4274   24.8897 H   0  0  0  0  0  0  0  0  0  0  0  0
   18.0893   19.4918   26.2738 H   0  0  0  0  0  0  0  0  0  0  0  0
  1  2  1  0  0  0  0
  1  3  1  0  0  0  0
  1  4  1  0  0  0  0
  4  5  1  0  0  0  0
  4  6  1  0  0  0  0
  4  7  1  0  0  0  0
  7  8  1  0  0  0  0
  7  9  1  0  0  0  0
  7 10  1  0  0  0  0
 10 11  1  0  0  0  0
 10 12  1  0  0  0  0
 10 13  1  0  0  0  0
 13 14  1  0  0  0  0
 13 15  1  0  0  0  0
 13 16  1  0  0  0  0
 16 17  1  0  0  0  0
 16 18  1  0  0  0  0
 16 19  1  0  0  0  0
 19 20  1  0  0  0  0
 19 21  1  0  0  0  0
 19 22  1  0  0  0  0
  1 23  1  0  0  0  0
 23 24  1  0  0  0  0
 23 25  1  0  0  0  0
 23 26  1  0  0  0  0
M  END
> <VM2 Rank>
168

> <Conf_Id>
1102

> <Probability>
0.01

> <Sum Probability>
99.85

> <Delta G>
3.933

> <G>
79.400

> <E>
46.583

> <-TS>
32.817

> <U+W>
25.121

> <U>
74.888

> <W>
-49.767

> <W(PB)>
-51.981

> <W(SA)>
2.214

> <Valence>
5.066

> <Coulomb>
69.354

> <VdW>
0.468

> <VdW6>
-8.349

> <VdW12>
8.817

> <Bond>
0.269

> <Angle>
1.348

> <Pdih>
3.450

> <Idih>
0.000

> <Tether>
0.000

$$$$
VeraChem MOL file


 26 25  0  0  0  0  0  0  0  0999 V2000     
   19.2298   19.0719   25.4594 N   0  3  0  0  0  0  0  0  0  0  0  0
   18.5969   18.3358   25.1099 H   0  0  0  0  0  0  0  0  0  0  0  0
   18.9403   19.9371   24.9792 H   0  0  0  0  0  0  0  0  0  0  0  0
   20.6660   18.7361   25.1067 C   0  0  0  0  0  0  0  0  0  0  0  0
   20.9278   17.8150   25.6336 H   0  0  0  0  0  0  0  0  0  0  0  0
   21.3034   19.5390   25.4855 H   0  0  0  0  0  0  0  0  0  0  0  0
   20.9105   18.5480   23.5966 C   0  0  0  0  0  0  0  0  0  0  0  0
   21.9436   18.2039   23.4556 H   0  0  0  0  0  0  0  0  0  0  0  0
   20.2655   17.7445   23.2240 H   0  0  0  0  0  0  0  0  0  0  0  0
   20.6954   19.8549   22.7910 C   0  0  0  0  0  0  0  0  0  0  0  0
   21.3659   20.6222   23.2026 H   0  0  0  0  0  0  0  0  0  0  0  0
   19.6755   20.2373   22.9292 H   0  0  0  0  0  0  0  0  0  0  0  0
   20.9969   19.7031   21.2769 C   0  0  0  0  0  0  0  0  0  0  0  0
   21.4292   20.6476   20.9183 H   0  0  0  0  0  0  0  0  0  0  0  0
   21.7741   18.9433   21.1161 H   0  0  0  0  0  0  0  0  0  0  0  0
   19.7594   19.3940   20.3958 C   0  0  0  0  0  0  0  0  0  0  0  0
   20.0771   19.3767   19.3438 H   0  0  0  0  0  0  0  0  0  0  0  0
   19.0328   20.2142   20.4796 H   0  0  0  0  0  0  0  0  0  0  0  0
   19.0610   18.0560   20.7232 C   0  0  0  0  0  0  0  0  0  0  0  0
   18.5725   18.0909   21.7045 H   0  0  0  0  0  0  0  0  0  0  0  0
   19.7760   17.2231   20.7163 H   0  0  0  0  0  0  0  0  0  0  0  0
   18.2841   17.8373   19.9793 H   0  0  0  0  0  0  0  0  0  0  0  0
   19.0890   19.2260   26.9673 C   0  0  0  0  0  0  0  0  0  0  0  0
   19.7439   20.0307   27.3087 H   0  0  0  0  0  0  0  0  0  0  0  0
   18.0513   19.4679   27.2075 H   0  0  0  0  0  0  0  0  0  0  0  0
   19.3710   18.2887   27.4519 H   0  0  0  0  0  0  0  0  0  0  0  0
  1  2  1  0  0  0  0
  1  3  1  0  0  0  0
  1  4  1  0  0  0  0
  4  5  1  0  0  0  0
  4  6  1  0  0  0  0
  4  7  1  0  0  0  0
  7  8  1  0  0  0  0
  7  9  1  0  0  0  0
  7 10  1  0  0  0  0
 10 11  1  0  0  0  0
 10 12  1  0  0  0  0
 10 13  1  0  0  0  0
 13 14  1  0  0  0  0
 13 15  1  0  0  0  0
 13 16  1  0  0  0  0
 16 17  1  0  0  0  0
 16 18  1  0  0  0  0
 16 19  1  0  0  0  0
 19 20  1  0  0  0  0
 19 21  1  0  0  0  0
 19 22  1  0  0  0  0
  1 23  1  0  0  0  0
 23 24  1  0  0  0  0
 23 25  1  0  0  0  0
 23 26  1  0  0  0  0
M  END
> <VM2 Rank>
169

> <Conf_Id>
984

> <Probability>
0.01

> <Sum Probability>
99.86

> <Delta G>
3.950

> <G>
79.417

> <E>
46.833

> <-TS>
32.584

> <U+W>
25.371

> <U>
74.907

> <W>
-49.536

> <W(PB)>
-51.747

> <W(SA)>
2.211

> <Valence>
4.797

> <Coulomb>
69.863

> <VdW>
0.247

> <VdW6>
-7.454

> <VdW12>
7.702

> <Bond>
0.232

> <Angle>
1.219

> <Pdih>
3.346

> <Idih>
0.000

> <Tether>
0.000

$$$$
VeraChem MOL file


 26 25  0  0  0  0  0  0  0  0999 V2000     
   19.7517   19.6324   25.7335 N   0  3  0  0  0  0  0  0  0  0  0  0
   19.3977   19.6922   26.7014 H   0  0  0  0  0  0  0  0  0  0  0  0
   19.1419   20.2578   25.1863 H   0  0  0  0  0  0  0  0  0  0  0  0
   19.6200   18.2029   25.2314 C   0  0  0  0  0  0  0  0  0  0  0  0
   18.5948   17.8801   25.4299 H   0  0  0  0  0  0  0  0  0  0  0  0
   20.2900   17.5798   25.8292 H   0  0  0  0  0  0  0  0  0  0  0  0
   19.9282   18.0011   23.7318 C   0  0  0  0  0  0  0  0  0  0  0  0
   20.9721   18.2664   23.5333 H   0  0  0  0  0  0  0  0  0  0  0  0
   19.8388   16.9305   23.5050 H   0  0  0  0  0  0  0  0  0  0  0  0
   18.9676   18.7974   22.8120 C   0  0  0  0  0  0  0  0  0  0  0  0
   19.0173   19.8718   23.0327 H   0  0  0  0  0  0  0  0  0  0  0  0
   17.9392   18.4860   23.0422 H   0  0  0  0  0  0  0  0  0  0  0  0
   19.2249   18.5617   21.3006 C   0  0  0  0  0  0  0  0  0  0  0  0
   19.6241   17.5518   21.1337 H   0  0  0  0  0  0  0  0  0  0  0  0
   18.2570   18.5860   20.7809 H   0  0  0  0  0  0  0  0  0  0  0  0
   20.1416   19.6148   20.6265 C   0  0  0  0  0  0  0  0  0  0  0  0
   19.6781   20.6084   20.7011 H   0  0  0  0  0  0  0  0  0  0  0  0
   20.2015   19.3879   19.5529 H   0  0  0  0  0  0  0  0  0  0  0  0
   21.5742   19.6742   21.2004 C   0  0  0  0  0  0  0  0  0  0  0  0
   21.5772   20.0667   22.2244 H   0  0  0  0  0  0  0  0  0  0  0  0
   22.2026   20.3392   20.5940 H   0  0  0  0  0  0  0  0  0  0  0  0
   22.0420   18.6812   21.2035 H   0  0  0  0  0  0  0  0  0  0  0  0
   21.1997   20.1056   25.6808 C   0  0  0  0  0  0  0  0  0  0  0  0
   21.2586   21.1207   26.0797 H   0  0  0  0  0  0  0  0  0  0  0  0
   21.8178   19.4363   26.2831 H   0  0  0  0  0  0  0  0  0  0  0  0
   21.5448   20.0976   24.6451 H   0  0  0  0  0  0  0  0  0  0  0  0
  1  2  1  0  0  0  0
  1  3  1  0  0  0  0
  1  4  1  0  0  0  0
  4  5  1  0  0  0  0
  4  6  1  0  0  0  0
  4  7  1  0  0  0  0
  7  8  1  0  0  0  0
  7  9  1  0  0  0  0
  7 10  1  0  0  0  0
 10 11  1  0  0  0  0
 10 12  1  0  0  0  0
 10 13  1  0  0  0  0
 13 14  1  0  0  0  0
 13 15  1  0  0  0  0
 13 16  1  0  0  0  0
 16 17  1  0  0  0  0
 16 18  1  0  0  0  0
 16 19  1  0  0  0  0
 19 20  1  0  0  0  0
 19 21  1  0  0  0  0
 19 22  1  0  0  0  0
  1 23  1  0  0  0  0
 23 24  1  0  0  0  0
 23 25  1  0  0  0  0
 23 26  1  0  0  0  0
M  END
> <VM2 Rank>
170

> <Conf_Id>
862

> <Probability>
0.01

> <Sum Probability>
99.87

> <Delta G>
3.959

> <G>
79.426

> <E>
46.533

> <-TS>
32.892

> <U+W>
25.071

> <U>
75.103

> <W>
-50.032

> <W(PB)>
-52.209

> <W(SA)>
2.177

> <Valence>
5.036

> <Coulomb>
69.777

> <VdW>
0.290

> <VdW6>
-8.613

> <VdW12>
8.904

> <Bond>
0.274

> <Angle>
1.357

> <Pdih>
3.405

> <Idih>
0.000

> <Tether>
0.000

$$$$
VeraChem MOL file


 26 25  0  0  0  0  0  0  0  0999 V2000     
   20.7016   19.2222   25.5115 N   0  3  0  0  0  0  0  0  0  0  0  0
   20.8433   20.1315   25.0467 H   0  0  0  0  0  0  0  0  0  0  0  0
   21.4929   18.6317   25.2124 H   0  0  0  0  0  0  0  0  0  0  0  0
   19.3911   18.6059   25.0615 C   0  0  0  0  0  0  0  0  0  0  0  0
   18.5798   19.2608   25.3890 H   0  0  0  0  0  0  0  0  0  0  0  0
   19.2844   17.6472   25.5753 H   0  0  0  0  0  0  0  0  0  0  0  0
   19.2960   18.3832   23.5394 C   0  0  0  0  0  0  0  0  0  0  0  0
   20.1145   17.7291   23.2186 H   0  0  0  0  0  0  0  0  0  0  0  0
   18.3661   17.8386   23.3288 H   0  0  0  0  0  0  0  0  0  0  0  0
   19.2987   19.7124   22.7415 C   0  0  0  0  0  0  0  0  0  0  0  0
   20.2081   20.2918   22.9481 H   0  0  0  0  0  0  0  0  0  0  0  0
   18.4599   20.3255   23.0997 H   0  0  0  0  0  0  0  0  0  0  0  0
   19.1409   19.5137   21.2112 C   0  0  0  0  0  0  0  0  0  0  0  0
   18.5462   18.6140   21.0017 H   0  0  0  0  0  0  0  0  0  0  0  0
   18.5532   20.3541   20.8163 H   0  0  0  0  0  0  0  0  0  0  0  0
   20.4740   19.4669   20.4211 C   0  0  0  0  0  0  0  0  0  0  0  0
   21.0125   20.4163   20.5498 H   0  0  0  0  0  0  0  0  0  0  0  0
   20.2408   19.3934   19.3496 H   0  0  0  0  0  0  0  0  0  0  0  0
   21.4032   18.2950   20.8063 C   0  0  0  0  0  0  0  0  0  0  0  0
   20.8733   17.3352   20.7554 H   0  0  0  0  0  0  0  0  0  0  0  0
   21.8049   18.4209   21.8191 H   0  0  0  0  0  0  0  0  0  0  0  0
   22.2585   18.2428   20.1202 H   0  0  0  0  0  0  0  0  0  0  0  0
   20.7024   19.3907   27.0245 C   0  0  0  0  0  0  0  0  0  0  0  0
   20.5825   18.4122   27.4948 H   0  0  0  0  0  0  0  0  0  0  0  0
   21.6505   19.8355   27.3350 H   0  0  0  0  0  0  0  0  0  0  0  0
   19.8762   20.0440   27.3135 H   0  0  0  0  0  0  0  0  0  0  0  0
  1  2  1  0  0  0  0
  1  3  1  0  0  0  0
  1  4  1  0  0  0  0
  4  5  1  0  0  0  0
  4  6  1  0  0  0  0
  4  7  1  0  0  0  0
  7  8  1  0  0  0  0
  7  9  1  0  0  0  0
  7 10  1  0  0  0  0
 10 11  1  0  0  0  0
 10 12  1  0  0  0  0
 10 13  1  0  0  0  0
 13 14  1  0  0  0  0
 13 15  1  0  0  0  0
 13 16  1  0  0  0  0
 16 17  1  0  0  0  0
 16 18  1  0  0  0  0
 16 19  1  0  0  0  0
 19 20  1  0  0  0  0
 19 21  1  0  0  0  0
 19 22  1  0  0  0  0
  1 23  1  0  0  0  0
 23 24  1  0  0  0  0
 23 25  1  0  0  0  0
 23 26  1  0  0  0  0
M  END
> <VM2 Rank>
171

> <Conf_Id>
983

> <Probability>
0.01

> <Sum Probability>
99.88

> <Delta G>
3.962

> <G>
79.428

> <E>
46.844

> <-TS>
32.584

> <U+W>
25.383

> <U>
74.907

> <W>
-49.525

> <W(PB)>
-51.776

> <W(SA)>
2.251

> <Valence>
4.797

> <Coulomb>
69.863

> <VdW>
0.248

> <VdW6>
-7.455

> <VdW12>
7.702

> <Bond>
0.232

> <Angle>
1.219

> <Pdih>
3.345

> <Idih>
0.000

> <Tether>
0.000

$$$$
VeraChem MOL file


 26 25  0  0  0  0  0  0  0  0999 V2000     
   19.3084   19.2017   25.9453 N   0  3  0  0  0  0  0  0  0  0  0  0
   18.5878   18.9170   26.6275 H   0  0  0  0  0  0  0  0  0  0  0  0
   18.9514   20.0736   25.5270 H   0  0  0  0  0  0  0  0  0  0  0  0
   19.4496   18.1288   24.8766 C   0  0  0  0  0  0  0  0  0  0  0  0
   18.4461   17.9024   24.5073 H   0  0  0  0  0  0  0  0  0  0  0  0
   19.8399   17.2300   25.3605 H   0  0  0  0  0  0  0  0  0  0  0  0
   20.3511   18.5034   23.6798 C   0  0  0  0  0  0  0  0  0  0  0  0
   21.3768   18.6778   24.0294 H   0  0  0  0  0  0  0  0  0  0  0  0
   20.4033   17.6384   23.0095 H   0  0  0  0  0  0  0  0  0  0  0  0
   19.8389   19.7482   22.9113 C   0  0  0  0  0  0  0  0  0  0  0  0
   19.8792   20.6138   23.5861 H   0  0  0  0  0  0  0  0  0  0  0  0
   18.7820   19.6222   22.6387 H   0  0  0  0  0  0  0  0  0  0  0  0
   20.6775   20.0806   21.6494 C   0  0  0  0  0  0  0  0  0  0  0  0
   20.7224   21.1737   21.5464 H   0  0  0  0  0  0  0  0  0  0  0  0
   21.7177   19.7540   21.7853 H   0  0  0  0  0  0  0  0  0  0  0  0
   20.1084   19.5114   20.3244 C   0  0  0  0  0  0  0  0  0  0  0  0
   20.7356   19.8665   19.4947 H   0  0  0  0  0  0  0  0  0  0  0  0
   19.1062   19.9257   20.1459 H   0  0  0  0  0  0  0  0  0  0  0  0
   20.0420   17.9693   20.2696 C   0  0  0  0  0  0  0  0  0  0  0  0
   21.0173   17.5220   20.5011 H   0  0  0  0  0  0  0  0  0  0  0  0
   19.7490   17.6337   19.2664 H   0  0  0  0  0  0  0  0  0  0  0  0
   19.2998   17.5766   20.9754 H   0  0  0  0  0  0  0  0  0  0  0  0
   20.6321   19.4465   26.6606 C   0  0  0  0  0  0  0  0  0  0  0  0
   20.4831   20.1957   27.4413 H   0  0  0  0  0  0  0  0  0  0  0  0
   20.9765   18.5115   27.1076 H   0  0  0  0  0  0  0  0  0  0  0  0
   21.3698   19.8076   25.9412 H   0  0  0  0  0  0  0  0  0  0  0  0
  1  2  1  0  0  0  0
  1  3  1  0  0  0  0
  1  4  1  0  0  0  0
  4  5  1  0  0  0  0
  4  6  1  0  0  0  0
  4  7  1  0  0  0  0
  7  8  1  0  0  0  0
  7  9  1  0  0  0  0
  7 10  1  0  0  0  0
 10 11  1  0  0  0  0
 10 12  1  0  0  0  0
 10 13  1  0  0  0  0
 13 14  1  0  0  0  0
 13 15  1  0  0  0  0
 13 16  1  0  0  0  0
 16 17  1  0  0  0  0
 16 18  1  0  0  0  0
 16 19  1  0  0  0  0
 19 20  1  0  0  0  0
 19 21  1  0  0  0  0
 19 22  1  0  0  0  0
  1 23  1  0  0  0  0
 23 24  1  0  0  0  0
 23 25  1  0  0  0  0
 23 26  1  0  0  0  0
M  END
> <VM2 Rank>
172

> <Conf_Id>
1589

> <Probability>
0.01

> <Sum Probability>
99.88

> <Delta G>
4.020

> <G>
79.486

> <E>
46.635

> <-TS>
32.852

> <U+W>
25.173

> <U>
74.855

> <W>
-49.682

> <W(PB)>
-51.896

> <W(SA)>
2.214

> <Valence>
5.096

> <Coulomb>
69.227

> <VdW>
0.532

> <VdW6>
-8.269

> <VdW12>
8.801

> <Bond>
0.274

> <Angle>
1.323

> <Pdih>
3.499

> <Idih>
0.000

> <Tether>
0.000

$$$$
VeraChem MOL file


 26 25  0  0  0  0  0  0  0  0999 V2000     
   19.2891   18.3573   25.6041 N   0  3  0  0  0  0  0  0  0  0  0  0
   19.8670   17.5028   25.6234 H   0  0  0  0  0  0  0  0  0  0  0  0
   18.3156   18.0227   25.6826 H   0  0  0  0  0  0  0  0  0  0  0  0
   19.4718   19.0856   24.2830 C   0  0  0  0  0  0  0  0  0  0  0  0
   18.8814   20.0043   24.3219 H   0  0  0  0  0  0  0  0  0  0  0  0
   19.0490   18.4481   23.5052 H   0  0  0  0  0  0  0  0  0  0  0  0
   20.9380   19.4219   23.9344 C   0  0  0  0  0  0  0  0  0  0  0  0
   21.3302   20.1004   24.7029 H   0  0  0  0  0  0  0  0  0  0  0  0
   21.5561   18.5155   23.9776 H   0  0  0  0  0  0  0  0  0  0  0  0
   21.0968   20.1078   22.5536 C   0  0  0  0  0  0  0  0  0  0  0  0
   22.0080   20.7211   22.5857 H   0  0  0  0  0  0  0  0  0  0  0  0
   20.2756   20.8169   22.3837 H   0  0  0  0  0  0  0  0  0  0  0  0
   21.2396   19.1342   21.3520 C   0  0  0  0  0  0  0  0  0  0  0  0
   21.4541   19.7244   20.4504 H   0  0  0  0  0  0  0  0  0  0  0  0
   22.1250   18.5031   21.5098 H   0  0  0  0  0  0  0  0  0  0  0  0
   20.0234   18.2197   21.0624 C   0  0  0  0  0  0  0  0  0  0  0  0
   19.8563   17.5313   21.9004 H   0  0  0  0  0  0  0  0  0  0  0  0
   20.2674   17.5812   20.2019 H   0  0  0  0  0  0  0  0  0  0  0  0
   18.7286   19.0013   20.7421 C   0  0  0  0  0  0  0  0  0  0  0  0
   17.9178   18.3103   20.4776 H   0  0  0  0  0  0  0  0  0  0  0  0
   18.8799   19.6804   19.8930 H   0  0  0  0  0  0  0  0  0  0  0  0
   18.3895   19.5969   21.5980 H   0  0  0  0  0  0  0  0  0  0  0  0
   19.6206   19.2622   26.7854 C   0  0  0  0  0  0  0  0  0  0  0  0
   18.9829   20.1480   26.7488 H   0  0  0  0  0  0  0  0  0  0  0  0
   19.4409   18.7167   27.7144 H   0  0  0  0  0  0  0  0  0  0  0  0
   20.6701   19.5582   26.7313 H   0  0  0  0  0  0  0  0  0  0  0  0
  1  2  1  0  0  0  0
  1  3  1  0  0  0  0
  1  4  1  0  0  0  0
  4  5  1  0  0  0  0
  4  6  1  0  0  0  0
  4  7  1  0  0  0  0
  7  8  1  0  0  0  0
  7  9  1  0  0  0  0
  7 10  1  0  0  0  0
 10 11  1  0  0  0  0
 10 12  1  0  0  0  0
 10 13  1  0  0  0  0
 13 14  1  0  0  0  0
 13 15  1  0  0  0  0
 13 16  1  0  0  0  0
 16 17  1  0  0  0  0
 16 18  1  0  0  0  0
 16 19  1  0  0  0  0
 19 20  1  0  0  0  0
 19 21  1  0  0  0  0
 19 22  1  0  0  0  0
  1 23  1  0  0  0  0
 23 24  1  0  0  0  0
 23 25  1  0  0  0  0
 23 26  1  0  0  0  0
M  END
> <VM2 Rank>
173

> <Conf_Id>
159

> <Probability>
0.01

> <Sum Probability>
99.89

> <Delta G>
4.026

> <G>
79.492

> <E>
46.319

> <-TS>
33.173

> <U+W>
24.858

> <U>
74.835

> <W>
-49.977

> <W(PB)>
-52.172

> <W(SA)>
2.195

> <Valence>
4.934

> <Coulomb>
69.669

> <VdW>
0.232

> <VdW6>
-8.762

> <VdW12>
8.993

> <Bond>
0.278

> <Angle>
1.765

> <Pdih>
2.891

> <Idih>
0.000

> <Tether>
0.000

$$$$
VeraChem MOL file


 26 25  0  0  0  0  0  0  0  0999 V2000     
   20.7774   18.5088   25.6568 N   0  3  0  0  0  0  0  0  0  0  0  0
   21.7904   18.3765   25.8058 H   0  0  0  0  0  0  0  0  0  0  0  0
   20.3835   17.5555   25.6418 H   0  0  0  0  0  0  0  0  0  0  0  0
   20.5449   19.1947   24.3210 C   0  0  0  0  0  0  0  0  0  0  0  0
   21.1407   18.6608   23.5793 H   0  0  0  0  0  0  0  0  0  0  0  0
   20.9342   20.2132   24.3944 H   0  0  0  0  0  0  0  0  0  0  0  0
   19.0691   19.2315   23.8682 C   0  0  0  0  0  0  0  0  0  0  0  0
   18.6446   18.2191   23.8746 H   0  0  0  0  0  0  0  0  0  0  0  0
   18.4956   19.8118   24.6024 H   0  0  0  0  0  0  0  0  0  0  0  0
   18.8725   19.8812   22.4747 C   0  0  0  0  0  0  0  0  0  0  0  0
   19.5439   20.7424   22.3577 H   0  0  0  0  0  0  0  0  0  0  0  0
   17.8565   20.2981   22.4386 H   0  0  0  0  0  0  0  0  0  0  0  0
   19.0133   18.9074   21.2731 C   0  0  0  0  0  0  0  0  0  0  0  0
   18.2643   18.1097   21.3730 H   0  0  0  0  0  0  0  0  0  0  0  0
   18.7480   19.4487   20.3545 H   0  0  0  0  0  0  0  0  0  0  0  0
   20.4060   18.2587   21.0760 C   0  0  0  0  0  0  0  0  0  0  0  0
   20.3566   17.5904   20.2049 H   0  0  0  0  0  0  0  0  0  0  0  0
   20.6492   17.6120   21.9284 H   0  0  0  0  0  0  0  0  0  0  0  0
   21.5361   19.2874   20.8418 C   0  0  0  0  0  0  0  0  0  0  0  0
   21.3110   19.9283   19.9795 H   0  0  0  0  0  0  0  0  0  0  0  0
   22.4859   18.7758   20.6395 H   0  0  0  0  0  0  0  0  0  0  0  0
   21.6874   19.9327   21.7152 H   0  0  0  0  0  0  0  0  0  0  0  0
   20.1887   19.3202   26.8054 C   0  0  0  0  0  0  0  0  0  0  0  0
   19.1075   19.3993   26.6758 H   0  0  0  0  0  0  0  0  0  0  0  0
   20.4090   18.8156   27.7487 H   0  0  0  0  0  0  0  0  0  0  0  0
   20.6361   20.3165   26.8071 H   0  0  0  0  0  0  0  0  0  0  0  0
  1  2  1  0  0  0  0
  1  3  1  0  0  0  0
  1  4  1  0  0  0  0
  4  5  1  0  0  0  0
  4  6  1  0  0  0  0
  4  7  1  0  0  0  0
  7  8  1  0  0  0  0
  7  9  1  0  0  0  0
  7 10  1  0  0  0  0
 10 11  1  0  0  0  0
 10 12  1  0  0  0  0
 10 13  1  0  0  0  0
 13 14  1  0  0  0  0
 13 15  1  0  0  0  0
 13 16  1  0  0  0  0
 16 17  1  0  0  0  0
 16 18  1  0  0  0  0
 16 19  1  0  0  0  0
 19 20  1  0  0  0  0
 19 21  1  0  0  0  0
 19 22  1  0  0  0  0
  1 23  1  0  0  0  0
 23 24  1  0  0  0  0
 23 25  1  0  0  0  0
 23 26  1  0  0  0  0
M  END
> <VM2 Rank>
174

> <Conf_Id>
171

> <Probability>
0.01

> <Sum Probability>
99.90

> <Delta G>
4.047

> <G>
79.513

> <E>
46.340

> <-TS>
33.173

> <U+W>
24.878

> <U>
74.835

> <W>
-49.956

> <W(PB)>
-52.177

> <W(SA)>
2.220

> <Valence>
4.933

> <Coulomb>
69.669

> <VdW>
0.232

> <VdW6>
-8.762

> <VdW12>
8.994

> <Bond>
0.278

> <Angle>
1.765

> <Pdih>
2.890

> <Idih>
0.000

> <Tether>
0.000

$$$$
VeraChem MOL file


 26 25  0  0  0  0  0  0  0  0999 V2000     
   20.3087   19.6467   25.2500 N   0  3  0  0  0  0  0  0  0  0  0  0
   20.9161   20.0112   24.5013 H   0  0  0  0  0  0  0  0  0  0  0  0
   20.9480   19.2711   25.9676 H   0  0  0  0  0  0  0  0  0  0  0  0
   19.4271   18.5389   24.7072 C   0  0  0  0  0  0  0  0  0  0  0  0
   18.7427   18.9722   23.9752 H   0  0  0  0  0  0  0  0  0  0  0  0
   18.8302   18.1554   25.5385 H   0  0  0  0  0  0  0  0  0  0  0  0
   20.2113   17.3785   24.0644 C   0  0  0  0  0  0  0  0  0  0  0  0
   20.8348   16.9068   24.8355 H   0  0  0  0  0  0  0  0  0  0  0  0
   19.4970   16.6090   23.7428 H   0  0  0  0  0  0  0  0  0  0  0  0
   21.1104   17.7742   22.8624 C   0  0  0  0  0  0  0  0  0  0  0  0
   21.6528   16.8703   22.5520 H   0  0  0  0  0  0  0  0  0  0  0  0
   21.8870   18.4851   23.1743 H   0  0  0  0  0  0  0  0  0  0  0  0
   20.3470   18.3157   21.6248 C   0  0  0  0  0  0  0  0  0  0  0  0
   20.9346   18.0704   20.7292 H   0  0  0  0  0  0  0  0  0  0  0  0
   19.3902   17.7876   21.5115 H   0  0  0  0  0  0  0  0  0  0  0  0
   20.1169   19.8468   21.6394 C   0  0  0  0  0  0  0  0  0  0  0  0
   21.0784   20.3650   21.7588 H   0  0  0  0  0  0  0  0  0  0  0  0
   19.4911   20.1397   22.4897 H   0  0  0  0  0  0  0  0  0  0  0  0
   19.4401   20.3301   20.3390 C   0  0  0  0  0  0  0  0  0  0  0  0
   19.2852   21.4166   20.3632 H   0  0  0  0  0  0  0  0  0  0  0  0
   18.4605   19.8534   20.2032 H   0  0  0  0  0  0  0  0  0  0  0  0
   20.0577   20.0981   19.4615 H   0  0  0  0  0  0  0  0  0  0  0  0
   19.4466   20.7591   25.8298 C   0  0  0  0  0  0  0  0  0  0  0  0
   18.8356   20.3544   26.6396 H   0  0  0  0  0  0  0  0  0  0  0  0
   20.0938   21.5497   26.2160 H   0  0  0  0  0  0  0  0  0  0  0  0
   18.8019   21.1605   25.0448 H   0  0  0  0  0  0  0  0  0  0  0  0
  1  2  1  0  0  0  0
  1  3  1  0  0  0  0
  1  4  1  0  0  0  0
  4  5  1  0  0  0  0
  4  6  1  0  0  0  0
  4  7  1  0  0  0  0
  7  8  1  0  0  0  0
  7  9  1  0  0  0  0
  7 10  1  0  0  0  0
 10 11  1  0  0  0  0
 10 12  1  0  0  0  0
 10 13  1  0  0  0  0
 13 14  1  0  0  0  0
 13 15  1  0  0  0  0
 13 16  1  0  0  0  0
 16 17  1  0  0  0  0
 16 18  1  0  0  0  0
 16 19  1  0  0  0  0
 19 20  1  0  0  0  0
 19 21  1  0  0  0  0
 19 22  1  0  0  0  0
  1 23  1  0  0  0  0
 23 24  1  0  0  0  0
 23 25  1  0  0  0  0
 23 26  1  0  0  0  0
M  END
> <VM2 Rank>
175

> <Conf_Id>
426

> <Probability>
0.01

> <Sum Probability>
99.91

> <Delta G>
4.052

> <G>
79.519

> <E>
46.794

> <-TS>
32.725

> <U+W>
25.332

> <U>
74.862

> <W>
-49.529

> <W(PB)>
-51.763

> <W(SA)>
2.234

> <Valence>
4.457

> <Coulomb>
70.609

> <VdW>
-0.205

> <VdW6>
-8.103

> <VdW12>
7.899

> <Bond>
0.231

> <Angle>
1.446

> <Pdih>
2.780

> <Idih>
0.000

> <Tether>
0.000

$$$$
VeraChem MOL file


 26 25  0  0  0  0  0  0  0  0999 V2000     
   19.5454   19.5679   25.2231 N   0  3  0  0  0  0  0  0  0  0  0  0
   18.9477   19.0647   25.8970 H   0  0  0  0  0  0  0  0  0  0  0  0
   18.9302   19.8062   24.4313 H   0  0  0  0  0  0  0  0  0  0  0  0
   20.6700   18.6671   24.7511 C   0  0  0  0  0  0  0  0  0  0  0  0
   21.2731   18.4074   25.6249 H   0  0  0  0  0  0  0  0  0  0  0  0
   21.3011   19.2361   24.0656 H   0  0  0  0  0  0  0  0  0  0  0  0
   20.1859   17.3759   24.0636 C   0  0  0  0  0  0  0  0  0  0  0  0
   21.0627   16.7704   23.7984 H   0  0  0  0  0  0  0  0  0  0  0  0
   19.6192   16.7815   24.7926 H   0  0  0  0  0  0  0  0  0  0  0  0
   19.3114   17.5886   22.7987 C   0  0  0  0  0  0  0  0  0  0  0  0
   18.3863   18.1239   23.0503 H   0  0  0  0  0  0  0  0  0  0  0  0
   18.9878   16.5953   22.4576 H   0  0  0  0  0  0  0  0  0  0  0  0
   20.0331   18.2833   21.6138 C   0  0  0  0  0  0  0  0  0  0  0  0
   21.0831   17.9624   21.5717 H   0  0  0  0  0  0  0  0  0  0  0  0
   19.5722   17.9297   20.6809 H   0  0  0  0  0  0  0  0  0  0  0  0
   19.9444   19.8290   21.6332 C   0  0  0  0  0  0  0  0  0  0  0  0
   20.4359   20.2374   22.5232 H   0  0  0  0  0  0  0  0  0  0  0  0
   18.8913   20.1393   21.6811 H   0  0  0  0  0  0  0  0  0  0  0  0
   20.5978   20.4496   20.3801 C   0  0  0  0  0  0  0  0  0  0  0  0
   20.5257   21.5446   20.4071 H   0  0  0  0  0  0  0  0  0  0  0  0
   20.1038   20.1027   19.4632 H   0  0  0  0  0  0  0  0  0  0  0  0
   21.6611   20.1839   20.3169 H   0  0  0  0  0  0  0  0  0  0  0  0
   20.1199   20.8287   25.8534 C   0  0  0  0  0  0  0  0  0  0  0  0
   20.7223   21.3586   25.1124 H   0  0  0  0  0  0  0  0  0  0  0  0
   19.2997   21.4678   26.1878 H   0  0  0  0  0  0  0  0  0  0  0  0
   20.7427   20.5513   26.7067 H   0  0  0  0  0  0  0  0  0  0  0  0
  1  2  1  0  0  0  0
  1  3  1  0  0  0  0
  1  4  1  0  0  0  0
  4  5  1  0  0  0  0
  4  6  1  0  0  0  0
  4  7  1  0  0  0  0
  7  8  1  0  0  0  0
  7  9  1  0  0  0  0
  7 10  1  0  0  0  0
 10 11  1  0  0  0  0
 10 12  1  0  0  0  0
 10 13  1  0  0  0  0
 13 14  1  0  0  0  0
 13 15  1  0  0  0  0
 13 16  1  0  0  0  0
 16 17  1  0  0  0  0
 16 18  1  0  0  0  0
 16 19  1  0  0  0  0
 19 20  1  0  0  0  0
 19 21  1  0  0  0  0
 19 22  1  0  0  0  0
  1 23  1  0  0  0  0
 23 24  1  0  0  0  0
 23 25  1  0  0  0  0
 23 26  1  0  0  0  0
M  END
> <VM2 Rank>
176

> <Conf_Id>
419

> <Probability>
0.01

> <Sum Probability>
99.91

> <Delta G>
4.055

> <G>
79.521

> <E>
46.797

> <-TS>
32.725

> <U+W>
25.335

> <U>
74.861

> <W>
-49.527

> <W(PB)>
-51.752

> <W(SA)>
2.225

> <Valence>
4.458

> <Coulomb>
70.609

> <VdW>
-0.205

> <VdW6>
-8.103

> <VdW12>
7.898

> <Bond>
0.231

> <Angle>
1.446

> <Pdih>
2.781

> <Idih>
0.000

> <Tether>
0.000

$$$$
VeraChem MOL file


 26 25  0  0  0  0  0  0  0  0999 V2000     
   19.9751   19.4964   26.0493 N   0  3  0  0  0  0  0  0  0  0  0  0
   19.3148   20.2178   25.7235 H   0  0  0  0  0  0  0  0  0  0  0  0
   20.3827   19.8790   26.9172 H   0  0  0  0  0  0  0  0  0  0  0  0
   21.0748   19.2892   25.0192 C   0  0  0  0  0  0  0  0  0  0  0  0
   21.7423   18.5133   25.4025 H   0  0  0  0  0  0  0  0  0  0  0  0
   21.6438   20.2204   24.9569 H   0  0  0  0  0  0  0  0  0  0  0  0
   20.5929   18.9002   23.6041 C   0  0  0  0  0  0  0  0  0  0  0  0
   21.4824   18.7318   22.9851 H   0  0  0  0  0  0  0  0  0  0  0  0
   20.0502   17.9471   23.6432 H   0  0  0  0  0  0  0  0  0  0  0  0
   19.7095   19.9901   22.9497 C   0  0  0  0  0  0  0  0  0  0  0  0
   20.2910   20.9166   22.8457 H   0  0  0  0  0  0  0  0  0  0  0  0
   18.8707   20.2284   23.6168 H   0  0  0  0  0  0  0  0  0  0  0  0
   19.1213   19.5936   21.5706 C   0  0  0  0  0  0  0  0  0  0  0  0
   18.4489   18.7317   21.6807 H   0  0  0  0  0  0  0  0  0  0  0  0
   18.4844   20.4229   21.2328 H   0  0  0  0  0  0  0  0  0  0  0  0
   20.1745   19.3147   20.4670 C   0  0  0  0  0  0  0  0  0  0  0  0
   21.0883   19.8956   20.6546 H   0  0  0  0  0  0  0  0  0  0  0  0
   19.7797   19.6761   19.5071 H   0  0  0  0  0  0  0  0  0  0  0  0
   20.5136   17.8140   20.3072 C   0  0  0  0  0  0  0  0  0  0  0  0
   21.2493   17.6700   19.5054 H   0  0  0  0  0  0  0  0  0  0  0  0
   19.6181   17.2362   20.0440 H   0  0  0  0  0  0  0  0  0  0  0  0
   20.9335   17.3851   21.2236 H   0  0  0  0  0  0  0  0  0  0  0  0
   19.2463   18.1917   26.3499 C   0  0  0  0  0  0  0  0  0  0  0  0
   19.9664   17.4529   26.7082 H   0  0  0  0  0  0  0  0  0  0  0  0
   18.4910   18.3731   27.1178 H   0  0  0  0  0  0  0  0  0  0  0  0
   18.7645   17.8293   25.4396 H   0  0  0  0  0  0  0  0  0  0  0  0
  1  2  1  0  0  0  0
  1  3  1  0  0  0  0
  1  4  1  0  0  0  0
  4  5  1  0  0  0  0
  4  6  1  0  0  0  0
  4  7  1  0  0  0  0
  7  8  1  0  0  0  0
  7  9  1  0  0  0  0
  7 10  1  0  0  0  0
 10 11  1  0  0  0  0
 10 12  1  0  0  0  0
 10 13  1  0  0  0  0
 13 14  1  0  0  0  0
 13 15  1  0  0  0  0
 13 16  1  0  0  0  0
 16 17  1  0  0  0  0
 16 18  1  0  0  0  0
 16 19  1  0  0  0  0
 19 20  1  0  0  0  0
 19 21  1  0  0  0  0
 19 22  1  0  0  0  0
  1 23  1  0  0  0  0
 23 24  1  0  0  0  0
 23 25  1  0  0  0  0
 23 26  1  0  0  0  0
M  END
> <VM2 Rank>
177

> <Conf_Id>
692

> <Probability>
0.01

> <Sum Probability>
99.92

> <Delta G>
4.067

> <G>
79.534

> <E>
46.742

> <-TS>
32.792

> <U+W>
25.280

> <U>
74.926

> <W>
-49.645

> <W(PB)>
-51.851

> <W(SA)>
2.206

> <Valence>
5.130

> <Coulomb>
69.227

> <VdW>
0.568

> <VdW6>
-8.232

> <VdW12>
8.801

> <Bond>
0.274

> <Angle>
1.422

> <Pdih>
3.434

> <Idih>
0.000

> <Tether>
0.000

$$$$
VeraChem MOL file


 26 25  0  0  0  0  0  0  0  0999 V2000     
   20.3150   18.8409   25.8848 N   0  3  0  0  0  0  0  0  0  0  0  0
   20.8013   18.0865   26.3949 H   0  0  0  0  0  0  0  0  0  0  0  0
   19.4903   19.0641   26.4629 H   0  0  0  0  0  0  0  0  0  0  0  0
   19.8778   18.3332   24.5211 C   0  0  0  0  0  0  0  0  0  0  0  0
   19.3740   17.3759   24.6767 H   0  0  0  0  0  0  0  0  0  0  0  0
   20.7764   18.1507   23.9271 H   0  0  0  0  0  0  0  0  0  0  0  0
   18.9266   19.2807   23.7596 C   0  0  0  0  0  0  0  0  0  0  0  0
   18.0565   19.4961   24.3936 H   0  0  0  0  0  0  0  0  0  0  0  0
   19.4115   20.2457   23.5726 H   0  0  0  0  0  0  0  0  0  0  0  0
   18.4302   18.6772   22.4241 C   0  0  0  0  0  0  0  0  0  0  0  0
   17.7497   19.3923   21.9417 H   0  0  0  0  0  0  0  0  0  0  0  0
   17.8208   17.7904   22.6472 H   0  0  0  0  0  0  0  0  0  0  0  0
   19.5376   18.2699   21.4145 C   0  0  0  0  0  0  0  0  0  0  0  0
   20.1810   17.4867   21.8373 H   0  0  0  0  0  0  0  0  0  0  0  0
   19.0364   17.8000   20.5569 H   0  0  0  0  0  0  0  0  0  0  0  0
   20.3973   19.4425   20.8744 C   0  0  0  0  0  0  0  0  0  0  0  0
   19.7981   20.3619   20.8193 H   0  0  0  0  0  0  0  0  0  0  0  0
   20.6874   19.2098   19.8402 H   0  0  0  0  0  0  0  0  0  0  0  0
   21.6924   19.6931   21.6819 C   0  0  0  0  0  0  0  0  0  0  0  0
   22.2942   20.4772   21.2045 H   0  0  0  0  0  0  0  0  0  0  0  0
   22.3082   18.7858   21.7309 H   0  0  0  0  0  0  0  0  0  0  0  0
   21.4845   20.0193   22.7056 H   0  0  0  0  0  0  0  0  0  0  0  0
   21.2311   20.0525   25.7565 C   0  0  0  0  0  0  0  0  0  0  0  0
   22.1049   19.7801   25.1607 H   0  0  0  0  0  0  0  0  0  0  0  0
   20.6890   20.8661   25.2703 H   0  0  0  0  0  0  0  0  0  0  0  0
   21.5483   20.3672   26.7532 H   0  0  0  0  0  0  0  0  0  0  0  0
  1  2  1  0  0  0  0
  1  3  1  0  0  0  0
  1  4  1  0  0  0  0
  4  5  1  0  0  0  0
  4  6  1  0  0  0  0
  4  7  1  0  0  0  0
  7  8  1  0  0  0  0
  7  9  1  0  0  0  0
  7 10  1  0  0  0  0
 10 11  1  0  0  0  0
 10 12  1  0  0  0  0
 10 13  1  0  0  0  0
 13 14  1  0  0  0  0
 13 15  1  0  0  0  0
 13 16  1  0  0  0  0
 16 17  1  0  0  0  0
 16 18  1  0  0  0  0
 16 19  1  0  0  0  0
 19 20  1  0  0  0  0
 19 21  1  0  0  0  0
 19 22  1  0  0  0  0
  1 23  1  0  0  0  0
 23 24  1  0  0  0  0
 23 25  1  0  0  0  0
 23 26  1  0  0  0  0
M  END
> <VM2 Rank>
178

> <Conf_Id>
1114

> <Probability>
0.01

> <Sum Probability>
99.93

> <Delta G>
4.068

> <G>
79.535

> <E>
46.351

> <-TS>
33.184

> <U+W>
24.890

> <U>
75.063

> <W>
-50.172

> <W(PB)>
-52.327

> <W(SA)>
2.155

> <Valence>
5.293

> <Coulomb>
69.832

> <VdW>
-0.063

> <VdW6>
-9.167

> <VdW12>
9.104

> <Bond>
0.277

> <Angle>
1.740

> <Pdih>
3.276

> <Idih>
0.000

> <Tether>
0.000

$$$$
VeraChem MOL file


 26 25  0  0  0  0  0  0  0  0999 V2000     
   19.6817   18.4895   25.6682 N   0  3  0  0  0  0  0  0  0  0  0  0
   20.4815   18.2623   26.2794 H   0  0  0  0  0  0  0  0  0  0  0  0
   19.3300   17.5816   25.3271 H   0  0  0  0  0  0  0  0  0  0  0  0
   20.1399   19.3452   24.5048 C   0  0  0  0  0  0  0  0  0  0  0  0
   20.5225   20.2856   24.9093 H   0  0  0  0  0  0  0  0  0  0  0  0
   19.2650   19.5665   23.8889 H   0  0  0  0  0  0  0  0  0  0  0  0
   21.2252   18.6721   23.6429 C   0  0  0  0  0  0  0  0  0  0  0  0
   22.0901   18.4373   24.2774 H   0  0  0  0  0  0  0  0  0  0  0  0
   20.8617   17.7120   23.2570 H   0  0  0  0  0  0  0  0  0  0  0  0
   21.6962   19.5666   22.4715 C   0  0  0  0  0  0  0  0  0  0  0  0
   22.4738   19.0333   21.9076 H   0  0  0  0  0  0  0  0  0  0  0  0
   22.1876   20.4570   22.8876 H   0  0  0  0  0  0  0  0  0  0  0  0
   20.5868   20.0321   21.4894 C   0  0  0  0  0  0  0  0  0  0  0  0
   19.8450   20.6548   22.0071 H   0  0  0  0  0  0  0  0  0  0  0  0
   21.0623   20.6988   20.7567 H   0  0  0  0  0  0  0  0  0  0  0  0
   19.8838   18.8930   20.7058 C   0  0  0  0  0  0  0  0  0  0  0  0
   20.5828   18.0641   20.5271 H   0  0  0  0  0  0  0  0  0  0  0  0
   19.6104   19.2754   19.7122 H   0  0  0  0  0  0  0  0  0  0  0  0
   18.5938   18.3718   21.3815 C   0  0  0  0  0  0  0  0  0  0  0  0
   18.1027   17.6266   20.7425 H   0  0  0  0  0  0  0  0  0  0  0  0
   17.8791   19.1880   21.5483 H   0  0  0  0  0  0  0  0  0  0  0  0
   18.7951   17.8934   22.3453 H   0  0  0  0  0  0  0  0  0  0  0  0
   18.6006   19.2196   26.4529 C   0  0  0  0  0  0  0  0  0  0  0  0
   17.7523   19.4197   25.7947 H   0  0  0  0  0  0  0  0  0  0  0  0
   18.2798   18.5934   27.2884 H   0  0  0  0  0  0  0  0  0  0  0  0
   19.0055   20.1607   26.8315 H   0  0  0  0  0  0  0  0  0  0  0  0
  1  2  1  0  0  0  0
  1  3  1  0  0  0  0
  1  4  1  0  0  0  0
  4  5  1  0  0  0  0
  4  6  1  0  0  0  0
  4  7  1  0  0  0  0
  7  8  1  0  0  0  0
  7  9  1  0  0  0  0
  7 10  1  0  0  0  0
 10 11  1  0  0  0  0
 10 12  1  0  0  0  0
 10 13  1  0  0  0  0
 13 14  1  0  0  0  0
 13 15  1  0  0  0  0
 13 16  1  0  0  0  0
 16 17  1  0  0  0  0
 16 18  1  0  0  0  0
 16 19  1  0  0  0  0
 19 20  1  0  0  0  0
 19 21  1  0  0  0  0
 19 22  1  0  0  0  0
  1 23  1  0  0  0  0
 23 24  1  0  0  0  0
 23 25  1  0  0  0  0
 23 26  1  0  0  0  0
M  END
> <VM2 Rank>
179

> <Conf_Id>
1615

> <Probability>
0.01

> <Sum Probability>
99.94

> <Delta G>
4.074

> <G>
79.540

> <E>
46.662

> <-TS>
32.878

> <U+W>
25.200

> <U>
74.864

> <W>
-49.664

> <W(PB)>
-51.863

> <W(SA)>
2.199

> <Valence>
5.001

> <Coulomb>
70.004

> <VdW>
-0.141

> <VdW6>
-8.153

> <VdW12>
8.012

> <Bond>
0.241

> <Angle>
1.605

> <Pdih>
3.155

> <Idih>
0.000

> <Tether>
0.000

$$$$
VeraChem MOL file


 26 25  0  0  0  0  0  0  0  0999 V2000     
   19.8469   19.4835   26.0448 N   0  3  0  0  0  0  0  0  0  0  0  0
   19.3109   19.7702   26.8792 H   0  0  0  0  0  0  0  0  0  0  0  0
   20.3701   20.3251   25.7610 H   0  0  0  0  0  0  0  0  0  0  0  0
   18.8860   19.0672   24.9416 C   0  0  0  0  0  0  0  0  0  0  0  0
   18.1476   19.8656   24.8329 H   0  0  0  0  0  0  0  0  0  0  0  0
   18.3626   18.1704   25.2827 H   0  0  0  0  0  0  0  0  0  0  0  0
   19.5342   18.7927   23.5667 C   0  0  0  0  0  0  0  0  0  0  0  0
   20.2528   17.9674   23.6504 H   0  0  0  0  0  0  0  0  0  0  0  0
   18.7422   18.4539   22.8879 H   0  0  0  0  0  0  0  0  0  0  0  0
   20.2251   20.0422   22.9681 C   0  0  0  0  0  0  0  0  0  0  0  0
   20.9503   20.4387   23.6907 H   0  0  0  0  0  0  0  0  0  0  0  0
   19.4785   20.8341   22.8171 H   0  0  0  0  0  0  0  0  0  0  0  0
   20.9759   19.7814   21.6364 C   0  0  0  0  0  0  0  0  0  0  0  0
   21.4560   20.7238   21.3383 H   0  0  0  0  0  0  0  0  0  0  0  0
   21.7979   19.0707   21.7995 H   0  0  0  0  0  0  0  0  0  0  0  0
   20.0798   19.3053   20.4637 C   0  0  0  0  0  0  0  0  0  0  0  0
   20.4604   19.7455   19.5313 H   0  0  0  0  0  0  0  0  0  0  0  0
   19.0574   19.6900   20.5829 H   0  0  0  0  0  0  0  0  0  0  0  0
   20.0602   17.7683   20.2908 C   0  0  0  0  0  0  0  0  0  0  0  0
   19.6718   17.2572   21.1785 H   0  0  0  0  0  0  0  0  0  0  0  0
   21.0695   17.3835   20.0949 H   0  0  0  0  0  0  0  0  0  0  0  0
   19.4262   17.4857   19.4405 H   0  0  0  0  0  0  0  0  0  0  0  0
   20.7998   18.3495   26.4049 C   0  0  0  0  0  0  0  0  0  0  0  0
   20.2194   17.4786   26.7169 H   0  0  0  0  0  0  0  0  0  0  0  0
   21.4072   18.0978   25.5332 H   0  0  0  0  0  0  0  0  0  0  0  0
   21.4476   18.6733   27.2226 H   0  0  0  0  0  0  0  0  0  0  0  0
  1  2  1  0  0  0  0
  1  3  1  0  0  0  0
  1  4  1  0  0  0  0
  4  5  1  0  0  0  0
  4  6  1  0  0  0  0
  4  7  1  0  0  0  0
  7  8  1  0  0  0  0
  7  9  1  0  0  0  0
  7 10  1  0  0  0  0
 10 11  1  0  0  0  0
 10 12  1  0  0  0  0
 10 13  1  0  0  0  0
 13 14  1  0  0  0  0
 13 15  1  0  0  0  0
 13 16  1  0  0  0  0
 16 17  1  0  0  0  0
 16 18  1  0  0  0  0
 16 19  1  0  0  0  0
 19 20  1  0  0  0  0
 19 21  1  0  0  0  0
 19 22  1  0  0  0  0
  1 23  1  0  0  0  0
 23 24  1  0  0  0  0
 23 25  1  0  0  0  0
 23 26  1  0  0  0  0
M  END
> <VM2 Rank>
180

> <Conf_Id>
123

> <Probability>
0.01

> <Sum Probability>
99.94

> <Delta G>
4.096

> <G>
79.562

> <E>
46.770

> <-TS>
32.792

> <U+W>
25.308

> <U>
74.926

> <W>
-49.617

> <W(PB)>
-51.833

> <W(SA)>
2.215

> <Valence>
5.130

> <Coulomb>
69.227

> <VdW>
0.569

> <VdW6>
-8.233

> <VdW12>
8.801

> <Bond>
0.274

> <Angle>
1.422

> <Pdih>
3.434

> <Idih>
0.000

> <Tether>
0.000

$$$$
VeraChem MOL file


 26 25  0  0  0  0  0  0  0  0999 V2000     
   19.6588   18.7733   25.8615 N   0  3  0  0  0  0  0  0  0  0  0  0
   20.3783   19.1555   26.4944 H   0  0  0  0  0  0  0  0  0  0  0  0
   19.3017   17.9322   26.3418 H   0  0  0  0  0  0  0  0  0  0  0  0
   20.2846   18.3751   24.5356 C   0  0  0  0  0  0  0  0  0  0  0  0
   19.4858   18.0178   23.8814 H   0  0  0  0  0  0  0  0  0  0  0  0
   20.9605   17.5392   24.7329 H   0  0  0  0  0  0  0  0  0  0  0  0
   21.0741   19.5017   23.8357 C   0  0  0  0  0  0  0  0  0  0  0  0
   20.4172   20.3492   23.6082 H   0  0  0  0  0  0  0  0  0  0  0  0
   21.8356   19.8851   24.5275 H   0  0  0  0  0  0  0  0  0  0  0  0
   21.7751   19.0214   22.5426 C   0  0  0  0  0  0  0  0  0  0  0  0
   22.5350   18.2756   22.8142 H   0  0  0  0  0  0  0  0  0  0  0  0
   22.3280   19.8635   22.1039 H   0  0  0  0  0  0  0  0  0  0  0  0
   20.8471   18.4047   21.4609 C   0  0  0  0  0  0  0  0  0  0  0  0
   21.4923   18.0527   20.6439 H   0  0  0  0  0  0  0  0  0  0  0  0
   20.3486   17.5039   21.8433 H   0  0  0  0  0  0  0  0  0  0  0  0
   19.8069   19.3817   20.8535 C   0  0  0  0  0  0  0  0  0  0  0  0
   19.6434   19.1024   19.8032 H   0  0  0  0  0  0  0  0  0  0  0  0
   20.2089   20.4042   20.8339 H   0  0  0  0  0  0  0  0  0  0  0  0
   18.4346   19.3579   21.5665 C   0  0  0  0  0  0  0  0  0  0  0  0
   18.0143   18.3439   21.5787 H   0  0  0  0  0  0  0  0  0  0  0  0
   17.7209   20.0066   21.0425 H   0  0  0  0  0  0  0  0  0  0  0  0
   18.4996   19.7121   22.5999 H   0  0  0  0  0  0  0  0  0  0  0  0
   18.5267   19.7742   25.6607 C   0  0  0  0  0  0  0  0  0  0  0  0
   17.7705   19.3339   25.0071 H   0  0  0  0  0  0  0  0  0  0  0  0
   18.0831   20.0105   26.6304 H   0  0  0  0  0  0  0  0  0  0  0  0
   18.9246   20.6844   25.2077 H   0  0  0  0  0  0  0  0  0  0  0  0
  1  2  1  0  0  0  0
  1  3  1  0  0  0  0
  1  4  1  0  0  0  0
  4  5  1  0  0  0  0
  4  6  1  0  0  0  0
  4  7  1  0  0  0  0
  7  8  1  0  0  0  0
  7  9  1  0  0  0  0
  7 10  1  0  0  0  0
 10 11  1  0  0  0  0
 10 12  1  0  0  0  0
 10 13  1  0  0  0  0
 13 14  1  0  0  0  0
 13 15  1  0  0  0  0
 13 16  1  0  0  0  0
 16 17  1  0  0  0  0
 16 18  1  0  0  0  0
 16 19  1  0  0  0  0
 19 20  1  0  0  0  0
 19 21  1  0  0  0  0
 19 22  1  0  0  0  0
  1 23  1  0  0  0  0
 23 24  1  0  0  0  0
 23 25  1  0  0  0  0
 23 26  1  0  0  0  0
M  END
> <VM2 Rank>
181

> <Conf_Id>
1596

> <Probability>
0.01

> <Sum Probability>
99.95

> <Delta G>
4.132

> <G>
79.598

> <E>
46.415

> <-TS>
33.184

> <U+W>
24.953

> <U>
75.063

> <W>
-50.110

> <W(PB)>
-52.261

> <W(SA)>
2.151

> <Valence>
5.293

> <Coulomb>
69.832

> <VdW>
-0.063

> <VdW6>
-9.167

> <VdW12>
9.104

> <Bond>
0.277

> <Angle>
1.740

> <Pdih>
3.276

> <Idih>
0.000

> <Tether>
0.000

$$$$
VeraChem MOL file


 26 25  0  0  0  0  0  0  0  0999 V2000     
   20.3511   18.2646   25.8772 N   0  3  0  0  0  0  0  0  0  0  0  0
   21.2277   18.0745   26.3884 H   0  0  0  0  0  0  0  0  0  0  0  0
   20.0443   17.3453   25.5236 H   0  0  0  0  0  0  0  0  0  0  0  0
   20.6332   19.2062   24.7182 C   0  0  0  0  0  0  0  0  0  0  0  0
   21.4985   18.8072   24.1842 H   0  0  0  0  0  0  0  0  0  0  0  0
   20.9106   20.1780   25.1342 H   0  0  0  0  0  0  0  0  0  0  0  0
   19.4595   19.3749   23.7292 C   0  0  0  0  0  0  0  0  0  0  0  0
   19.1526   18.3916   23.3567 H   0  0  0  0  0  0  0  0  0  0  0  0
   18.5945   19.7869   24.2644 H   0  0  0  0  0  0  0  0  0  0  0  0
   19.8045   20.3229   22.5525 C   0  0  0  0  0  0  0  0  0  0  0  0
   20.1409   21.2802   22.9745 H   0  0  0  0  0  0  0  0  0  0  0  0
   18.8929   20.5552   21.9851 H   0  0  0  0  0  0  0  0  0  0  0  0
   20.8992   19.7936   21.5856 C   0  0  0  0  0  0  0  0  0  0  0  0
   21.4719   20.6562   21.2175 H   0  0  0  0  0  0  0  0  0  0  0  0
   21.6253   19.1669   22.1187 H   0  0  0  0  0  0  0  0  0  0  0  0
   20.3592   19.0347   20.3464 C   0  0  0  0  0  0  0  0  0  0  0  0
   21.2089   18.7793   19.6979 H   0  0  0  0  0  0  0  0  0  0  0  0
   19.7166   19.7021   19.7553 H   0  0  0  0  0  0  0  0  0  0  0  0
   19.5856   17.7401   20.6790 C   0  0  0  0  0  0  0  0  0  0  0  0
   20.1728   17.0839   21.3343 H   0  0  0  0  0  0  0  0  0  0  0  0
   19.3594   17.1824   19.7610 H   0  0  0  0  0  0  0  0  0  0  0  0
   18.6299   17.9619   21.1692 H   0  0  0  0  0  0  0  0  0  0  0  0
   19.3157   18.8530   26.8290 C   0  0  0  0  0  0  0  0  0  0  0  0
   19.1696   18.1667   27.6661 H   0  0  0  0  0  0  0  0  0  0  0  0
   19.6751   19.8153   27.1997 H   0  0  0  0  0  0  0  0  0  0  0  0
   18.3716   18.9893   26.2978 H   0  0  0  0  0  0  0  0  0  0  0  0
  1  2  1  0  0  0  0
  1  3  1  0  0  0  0
  1  4  1  0  0  0  0
  4  5  1  0  0  0  0
  4  6  1  0  0  0  0
  4  7  1  0  0  0  0
  7  8  1  0  0  0  0
  7  9  1  0  0  0  0
  7 10  1  0  0  0  0
 10 11  1  0  0  0  0
 10 12  1  0  0  0  0
 10 13  1  0  0  0  0
 13 14  1  0  0  0  0
 13 15  1  0  0  0  0
 13 16  1  0  0  0  0
 16 17  1  0  0  0  0
 16 18  1  0  0  0  0
 16 19  1  0  0  0  0
 19 20  1  0  0  0  0
 19 21  1  0  0  0  0
 19 22  1  0  0  0  0
  1 23  1  0  0  0  0
 23 24  1  0  0  0  0
 23 25  1  0  0  0  0
 23 26  1  0  0  0  0
M  END
> <VM2 Rank>
182

> <Conf_Id>
262

> <Probability>
0.01

> <Sum Probability>
99.96

> <Delta G>
4.268

> <G>
79.735

> <E>
47.025

> <-TS>
32.709

> <U+W>
25.564

> <U>
75.336

> <W>
-49.772

> <W(PB)>
-51.994

> <W(SA)>
2.221

> <Valence>
5.408

> <Coulomb>
69.355

> <VdW>
0.572

> <VdW6>
-8.078

> <VdW12>
8.651

> <Bond>
0.286

> <Angle>
1.495

> <Pdih>
3.627

> <Idih>
0.000

> <Tether>
0.000

$$$$
VeraChem MOL file


 26 25  0  0  0  0  0  0  0  0999 V2000     
   19.6734   19.1935   25.6758 N   0  3  0  0  0  0  0  0  0  0  0  0
   19.1477   18.4166   26.1053 H   0  0  0  0  0  0  0  0  0  0  0  0
   18.9672   19.7802   25.2065 H   0  0  0  0  0  0  0  0  0  0  0  0
   20.6588   18.6560   24.6566 C   0  0  0  0  0  0  0  0  0  0  0  0
   21.3825   18.0362   25.1919 H   0  0  0  0  0  0  0  0  0  0  0  0
   21.1950   19.5049   24.2266 H   0  0  0  0  0  0  0  0  0  0  0  0
   20.0068   17.8237   23.5326 C   0  0  0  0  0  0  0  0  0  0  0  0
   20.7991   17.4395   22.8816 H   0  0  0  0  0  0  0  0  0  0  0  0
   19.5340   16.9386   23.9784 H   0  0  0  0  0  0  0  0  0  0  0  0
   18.9464   18.5933   22.6980 C   0  0  0  0  0  0  0  0  0  0  0  0
   18.1163   18.8672   23.3626 H   0  0  0  0  0  0  0  0  0  0  0  0
   18.5066   17.9165   21.9526 H   0  0  0  0  0  0  0  0  0  0  0  0
   19.4560   19.8805   21.9920 C   0  0  0  0  0  0  0  0  0  0  0  0
   18.6115   20.5798   21.9199 H   0  0  0  0  0  0  0  0  0  0  0  0
   20.2065   20.3966   22.6037 H   0  0  0  0  0  0  0  0  0  0  0  0
   19.9994   19.6716   20.5552 C   0  0  0  0  0  0  0  0  0  0  0  0
   20.2414   20.6564   20.1317 H   0  0  0  0  0  0  0  0  0  0  0  0
   19.2083   19.2539   19.9168 H   0  0  0  0  0  0  0  0  0  0  0  0
   21.2553   18.7776   20.4674 C   0  0  0  0  0  0  0  0  0  0  0  0
   22.0254   19.1016   21.1793 H   0  0  0  0  0  0  0  0  0  0  0  0
   21.6884   18.8244   19.4598 H   0  0  0  0  0  0  0  0  0  0  0  0
   21.0108   17.7275   20.6659 H   0  0  0  0  0  0  0  0  0  0  0  0
   20.4118   19.9938   26.7395 C   0  0  0  0  0  0  0  0  0  0  0  0
   20.9336   20.8273   26.2642 H   0  0  0  0  0  0  0  0  0  0  0  0
   19.6906   20.3757   27.4655 H   0  0  0  0  0  0  0  0  0  0  0  0
   21.1320   19.3443   27.2418 H   0  0  0  0  0  0  0  0  0  0  0  0
  1  2  1  0  0  0  0
  1  3  1  0  0  0  0
  1  4  1  0  0  0  0
  4  5  1  0  0  0  0
  4  6  1  0  0  0  0
  4  7  1  0  0  0  0
  7  8  1  0  0  0  0
  7  9  1  0  0  0  0
  7 10  1  0  0  0  0
 10 11  1  0  0  0  0
 10 12  1  0  0  0  0
 10 13  1  0  0  0  0
 13 14  1  0  0  0  0
 13 15  1  0  0  0  0
 13 16  1  0  0  0  0
 16 17  1  0  0  0  0
 16 18  1  0  0  0  0
 16 19  1  0  0  0  0
 19 20  1  0  0  0  0
 19 21  1  0  0  0  0
 19 22  1  0  0  0  0
  1 23  1  0  0  0  0
 23 24  1  0  0  0  0
 23 25  1  0  0  0  0
 23 26  1  0  0  0  0
M  END
> <VM2 Rank>
183

> <Conf_Id>
461

> <Probability>
0.01

> <Sum Probability>
99.96

> <Delta G>
4.279

> <G>
79.746

> <E>
47.311

> <-TS>
32.435

> <U+W>
25.849

> <U>
75.363

> <W>
-49.514

> <W(PB)>
-51.743

> <W(SA)>
2.229

> <Valence>
5.261

> <Coulomb>
69.863

> <VdW>
0.239

> <VdW6>
-8.242

> <VdW12>
8.481

> <Bond>
0.287

> <Angle>
1.777

> <Pdih>
3.198

> <Idih>
0.000

> <Tether>
0.000

$$$$
VeraChem MOL file


 26 25  0  0  0  0  0  0  0  0999 V2000     
   18.9809   19.3527   25.0074 N   0  3  0  0  0  0  0  0  0  0  0  0
   17.9825   19.1080   25.1023 H   0  0  0  0  0  0  0  0  0  0  0  0
   19.0178   20.0640   24.2625 H   0  0  0  0  0  0  0  0  0  0  0  0
   19.7714   18.1227   24.5896 C   0  0  0  0  0  0  0  0  0  0  0  0
   19.2595   17.6707   23.7378 H   0  0  0  0  0  0  0  0  0  0  0  0
   19.7306   17.4085   25.4158 H   0  0  0  0  0  0  0  0  0  0  0  0
   21.2452   18.3876   24.2131 C   0  0  0  0  0  0  0  0  0  0  0  0
   21.7856   18.7156   25.1105 H   0  0  0  0  0  0  0  0  0  0  0  0
   21.7080   17.4361   23.9200 H   0  0  0  0  0  0  0  0  0  0  0  0
   21.4659   19.4321   23.0862 C   0  0  0  0  0  0  0  0  0  0  0  0
   22.5496   19.5934   23.0026 H   0  0  0  0  0  0  0  0  0  0  0  0
   21.0495   20.4069   23.3729 H   0  0  0  0  0  0  0  0  0  0  0  0
   20.9448   19.0098   21.6871 C   0  0  0  0  0  0  0  0  0  0  0  0
   21.5479   19.5303   20.9301 H   0  0  0  0  0  0  0  0  0  0  0  0
   21.1213   17.9372   21.5278 H   0  0  0  0  0  0  0  0  0  0  0  0
   19.4572   19.3520   21.4293 C   0  0  0  0  0  0  0  0  0  0  0  0
   19.2856   20.4221   21.6109 H   0  0  0  0  0  0  0  0  0  0  0  0
   18.8064   18.8032   22.1187 H   0  0  0  0  0  0  0  0  0  0  0  0
   19.0405   19.0115   19.9825 C   0  0  0  0  0  0  0  0  0  0  0  0
   19.1722   17.9415   19.7754 H   0  0  0  0  0  0  0  0  0  0  0  0
   19.6379   19.5764   19.2551 H   0  0  0  0  0  0  0  0  0  0  0  0
   17.9843   19.2593   19.8146 H   0  0  0  0  0  0  0  0  0  0  0  0
   19.5022   19.9215   26.3218 C   0  0  0  0  0  0  0  0  0  0  0  0
   19.4369   19.1536   27.0957 H   0  0  0  0  0  0  0  0  0  0  0  0
   20.5412   20.2316   26.1939 H   0  0  0  0  0  0  0  0  0  0  0  0
   18.8936   20.7831   26.6050 H   0  0  0  0  0  0  0  0  0  0  0  0
  1  2  1  0  0  0  0
  1  3  1  0  0  0  0
  1  4  1  0  0  0  0
  4  5  1  0  0  0  0
  4  6  1  0  0  0  0
  4  7  1  0  0  0  0
  7  8  1  0  0  0  0
  7  9  1  0  0  0  0
  7 10  1  0  0  0  0
 10 11  1  0  0  0  0
 10 12  1  0  0  0  0
 10 13  1  0  0  0  0
 13 14  1  0  0  0  0
 13 15  1  0  0  0  0
 13 16  1  0  0  0  0
 16 17  1  0  0  0  0
 16 18  1  0  0  0  0
 16 19  1  0  0  0  0
 19 20  1  0  0  0  0
 19 21  1  0  0  0  0
 19 22  1  0  0  0  0
  1 23  1  0  0  0  0
 23 24  1  0  0  0  0
 23 25  1  0  0  0  0
 23 26  1  0  0  0  0
M  END
> <VM2 Rank>
184

> <Conf_Id>
1259

> <Probability>
0.01

> <Sum Probability>
99.97

> <Delta G>
4.289

> <G>
79.755

> <E>
46.886

> <-TS>
32.869

> <U+W>
25.424

> <U>
75.499

> <W>
-50.075

> <W(PB)>
-52.287

> <W(SA)>
2.213

> <Valence>
4.692

> <Coulomb>
70.717

> <VdW>
0.090

> <VdW6>
-8.741

> <VdW12>
8.830

> <Bond>
0.270

> <Angle>
1.624

> <Pdih>
2.798

> <Idih>
0.000

> <Tether>
0.000

$$$$
VeraChem MOL file


 26 25  0  0  0  0  0  0  0  0999 V2000     
   20.9194   19.5517   25.0760 N   0  3  0  0  0  0  0  0  0  0  0  0
   20.7910   20.2460   24.3254 H   0  0  0  0  0  0  0  0  0  0  0  0
   21.9375   19.5138   25.2422 H   0  0  0  0  0  0  0  0  0  0  0  0
   20.4260   18.1900   24.6127 C   0  0  0  0  0  0  0  0  0  0  0  0
   20.5529   17.4929   25.4448 H   0  0  0  0  0  0  0  0  0  0  0  0
   21.0772   17.8574   23.8020 H   0  0  0  0  0  0  0  0  0  0  0  0
   18.9591   18.1531   24.1322 C   0  0  0  0  0  0  0  0  0  0  0  0
   18.7205   17.1296   23.8144 H   0  0  0  0  0  0  0  0  0  0  0  0
   18.3019   18.3583   24.9871 H   0  0  0  0  0  0  0  0  0  0  0  0
   18.6106   19.1391   22.9850 C   0  0  0  0  0  0  0  0  0  0  0  0
   18.7995   20.1761   23.2931 H   0  0  0  0  0  0  0  0  0  0  0  0
   17.5253   19.0778   22.8246 H   0  0  0  0  0  0  0  0  0  0  0  0
   19.3032   18.8413   21.6290 C   0  0  0  0  0  0  0  0  0  0  0  0
   19.3598   17.7563   21.4656 H   0  0  0  0  0  0  0  0  0  0  0  0
   18.6615   19.2337   20.8278 H   0  0  0  0  0  0  0  0  0  0  0  0
   20.7046   19.4802   21.4733 C   0  0  0  0  0  0  0  0  0  0  0  0
   21.4034   19.0703   22.2107 H   0  0  0  0  0  0  0  0  0  0  0  0
   20.6422   20.5616   21.6584 H   0  0  0  0  0  0  0  0  0  0  0  0
   21.2822   19.2414   20.0619 C   0  0  0  0  0  0  0  0  0  0  0  0
   21.3854   18.1683   19.8542 H   0  0  0  0  0  0  0  0  0  0  0  0
   22.2751   19.6997   19.9665 H   0  0  0  0  0  0  0  0  0  0  0  0
   20.6349   19.6781   19.2902 H   0  0  0  0  0  0  0  0  0  0  0  0
   20.2030   19.9933   26.3468 C   0  0  0  0  0  0  0  0  0  0  0  0
   20.3685   19.2490   27.1287 H   0  0  0  0  0  0  0  0  0  0  0  0
   20.6028   20.9584   26.6657 H   0  0  0  0  0  0  0  0  0  0  0  0
   19.1341   20.0871   26.1444 H   0  0  0  0  0  0  0  0  0  0  0  0
  1  2  1  0  0  0  0
  1  3  1  0  0  0  0
  1  4  1  0  0  0  0
  4  5  1  0  0  0  0
  4  6  1  0  0  0  0
  4  7  1  0  0  0  0
  7  8  1  0  0  0  0
  7  9  1  0  0  0  0
  7 10  1  0  0  0  0
 10 11  1  0  0  0  0
 10 12  1  0  0  0  0
 10 13  1  0  0  0  0
 13 14  1  0  0  0  0
 13 15  1  0  0  0  0
 13 16  1  0  0  0  0
 16 17  1  0  0  0  0
 16 18  1  0  0  0  0
 16 19  1  0  0  0  0
 19 20  1  0  0  0  0
 19 21  1  0  0  0  0
 19 22  1  0  0  0  0
  1 23  1  0  0  0  0
 23 24  1  0  0  0  0
 23 25  1  0  0  0  0
 23 26  1  0  0  0  0
M  END
> <VM2 Rank>
185

> <Conf_Id>
1585

> <Probability>
0.00

> <Sum Probability>
99.97

> <Delta G>
4.386

> <G>
79.852

> <E>
46.983

> <-TS>
32.870

> <U+W>
25.521

> <U>
75.499

> <W>
-49.978

> <W(PB)>
-52.163

> <W(SA)>
2.185

> <Valence>
4.692

> <Coulomb>
70.717

> <VdW>
0.090

> <VdW6>
-8.740

> <VdW12>
8.830

> <Bond>
0.270

> <Angle>
1.623

> <Pdih>
2.799

> <Idih>
0.000

> <Tether>
0.000

$$$$
VeraChem MOL file


 26 25  0  0  0  0  0  0  0  0999 V2000     
   20.0574   18.0309   25.5307 N   0  3  0  0  0  0  0  0  0  0  0  0
   20.9290   17.5684   25.2301 H   0  0  0  0  0  0  0  0  0  0  0  0
   19.4139   17.2595   25.7689 H   0  0  0  0  0  0  0  0  0  0  0  0
   19.4729   18.8465   24.3896 C   0  0  0  0  0  0  0  0  0  0  0  0
   18.5795   19.3544   24.7613 H   0  0  0  0  0  0  0  0  0  0  0  0
   19.1639   18.1415   23.6143 H   0  0  0  0  0  0  0  0  0  0  0  0
   20.4440   19.8768   23.7745 C   0  0  0  0  0  0  0  0  0  0  0  0
   20.7403   20.6008   24.5442 H   0  0  0  0  0  0  0  0  0  0  0  0
   21.3677   19.3812   23.4528 H   0  0  0  0  0  0  0  0  0  0  0  0
   19.8196   20.6503   22.5886 C   0  0  0  0  0  0  0  0  0  0  0  0
   20.5547   21.3740   22.2106 H   0  0  0  0  0  0  0  0  0  0  0  0
   18.9792   21.2492   22.9663 H   0  0  0  0  0  0  0  0  0  0  0  0
   19.3109   19.7809   21.4066 C   0  0  0  0  0  0  0  0  0  0  0  0
   18.5005   19.1156   21.7329 H   0  0  0  0  0  0  0  0  0  0  0  0
   18.8489   20.4628   20.6792 H   0  0  0  0  0  0  0  0  0  0  0  0
   20.4087   18.9733   20.6662 C   0  0  0  0  0  0  0  0  0  0  0  0
   21.3643   19.5152   20.6913 H   0  0  0  0  0  0  0  0  0  0  0  0
   20.1299   18.9039   19.6053 H   0  0  0  0  0  0  0  0  0  0  0  0
   20.5935   17.5335   21.2001 C   0  0  0  0  0  0  0  0  0  0  0  0
   20.9556   17.5181   22.2330 H   0  0  0  0  0  0  0  0  0  0  0  0
   21.3257   16.9907   20.5884 H   0  0  0  0  0  0  0  0  0  0  0  0
   19.6495   16.9747   21.1609 H   0  0  0  0  0  0  0  0  0  0  0  0
   20.3012   18.8978   26.7607 C   0  0  0  0  0  0  0  0  0  0  0  0
   19.3597   19.3593   27.0665 H   0  0  0  0  0  0  0  0  0  0  0  0
   20.6842   18.2711   27.5691 H   0  0  0  0  0  0  0  0  0  0  0  0
   21.0323   19.6718   26.5189 H   0  0  0  0  0  0  0  0  0  0  0  0
  1  2  1  0  0  0  0
  1  3  1  0  0  0  0
  1  4  1  0  0  0  0
  4  5  1  0  0  0  0
  4  6  1  0  0  0  0
  4  7  1  0  0  0  0
  7  8  1  0  0  0  0
  7  9  1  0  0  0  0
  7 10  1  0  0  0  0
 10 11  1  0  0  0  0
 10 12  1  0  0  0  0
 10 13  1  0  0  0  0
 13 14  1  0  0  0  0
 13 15  1  0  0  0  0
 13 16  1  0  0  0  0
 16 17  1  0  0  0  0
 16 18  1  0  0  0  0
 16 19  1  0  0  0  0
 19 20  1  0  0  0  0
 19 21  1  0  0  0  0
 19 22  1  0  0  0  0
  1 23  1  0  0  0  0
 23 24  1  0  0  0  0
 23 25  1  0  0  0  0
 23 26  1  0  0  0  0
M  END
> <VM2 Rank>
186

> <Conf_Id>
256

> <Probability>
0.00

> <Sum Probability>
99.97

> <Delta G>
4.462

> <G>
79.928

> <E>
46.879

> <-TS>
33.050

> <U+W>
25.417

> <U>
75.440

> <W>
-50.023

> <W(PB)>
-52.249

> <W(SA)>
2.226

> <Valence>
5.297

> <Coulomb>
69.959

> <VdW>
0.184

> <VdW6>
-8.774

> <VdW12>
8.958

> <Bond>
0.280

> <Angle>
1.737

> <Pdih>
3.281

> <Idih>
0.000

> <Tether>
0.000

$$$$
VeraChem MOL file


 26 25  0  0  0  0  0  0  0  0999 V2000     
   20.1354   19.2910   25.5461 N   0  3  0  0  0  0  0  0  0  0  0  0
   20.8935   19.8832   25.1753 H   0  0  0  0  0  0  0  0  0  0  0  0
   20.5967   18.6040   26.1623 H   0  0  0  0  0  0  0  0  0  0  0  0
   19.4308   18.5800   24.4077 C   0  0  0  0  0  0  0  0  0  0  0  0
   18.9495   19.3381   23.7855 H   0  0  0  0  0  0  0  0  0  0  0  0
   18.6506   17.9500   24.8423 H   0  0  0  0  0  0  0  0  0  0  0  0
   20.3670   17.7136   23.5403 C   0  0  0  0  0  0  0  0  0  0  0  0
   20.8211   16.9375   24.1705 H   0  0  0  0  0  0  0  0  0  0  0  0
   19.7732   17.1754   22.7917 H   0  0  0  0  0  0  0  0  0  0  0  0
   21.4901   18.5151   22.8345 C   0  0  0  0  0  0  0  0  0  0  0  0
   22.0772   17.8264   22.2115 H   0  0  0  0  0  0  0  0  0  0  0  0
   22.1899   18.8900   23.5934 H   0  0  0  0  0  0  0  0  0  0  0  0
   21.0218   19.7115   21.9620 C   0  0  0  0  0  0  0  0  0  0  0  0
   20.4911   20.4556   22.5706 H   0  0  0  0  0  0  0  0  0  0  0  0
   21.9259   20.2231   21.6037 H   0  0  0  0  0  0  0  0  0  0  0  0
   20.1759   19.3272   20.7200 C   0  0  0  0  0  0  0  0  0  0  0  0
   20.4994   18.3549   20.3233 H   0  0  0  0  0  0  0  0  0  0  0  0
   20.3792   20.0589   19.9255 H   0  0  0  0  0  0  0  0  0  0  0  0
   18.6505   19.3219   20.9754 C   0  0  0  0  0  0  0  0  0  0  0  0
   18.3127   20.2904   21.3661 H   0  0  0  0  0  0  0  0  0  0  0  0
   18.3522   18.5442   21.6857 H   0  0  0  0  0  0  0  0  0  0  0  0
   18.1081   19.1345   20.0396 H   0  0  0  0  0  0  0  0  0  0  0  0
   19.1366   20.1297   26.3310 C   0  0  0  0  0  0  0  0  0  0  0  0
   18.3613   19.4769   26.7380 H   0  0  0  0  0  0  0  0  0  0  0  0
   19.6572   20.6368   27.1464 H   0  0  0  0  0  0  0  0  0  0  0  0
   18.6861   20.8686   25.6647 H   0  0  0  0  0  0  0  0  0  0  0  0
  1  2  1  0  0  0  0
  1  3  1  0  0  0  0
  1  4  1  0  0  0  0
  4  5  1  0  0  0  0
  4  6  1  0  0  0  0
  4  7  1  0  0  0  0
  7  8  1  0  0  0  0
  7  9  1  0  0  0  0
  7 10  1  0  0  0  0
 10 11  1  0  0  0  0
 10 12  1  0  0  0  0
 10 13  1  0  0  0  0
 13 14  1  0  0  0  0
 13 15  1  0  0  0  0
 13 16  1  0  0  0  0
 16 17  1  0  0  0  0
 16 18  1  0  0  0  0
 16 19  1  0  0  0  0
 19 20  1  0  0  0  0
 19 21  1  0  0  0  0
 19 22  1  0  0  0  0
  1 23  1  0  0  0  0
 23 24  1  0  0  0  0
 23 25  1  0  0  0  0
 23 26  1  0  0  0  0
M  END
> <VM2 Rank>
187

> <Conf_Id>
538

> <Probability>
0.00

> <Sum Probability>
99.98

> <Delta G>
4.477

> <G>
79.944

> <E>
46.915

> <-TS>
33.029

> <U+W>
25.453

> <U>
75.077

> <W>
-49.624

> <W(PB)>
-51.822

> <W(SA)>
2.198

> <Valence>
5.122

> <Coulomb>
70.113

> <VdW>
-0.158

> <VdW6>
-8.845

> <VdW12>
8.687

> <Bond>
0.261

> <Angle>
1.747

> <Pdih>
3.114

> <Idih>
0.000

> <Tether>
0.000

$$$$
VeraChem MOL file


 26 25  0  0  0  0  0  0  0  0999 V2000     
   19.7663   19.2528   25.5330 N   0  3  0  0  0  0  0  0  0  0  0  0
   19.4135   18.4815   26.1205 H   0  0  0  0  0  0  0  0  0  0  0  0
   18.9309   19.6799   25.1058 H   0  0  0  0  0  0  0  0  0  0  0  0
   20.6793   18.7092   24.4519 C   0  0  0  0  0  0  0  0  0  0  0  0
   21.5396   18.2491   24.9445 H   0  0  0  0  0  0  0  0  0  0  0  0
   21.0376   19.5543   23.8594 H   0  0  0  0  0  0  0  0  0  0  0  0
   20.0031   17.6760   23.5274 C   0  0  0  0  0  0  0  0  0  0  0  0
   20.7454   17.2760   22.8261 H   0  0  0  0  0  0  0  0  0  0  0  0
   19.6744   16.8188   24.1299 H   0  0  0  0  0  0  0  0  0  0  0  0
   18.7921   18.2358   22.7390 C   0  0  0  0  0  0  0  0  0  0  0  0
   17.9790   18.4542   23.4443 H   0  0  0  0  0  0  0  0  0  0  0  0
   18.4033   17.4461   22.0814 H   0  0  0  0  0  0  0  0  0  0  0  0
   19.0656   19.5090   21.8927 C   0  0  0  0  0  0  0  0  0  0  0  0
   18.1033   19.8274   21.4683 H   0  0  0  0  0  0  0  0  0  0  0  0
   19.3889   20.3416   22.5316 H   0  0  0  0  0  0  0  0  0  0  0  0
   20.0571   19.3149   20.7159 C   0  0  0  0  0  0  0  0  0  0  0  0
   19.7644   19.9952   19.9037 H   0  0  0  0  0  0  0  0  0  0  0  0
   19.9679   18.2998   20.3046 H   0  0  0  0  0  0  0  0  0  0  0  0
   21.5295   19.6199   21.0774 C   0  0  0  0  0  0  0  0  0  0  0  0
   21.6339   20.6342   21.4838 H   0  0  0  0  0  0  0  0  0  0  0  0
   22.1630   19.5542   20.1833 H   0  0  0  0  0  0  0  0  0  0  0  0
   21.9302   18.9146   21.8125 H   0  0  0  0  0  0  0  0  0  0  0  0
   20.5150   20.2724   26.3797 C   0  0  0  0  0  0  0  0  0  0  0  0
   20.8502   21.0927   25.7412 H   0  0  0  0  0  0  0  0  0  0  0  0
   19.8459   20.6564   27.1529 H   0  0  0  0  0  0  0  0  0  0  0  0
   21.3770   19.7891   26.8447 H   0  0  0  0  0  0  0  0  0  0  0  0
  1  2  1  0  0  0  0
  1  3  1  0  0  0  0
  1  4  1  0  0  0  0
  4  5  1  0  0  0  0
  4  6  1  0  0  0  0
  4  7  1  0  0  0  0
  7  8  1  0  0  0  0
  7  9  1  0  0  0  0
  7 10  1  0  0  0  0
 10 11  1  0  0  0  0
 10 12  1  0  0  0  0
 10 13  1  0  0  0  0
 13 14  1  0  0  0  0
 13 15  1  0  0  0  0
 13 16  1  0  0  0  0
 16 17  1  0  0  0  0
 16 18  1  0  0  0  0
 16 19  1  0  0  0  0
 19 20  1  0  0  0  0
 19 21  1  0  0  0  0
 19 22  1  0  0  0  0
  1 23  1  0  0  0  0
 23 24  1  0  0  0  0
 23 25  1  0  0  0  0
 23 26  1  0  0  0  0
M  END
> <VM2 Rank>
188

> <Conf_Id>
570

> <Probability>
0.00

> <Sum Probability>
99.98

> <Delta G>
4.536

> <G>
80.003

> <E>
46.974

> <-TS>
33.029

> <U+W>
25.512

> <U>
75.077

> <W>
-49.565

> <W(PB)>
-51.762

> <W(SA)>
2.197

> <Valence>
5.122

> <Coulomb>
70.113

> <VdW>
-0.157

> <VdW6>
-8.845

> <VdW12>
8.688

> <Bond>
0.261

> <Angle>
1.747

> <Pdih>
3.114

> <Idih>
0.000

> <Tether>
0.000

$$$$
VeraChem MOL file


 26 25  0  0  0  0  0  0  0  0999 V2000     
   19.5438   18.3563   25.3790 N   0  3  0  0  0  0  0  0  0  0  0  0
   19.3809   17.3736   25.6500 H   0  0  0  0  0  0  0  0  0  0  0  0
   18.6599   18.6688   24.9504 H   0  0  0  0  0  0  0  0  0  0  0  0
   20.6682   18.4250   24.3581 C   0  0  0  0  0  0  0  0  0  0  0  0
   20.4459   17.6916   23.5793 H   0  0  0  0  0  0  0  0  0  0  0  0
   21.5898   18.1159   24.8575 H   0  0  0  0  0  0  0  0  0  0  0  0
   20.8728   19.8093   23.7021 C   0  0  0  0  0  0  0  0  0  0  0  0
   21.1704   20.5342   24.4705 H   0  0  0  0  0  0  0  0  0  0  0  0
   21.7195   19.7585   23.0072 H   0  0  0  0  0  0  0  0  0  0  0  0
   19.6222   20.3436   22.9594 C   0  0  0  0  0  0  0  0  0  0  0  0
   19.8695   21.3117   22.5025 H   0  0  0  0  0  0  0  0  0  0  0  0
   18.8383   20.5608   23.6974 H   0  0  0  0  0  0  0  0  0  0  0  0
   19.0305   19.4074   21.8707 C   0  0  0  0  0  0  0  0  0  0  0  0
   18.7082   18.4532   22.3079 H   0  0  0  0  0  0  0  0  0  0  0  0
   18.1106   19.8819   21.5020 H   0  0  0  0  0  0  0  0  0  0  0  0
   19.9527   19.1570   20.6490 C   0  0  0  0  0  0  0  0  0  0  0  0
   20.5675   20.0448   20.4458 H   0  0  0  0  0  0  0  0  0  0  0  0
   19.3189   19.0206   19.7614 H   0  0  0  0  0  0  0  0  0  0  0  0
   20.8485   17.9036   20.7845 C   0  0  0  0  0  0  0  0  0  0  0  0
   21.4081   17.7328   19.8557 H   0  0  0  0  0  0  0  0  0  0  0  0
   20.2455   17.0070   20.9778 H   0  0  0  0  0  0  0  0  0  0  0  0
   21.5808   18.0032   21.5921 H   0  0  0  0  0  0  0  0  0  0  0  0
   19.8693   19.1879   26.6142 C   0  0  0  0  0  0  0  0  0  0  0  0
   20.7999   18.8251   27.0557 H   0  0  0  0  0  0  0  0  0  0  0  0
   19.9792   20.2352   26.3256 H   0  0  0  0  0  0  0  0  0  0  0  0
   19.0555   19.0892   27.3361 H   0  0  0  0  0  0  0  0  0  0  0  0
  1  2  1  0  0  0  0
  1  3  1  0  0  0  0
  1  4  1  0  0  0  0
  4  5  1  0  0  0  0
  4  6  1  0  0  0  0
  4  7  1  0  0  0  0
  7  8  1  0  0  0  0
  7  9  1  0  0  0  0
  7 10  1  0  0  0  0
 10 11  1  0  0  0  0
 10 12  1  0  0  0  0
 10 13  1  0  0  0  0
 13 14  1  0  0  0  0
 13 15  1  0  0  0  0
 13 16  1  0  0  0  0
 16 17  1  0  0  0  0
 16 18  1  0  0  0  0
 16 19  1  0  0  0  0
 19 20  1  0  0  0  0
 19 21  1  0  0  0  0
 19 22  1  0  0  0  0
  1 23  1  0  0  0  0
 23 24  1  0  0  0  0
 23 25  1  0  0  0  0
 23 26  1  0  0  0  0
M  END
> <VM2 Rank>
189

> <Conf_Id>
540

> <Probability>
0.00

> <Sum Probability>
99.98

> <Delta G>
4.653

> <G>
80.120

> <E>
46.867

> <-TS>
33.253

> <U+W>
25.405

> <U>
75.588

> <W>
-50.183

> <W(PB)>
-52.343

> <W(SA)>
2.160

> <Valence>
5.384

> <Coulomb>
70.118

> <VdW>
0.085

> <VdW6>
-9.606

> <VdW12>
9.691

> <Bond>
0.301

> <Angle>
1.865

> <Pdih>
3.218

> <Idih>
0.000

> <Tether>
0.000

$$$$
VeraChem MOL file


 26 25  0  0  0  0  0  0  0  0999 V2000     
   19.4834   18.2869   24.9121 N   0  3  0  0  0  0  0  0  0  0  0  0
   19.4534   17.4172   25.4677 H   0  0  0  0  0  0  0  0  0  0  0  0
   19.3953   17.9900   23.9295 H   0  0  0  0  0  0  0  0  0  0  0  0
   20.8172   18.9832   25.1272 C   0  0  0  0  0  0  0  0  0  0  0  0
   21.6024   18.2238   25.0940 H   0  0  0  0  0  0  0  0  0  0  0  0
   20.7993   19.4017   26.1367 H   0  0  0  0  0  0  0  0  0  0  0  0
   21.1545   20.1015   24.1145 C   0  0  0  0  0  0  0  0  0  0  0  0
   20.2841   20.7471   23.9464 H   0  0  0  0  0  0  0  0  0  0  0  0
   21.9118   20.7479   24.5772 H   0  0  0  0  0  0  0  0  0  0  0  0
   21.7335   19.5909   22.7675 C   0  0  0  0  0  0  0  0  0  0  0  0
   22.6696   19.0517   22.9684 H   0  0  0  0  0  0  0  0  0  0  0  0
   22.0163   20.4595   22.1570 H   0  0  0  0  0  0  0  0  0  0  0  0
   20.8069   18.6748   21.9277 C   0  0  0  0  0  0  0  0  0  0  0  0
   21.3500   18.3798   21.0190 H   0  0  0  0  0  0  0  0  0  0  0  0
   20.6103   17.7399   22.4665 H   0  0  0  0  0  0  0  0  0  0  0  0
   19.4783   19.3494   21.5106 C   0  0  0  0  0  0  0  0  0  0  0  0
   19.6938   20.2675   20.9461 H   0  0  0  0  0  0  0  0  0  0  0  0
   18.9038   19.6535   22.3942 H   0  0  0  0  0  0  0  0  0  0  0  0
   18.6100   18.4104   20.6466 C   0  0  0  0  0  0  0  0  0  0  0  0
   17.6749   18.9062   20.3555 H   0  0  0  0  0  0  0  0  0  0  0  0
   18.3492   17.4955   21.1943 H   0  0  0  0  0  0  0  0  0  0  0  0
   19.1363   18.1201   19.7279 H   0  0  0  0  0  0  0  0  0  0  0  0
   18.3242   19.1929   25.3108 C   0  0  0  0  0  0  0  0  0  0  0  0
   18.3358   20.0916   24.6913 H   0  0  0  0  0  0  0  0  0  0  0  0
   17.3842   18.6566   25.1633 H   0  0  0  0  0  0  0  0  0  0  0  0
   18.4301   19.4676   26.3626 H   0  0  0  0  0  0  0  0  0  0  0  0
  1  2  1  0  0  0  0
  1  3  1  0  0  0  0
  1  4  1  0  0  0  0
  4  5  1  0  0  0  0
  4  6  1  0  0  0  0
  4  7  1  0  0  0  0
  7  8  1  0  0  0  0
  7  9  1  0  0  0  0
  7 10  1  0  0  0  0
 10 11  1  0  0  0  0
 10 12  1  0  0  0  0
 10 13  1  0  0  0  0
 13 14  1  0  0  0  0
 13 15  1  0  0  0  0
 13 16  1  0  0  0  0
 16 17  1  0  0  0  0
 16 18  1  0  0  0  0
 16 19  1  0  0  0  0
 19 20  1  0  0  0  0
 19 21  1  0  0  0  0
 19 22  1  0  0  0  0
  1 23  1  0  0  0  0
 23 24  1  0  0  0  0
 23 25  1  0  0  0  0
 23 26  1  0  0  0  0
M  END
> <VM2 Rank>
190

> <Conf_Id>
1365

> <Probability>
0.00

> <Sum Probability>
99.99

> <Delta G>
4.874

> <G>
80.340

> <E>
47.028

> <-TS>
33.313

> <U+W>
25.566

> <U>
74.993

> <W>
-49.427

> <W(PB)>
-51.599

> <W(SA)>
2.172

> <Valence>
4.235

> <Coulomb>
71.017

> <VdW>
-0.259

> <VdW6>
-9.385

> <VdW12>
9.126

> <Bond>
0.262

> <Angle>
1.598

> <Pdih>
2.376

> <Idih>
0.000

> <Tether>
0.000

$$$$
VeraChem MOL file


 26 25  0  0  0  0  0  0  0  0999 V2000     
   19.3655   18.5337   25.4601 N   0  3  0  0  0  0  0  0  0  0  0  0
   19.0643   18.1957   26.3879 H   0  0  0  0  0  0  0  0  0  0  0  0
   19.2911   17.7142   24.8396 H   0  0  0  0  0  0  0  0  0  0  0  0
   20.8075   19.0050   25.5407 C   0  0  0  0  0  0  0  0  0  0  0  0
   21.2669   18.4620   26.3707 H   0  0  0  0  0  0  0  0  0  0  0  0
   20.8033   20.0657   25.8038 H   0  0  0  0  0  0  0  0  0  0  0  0
   21.6768   18.7707   24.2824 C   0  0  0  0  0  0  0  0  0  0  0  0
   22.6968   19.0907   24.5336 H   0  0  0  0  0  0  0  0  0  0  0  0
   21.7478   17.6959   24.0690 H   0  0  0  0  0  0  0  0  0  0  0  0
   21.2281   19.5454   23.0171 C   0  0  0  0  0  0  0  0  0  0  0  0
   22.1205   19.7894   22.4242 H   0  0  0  0  0  0  0  0  0  0  0  0
   20.7848   20.5083   23.3051 H   0  0  0  0  0  0  0  0  0  0  0  0
   20.2580   18.7421   22.1160 C   0  0  0  0  0  0  0  0  0  0  0  0
   20.7577   17.8268   21.7695 H   0  0  0  0  0  0  0  0  0  0  0  0
   19.3796   18.4190   22.6860 H   0  0  0  0  0  0  0  0  0  0  0  0
   19.7958   19.5662   20.8938 C   0  0  0  0  0  0  0  0  0  0  0  0
   20.6694   19.8794   20.3050 H   0  0  0  0  0  0  0  0  0  0  0  0
   19.2966   20.4847   21.2329 H   0  0  0  0  0  0  0  0  0  0  0  0
   18.8324   18.7634   19.9937 C   0  0  0  0  0  0  0  0  0  0  0  0
   18.5158   19.3647   19.1316 H   0  0  0  0  0  0  0  0  0  0  0  0
   17.9313   18.4662   20.5458 H   0  0  0  0  0  0  0  0  0  0  0  0
   19.3145   17.8543   19.6112 H   0  0  0  0  0  0  0  0  0  0  0  0
   18.4439   19.6636   25.0131 C   0  0  0  0  0  0  0  0  0  0  0  0
   18.5126   20.4850   25.7295 H   0  0  0  0  0  0  0  0  0  0  0  0
   18.7459   20.0119   24.0241 H   0  0  0  0  0  0  0  0  0  0  0  0
   17.4170   19.2934   24.9756 H   0  0  0  0  0  0  0  0  0  0  0  0
  1  2  1  0  0  0  0
  1  3  1  0  0  0  0
  1  4  1  0  0  0  0
  4  5  1  0  0  0  0
  4  6  1  0  0  0  0
  4  7  1  0  0  0  0
  7  8  1  0  0  0  0
  7  9  1  0  0  0  0
  7 10  1  0  0  0  0
 10 11  1  0  0  0  0
 10 12  1  0  0  0  0
 10 13  1  0  0  0  0
 13 14  1  0  0  0  0
 13 15  1  0  0  0  0
 13 16  1  0  0  0  0
 16 17  1  0  0  0  0
 16 18  1  0  0  0  0
 16 19  1  0  0  0  0
 19 20  1  0  0  0  0
 19 21  1  0  0  0  0
 19 22  1  0  0  0  0
  1 23  1  0  0  0  0
 23 24  1  0  0  0  0
 23 25  1  0  0  0  0
 23 26  1  0  0  0  0
M  END
> <VM2 Rank>
191

> <Conf_Id>
528

> <Probability>
0.00

> <Sum Probability>
99.99

> <Delta G>
4.966

> <G>
80.433

> <E>
47.521

> <-TS>
32.911

> <U+W>
26.060

> <U>
76.026

> <W>
-49.966

> <W(PB)>
-52.173

> <W(SA)>
2.207

> <Valence>
5.957

> <Coulomb>
70.111

> <VdW>
-0.042

> <VdW6>
-8.365

> <VdW12>
8.323

> <Bond>
0.228

> <Angle>
1.343

> <Pdih>
4.386

> <Idih>
0.000

> <Tether>
0.000

$$$$
VeraChem MOL file


 26 25  0  0  0  0  0  0  0  0999 V2000     
   20.7103   19.3327   25.0661 N   0  3  0  0  0  0  0  0  0  0  0  0
   20.7356   20.0410   24.3187 H   0  0  0  0  0  0  0  0  0  0  0  0
   21.5472   18.7464   24.9238 H   0  0  0  0  0  0  0  0  0  0  0  0
   19.4572   18.4894   24.9370 C   0  0  0  0  0  0  0  0  0  0  0  0
   18.5927   19.1222   25.1527 H   0  0  0  0  0  0  0  0  0  0  0  0
   19.5129   17.7173   25.7086 H   0  0  0  0  0  0  0  0  0  0  0  0
   19.2773   17.8155   23.5603 C   0  0  0  0  0  0  0  0  0  0  0  0
   20.2221   17.3666   23.2286 H   0  0  0  0  0  0  0  0  0  0  0  0
   18.5823   16.9758   23.6927 H   0  0  0  0  0  0  0  0  0  0  0  0
   18.6882   18.7453   22.4660 C   0  0  0  0  0  0  0  0  0  0  0  0
   17.7180   19.1272   22.8128 H   0  0  0  0  0  0  0  0  0  0  0  0
   18.4611   18.1410   21.5776 H   0  0  0  0  0  0  0  0  0  0  0  0
   19.5709   19.9502   22.0436 C   0  0  0  0  0  0  0  0  0  0  0  0
   19.0452   20.5014   21.2515 H   0  0  0  0  0  0  0  0  0  0  0  0
   19.6527   20.6585   22.8772 H   0  0  0  0  0  0  0  0  0  0  0  0
   20.9873   19.5837   21.5299 C   0  0  0  0  0  0  0  0  0  0  0  0
   21.5726   19.0993   22.3216 H   0  0  0  0  0  0  0  0  0  0  0  0
   21.5220   20.5118   21.2835 H   0  0  0  0  0  0  0  0  0  0  0  0
   20.9666   18.6768   20.2788 C   0  0  0  0  0  0  0  0  0  0  0  0
   20.5397   17.6914   20.5033 H   0  0  0  0  0  0  0  0  0  0  0  0
   21.9852   18.5176   19.9021 H   0  0  0  0  0  0  0  0  0  0  0  0
   20.3775   19.1310   19.4715 H   0  0  0  0  0  0  0  0  0  0  0  0
   20.7504   19.9963   26.4353 C   0  0  0  0  0  0  0  0  0  0  0  0
   21.6573   20.5999   26.5147 H   0  0  0  0  0  0  0  0  0  0  0  0
   19.8713   20.6340   26.5512 H   0  0  0  0  0  0  0  0  0  0  0  0
   20.7522   19.2246   27.2082 H   0  0  0  0  0  0  0  0  0  0  0  0
  1  2  1  0  0  0  0
  1  3  1  0  0  0  0
  1  4  1  0  0  0  0
  4  5  1  0  0  0  0
  4  6  1  0  0  0  0
  4  7  1  0  0  0  0
  7  8  1  0  0  0  0
  7  9  1  0  0  0  0
  7 10  1  0  0  0  0
 10 11  1  0  0  0  0
 10 12  1  0  0  0  0
 10 13  1  0  0  0  0
 13 14  1  0  0  0  0
 13 15  1  0  0  0  0
 13 16  1  0  0  0  0
 16 17  1  0  0  0  0
 16 18  1  0  0  0  0
 16 19  1  0  0  0  0
 19 20  1  0  0  0  0
 19 21  1  0  0  0  0
 19 22  1  0  0  0  0
  1 23  1  0  0  0  0
 23 24  1  0  0  0  0
 23 25  1  0  0  0  0
 23 26  1  0  0  0  0
M  END
> <VM2 Rank>
192

> <Conf_Id>
153

> <Probability>
0.00

> <Sum Probability>
99.99

> <Delta G>
4.986

> <G>
80.453

> <E>
47.329

> <-TS>
33.124

> <U+W>
25.867

> <U>
75.257

> <W>
-49.390

> <W(PB)>
-51.577

> <W(SA)>
2.188

> <Valence>
4.258

> <Coulomb>
71.252

> <VdW>
-0.253

> <VdW6>
-9.004

> <VdW12>
8.750

> <Bond>
0.262

> <Angle>
1.778

> <Pdih>
2.218

> <Idih>
0.000

> <Tether>
0.000

$$$$
VeraChem MOL file


 26 25  0  0  0  0  0  0  0  0999 V2000     
   19.2302   19.1807   25.0137 N   0  3  0  0  0  0  0  0  0  0  0  0
   18.5418   18.4379   24.8174 H   0  0  0  0  0  0  0  0  0  0  0  0
   19.1141   19.8746   24.2613 H   0  0  0  0  0  0  0  0  0  0  0  0
   20.6343   18.6103   24.9787 C   0  0  0  0  0  0  0  0  0  0  0  0
   20.6825   17.8374   25.7500 H   0  0  0  0  0  0  0  0  0  0  0  0
   21.3351   19.4037   25.2498 H   0  0  0  0  0  0  0  0  0  0  0  0
   21.0431   17.9968   23.6228 C   0  0  0  0  0  0  0  0  0  0  0  0
   21.8830   17.3146   23.8096 H   0  0  0  0  0  0  0  0  0  0  0  0
   20.2346   17.3679   23.2290 H   0  0  0  0  0  0  0  0  0  0  0  0
   21.5064   19.0347   22.5658 C   0  0  0  0  0  0  0  0  0  0  0  0
   21.9131   18.4955   21.6999 H   0  0  0  0  0  0  0  0  0  0  0  0
   22.3521   19.6031   22.9770 H   0  0  0  0  0  0  0  0  0  0  0  0
   20.4293   20.0384   22.0740 C   0  0  0  0  0  0  0  0  0  0  0  0
   20.1472   20.7093   22.8947 H   0  0  0  0  0  0  0  0  0  0  0  0
   20.8862   20.6904   21.3166 H   0  0  0  0  0  0  0  0  0  0  0  0
   19.1562   19.3957   21.4651 C   0  0  0  0  0  0  0  0  0  0  0  0
   18.4629   20.1977   21.1752 H   0  0  0  0  0  0  0  0  0  0  0  0
   18.6275   18.7969   22.2173 H   0  0  0  0  0  0  0  0  0  0  0  0
   19.4481   18.5209   20.2250 C   0  0  0  0  0  0  0  0  0  0  0  0
   19.9876   19.0910   19.4576 H   0  0  0  0  0  0  0  0  0  0  0  0
   18.5119   18.1608   19.7792 H   0  0  0  0  0  0  0  0  0  0  0  0
   20.0494   17.6412   20.4859 H   0  0  0  0  0  0  0  0  0  0  0  0
   18.9605   19.8125   26.3719 C   0  0  0  0  0  0  0  0  0  0  0  0
   19.6816   20.6145   26.5446 H   0  0  0  0  0  0  0  0  0  0  0  0
   17.9467   20.2189   26.3834 H   0  0  0  0  0  0  0  0  0  0  0  0
   19.0613   19.0509   27.1483 H   0  0  0  0  0  0  0  0  0  0  0  0
  1  2  1  0  0  0  0
  1  3  1  0  0  0  0
  1  4  1  0  0  0  0
  4  5  1  0  0  0  0
  4  6  1  0  0  0  0
  4  7  1  0  0  0  0
  7  8  1  0  0  0  0
  7  9  1  0  0  0  0
  7 10  1  0  0  0  0
 10 11  1  0  0  0  0
 10 12  1  0  0  0  0
 10 13  1  0  0  0  0
 13 14  1  0  0  0  0
 13 15  1  0  0  0  0
 13 16  1  0  0  0  0
 16 17  1  0  0  0  0
 16 18  1  0  0  0  0
 16 19  1  0  0  0  0
 19 20  1  0  0  0  0
 19 21  1  0  0  0  0
 19 22  1  0  0  0  0
  1 23  1  0  0  0  0
 23 24  1  0  0  0  0
 23 25  1  0  0  0  0
 23 26  1  0  0  0  0
M  END
> <VM2 Rank>
193

> <Conf_Id>
160

> <Probability>
0.00

> <Sum Probability>
99.99

> <Delta G>
5.109

> <G>
80.576

> <E>
47.452

> <-TS>
33.124

> <U+W>
25.990

> <U>
75.257

> <W>
-49.266

> <W(PB)>
-51.475

> <W(SA)>
2.209

> <Valence>
4.258

> <Coulomb>
71.252

> <VdW>
-0.253

> <VdW6>
-9.004

> <VdW12>
8.750

> <Bond>
0.262

> <Angle>
1.778

> <Pdih>
2.217

> <Idih>
0.000

> <Tether>
0.000

$$$$
VeraChem MOL file


 26 25  0  0  0  0  0  0  0  0999 V2000     
   19.7389   18.3347   24.8560 N   0  3  0  0  0  0  0  0  0  0  0  0
   20.4043   17.5465   24.8311 H   0  0  0  0  0  0  0  0  0  0  0  0
   19.2603   18.3238   23.9434 H   0  0  0  0  0  0  0  0  0  0  0  0
   20.4877   19.6416   25.0317 C   0  0  0  0  0  0  0  0  0  0  0  0
   21.0422   19.5666   25.9706 H   0  0  0  0  0  0  0  0  0  0  0  0
   19.7567   20.4476   25.1326 H   0  0  0  0  0  0  0  0  0  0  0  0
   21.4702   19.9711   23.8880 C   0  0  0  0  0  0  0  0  0  0  0  0
   22.2126   20.6783   24.2811 H   0  0  0  0  0  0  0  0  0  0  0  0
   22.0380   19.0757   23.6051 H   0  0  0  0  0  0  0  0  0  0  0  0
   20.8084   20.6255   22.6452 C   0  0  0  0  0  0  0  0  0  0  0  0
   21.5968   20.8865   21.9257 H   0  0  0  0  0  0  0  0  0  0  0  0
   20.3560   21.5796   22.9492 H   0  0  0  0  0  0  0  0  0  0  0  0
   19.7321   19.7795   21.9180 C   0  0  0  0  0  0  0  0  0  0  0  0
   18.8739   19.6095   22.5799 H   0  0  0  0  0  0  0  0  0  0  0  0
   19.3408   20.3718   21.0791 H   0  0  0  0  0  0  0  0  0  0  0  0
   20.2662   18.4363   21.3655 C   0  0  0  0  0  0  0  0  0  0  0  0
   20.6659   17.8138   22.1758 H   0  0  0  0  0  0  0  0  0  0  0  0
   21.1018   18.6285   20.6780 H   0  0  0  0  0  0  0  0  0  0  0  0
   19.1655   17.6487   20.6236 C   0  0  0  0  0  0  0  0  0  0  0  0
   18.3273   17.4124   21.2918 H   0  0  0  0  0  0  0  0  0  0  0  0
   19.5622   16.7022   20.2338 H   0  0  0  0  0  0  0  0  0  0  0  0
   18.7733   18.2233   19.7743 H   0  0  0  0  0  0  0  0  0  0  0  0
   18.7389   18.1527   25.9890 C   0  0  0  0  0  0  0  0  0  0  0  0
   18.0278   18.9816   25.9771 H   0  0  0  0  0  0  0  0  0  0  0  0
   18.2077   17.2085   25.8501 H   0  0  0  0  0  0  0  0  0  0  0  0
   19.2742   18.1381   26.9409 H   0  0  0  0  0  0  0  0  0  0  0  0
  1  2  1  0  0  0  0
  1  3  1  0  0  0  0
  1  4  1  0  0  0  0
  4  5  1  0  0  0  0
  4  6  1  0  0  0  0
  4  7  1  0  0  0  0
  7  8  1  0  0  0  0
  7  9  1  0  0  0  0
  7 10  1  0  0  0  0
 10 11  1  0  0  0  0
 10 12  1  0  0  0  0
 10 13  1  0  0  0  0
 13 14  1  0  0  0  0
 13 15  1  0  0  0  0
 13 16  1  0  0  0  0
 16 17  1  0  0  0  0
 16 18  1  0  0  0  0
 16 19  1  0  0  0  0
 19 20  1  0  0  0  0
 19 21  1  0  0  0  0
 19 22  1  0  0  0  0
  1 23  1  0  0  0  0
 23 24  1  0  0  0  0
 23 25  1  0  0  0  0
 23 26  1  0  0  0  0
M  END
> <VM2 Rank>
194

> <Conf_Id>
287

> <Probability>
0.00

> <Sum Probability>
99.99

> <Delta G>
5.236

> <G>
80.703

> <E>
47.755

> <-TS>
32.948

> <U+W>
26.293

> <U>
74.740

> <W>
-48.447

> <W(PB)>
-50.670

> <W(SA)>
2.223

> <Valence>
3.847

> <Coulomb>
71.181

> <VdW>
-0.288

> <VdW6>
-8.401

> <VdW12>
8.112

> <Bond>
0.222

> <Angle>
1.471

> <Pdih>
2.154

> <Idih>
0.000

> <Tether>
0.000

$$$$
VeraChem MOL file


 26 25  0  0  0  0  0  0  0  0999 V2000     
   20.3926   18.4001   24.8791 N   0  3  0  0  0  0  0  0  0  0  0  0
   20.9265   18.4906   24.0023 H   0  0  0  0  0  0  0  0  0  0  0  0
   19.9000   17.4959   24.8134 H   0  0  0  0  0  0  0  0  0  0  0  0
   19.3892   19.5315   24.9927 C   0  0  0  0  0  0  0  0  0  0  0  0
   19.9372   20.4657   25.1388 H   0  0  0  0  0  0  0  0  0  0  0  0
   18.7963   19.3416   25.8909 H   0  0  0  0  0  0  0  0  0  0  0  0
   18.4436   19.6677   23.7806 C   0  0  0  0  0  0  0  0  0  0  0  0
   18.0858   18.6795   23.4649 H   0  0  0  0  0  0  0  0  0  0  0  0
   17.5500   20.2109   24.1157 H   0  0  0  0  0  0  0  0  0  0  0  0
   19.0480   20.4490   22.5827 C   0  0  0  0  0  0  0  0  0  0  0  0
   19.2796   21.4718   22.9109 H   0  0  0  0  0  0  0  0  0  0  0  0
   18.2760   20.5535   21.8078 H   0  0  0  0  0  0  0  0  0  0  0  0
   20.3190   19.8384   21.9389 C   0  0  0  0  0  0  0  0  0  0  0  0
   20.6430   20.5024   21.1254 H   0  0  0  0  0  0  0  0  0  0  0  0
   21.1452   19.8373   22.6606 H   0  0  0  0  0  0  0  0  0  0  0  0
   20.1020   18.4198   21.3597 C   0  0  0  0  0  0  0  0  0  0  0  0
   19.2955   18.4475   20.6136 H   0  0  0  0  0  0  0  0  0  0  0  0
   19.7775   17.7249   22.1442 H   0  0  0  0  0  0  0  0  0  0  0  0
   21.3865   17.8713   20.7028 C   0  0  0  0  0  0  0  0  0  0  0  0
   22.2056   17.8011   21.4302 H   0  0  0  0  0  0  0  0  0  0  0  0
   21.7159   18.5182   19.8793 H   0  0  0  0  0  0  0  0  0  0  0  0
   21.2138   16.8678   20.2928 H   0  0  0  0  0  0  0  0  0  0  0  0
   21.3271   18.4121   26.0805 C   0  0  0  0  0  0  0  0  0  0  0  0
   22.0433   17.5929   25.9859 H   0  0  0  0  0  0  0  0  0  0  0  0
   21.8589   19.3656   26.1124 H   0  0  0  0  0  0  0  0  0  0  0  0
   20.7401   18.2852   26.9928 H   0  0  0  0  0  0  0  0  0  0  0  0
  1  2  1  0  0  0  0
  1  3  1  0  0  0  0
  1  4  1  0  0  0  0
  4  5  1  0  0  0  0
  4  6  1  0  0  0  0
  4  7  1  0  0  0  0
  7  8  1  0  0  0  0
  7  9  1  0  0  0  0
  7 10  1  0  0  0  0
 10 11  1  0  0  0  0
 10 12  1  0  0  0  0
 10 13  1  0  0  0  0
 13 14  1  0  0  0  0
 13 15  1  0  0  0  0
 13 16  1  0  0  0  0
 16 17  1  0  0  0  0
 16 18  1  0  0  0  0
 16 19  1  0  0  0  0
 19 20  1  0  0  0  0
 19 21  1  0  0  0  0
 19 22  1  0  0  0  0
  1 23  1  0  0  0  0
 23 24  1  0  0  0  0
 23 25  1  0  0  0  0
 23 26  1  0  0  0  0
M  END
> <VM2 Rank>
195

> <Conf_Id>
1316

> <Probability>
0.00

> <Sum Probability>
99.99

> <Delta G>
5.289

> <G>
80.756

> <E>
47.808

> <-TS>
32.948

> <U+W>
26.346

> <U>
74.740

> <W>
-48.394

> <W(PB)>
-50.620

> <W(SA)>
2.226

> <Valence>
3.847

> <Coulomb>
71.181

> <VdW>
-0.288

> <VdW6>
-8.401

> <VdW12>
8.113

> <Bond>
0.222

> <Angle>
1.471

> <Pdih>
2.154

> <Idih>
0.000

> <Tether>
0.000

$$$$
VeraChem MOL file


 26 25  0  0  0  0  0  0  0  0999 V2000     
   20.6322   18.7472   25.9145 N   0  3  0  0  0  0  0  0  0  0  0  0
   21.5453   18.8210   25.4409 H   0  0  0  0  0  0  0  0  0  0  0  0
   20.8137   18.1747   26.7541 H   0  0  0  0  0  0  0  0  0  0  0  0
   19.6311   18.0275   25.0245 C   0  0  0  0  0  0  0  0  0  0  0  0
   18.6243   18.3003   25.3505 H   0  0  0  0  0  0  0  0  0  0  0  0
   19.7612   16.9579   25.2078 H   0  0  0  0  0  0  0  0  0  0  0  0
   19.7911   18.2737   23.5075 C   0  0  0  0  0  0  0  0  0  0  0  0
   20.8014   17.9726   23.2040 H   0  0  0  0  0  0  0  0  0  0  0  0
   19.0912   17.6114   22.9812 H   0  0  0  0  0  0  0  0  0  0  0  0
   19.5252   19.7358   23.0774 C   0  0  0  0  0  0  0  0  0  0  0  0
   20.3326   20.3811   23.4474 H   0  0  0  0  0  0  0  0  0  0  0  0
   18.6012   20.0862   23.5579 H   0  0  0  0  0  0  0  0  0  0  0  0
   19.3834   19.9363   21.5462 C   0  0  0  0  0  0  0  0  0  0  0  0
   18.5233   19.3674   21.1670 H   0  0  0  0  0  0  0  0  0  0  0  0
   19.1364   20.9932   21.3744 H   0  0  0  0  0  0  0  0  0  0  0  0
   20.6544   19.6008   20.7235 C   0  0  0  0  0  0  0  0  0  0  0  0
   21.5575   19.7992   21.3174 H   0  0  0  0  0  0  0  0  0  0  0  0
   20.7030   20.2839   19.8639 H   0  0  0  0  0  0  0  0  0  0  0  0
   20.6758   18.1528   20.1800 C   0  0  0  0  0  0  0  0  0  0  0  0
   19.8046   17.9610   19.5403 H   0  0  0  0  0  0  0  0  0  0  0  0
   20.6749   17.4089   20.9838 H   0  0  0  0  0  0  0  0  0  0  0  0
   21.5757   17.9841   19.5746 H   0  0  0  0  0  0  0  0  0  0  0  0
   20.1148   20.1159   26.3435 C   0  0  0  0  0  0  0  0  0  0  0  0
   20.8488   20.5833   27.0037 H   0  0  0  0  0  0  0  0  0  0  0  0
   19.9610   20.7435   25.4650 H   0  0  0  0  0  0  0  0  0  0  0  0
   19.1698   19.9896   26.8763 H   0  0  0  0  0  0  0  0  0  0  0  0
  1  2  1  0  0  0  0
  1  3  1  0  0  0  0
  1  4  1  0  0  0  0
  4  5  1  0  0  0  0
  4  6  1  0  0  0  0
  4  7  1  0  0  0  0
  7  8  1  0  0  0  0
  7  9  1  0  0  0  0
  7 10  1  0  0  0  0
 10 11  1  0  0  0  0
 10 12  1  0  0  0  0
 10 13  1  0  0  0  0
 13 14  1  0  0  0  0
 13 15  1  0  0  0  0
 13 16  1  0  0  0  0
 16 17  1  0  0  0  0
 16 18  1  0  0  0  0
 16 19  1  0  0  0  0
 19 20  1  0  0  0  0
 19 21  1  0  0  0  0
 19 22  1  0  0  0  0
  1 23  1  0  0  0  0
 23 24  1  0  0  0  0
 23 25  1  0  0  0  0
 23 26  1  0  0  0  0
M  END
> <VM2 Rank>
196

> <Conf_Id>
1600

> <Probability>
0.00

> <Sum Probability>
99.99

> <Delta G>
5.328

> <G>
80.795

> <E>
47.955

> <-TS>
32.840

> <U+W>
26.493

> <U>
76.259

> <W>
-49.766

> <W(PB)>
-51.984

> <W(SA)>
2.218

> <Valence>
6.620

> <Coulomb>
69.255

> <VdW>
0.384

> <VdW6>
-8.487

> <VdW12>
8.871

> <Bond>
0.273

> <Angle>
1.659

> <Pdih>
4.688

> <Idih>
0.000

> <Tether>
0.000

$$$$
VeraChem MOL file


 26 25  0  0  0  0  0  0  0  0999 V2000     
   19.9890   18.7594   26.1089 N   0  3  0  0  0  0  0  0  0  0  0  0
   20.3982   18.4097   26.9898 H   0  0  0  0  0  0  0  0  0  0  0  0
   19.0936   18.2566   26.0138 H   0  0  0  0  0  0  0  0  0  0  0  0
   20.9150   18.4137   24.9536 C   0  0  0  0  0  0  0  0  0  0  0  0
   21.4623   17.5147   25.2485 H   0  0  0  0  0  0  0  0  0  0  0  0
   21.6409   19.2230   24.8425 H   0  0  0  0  0  0  0  0  0  0  0  0
   20.2189   18.1267   23.6043 C   0  0  0  0  0  0  0  0  0  0  0  0
   20.9837   17.7809   22.9000 H   0  0  0  0  0  0  0  0  0  0  0  0
   19.5209   17.2883   23.7281 H   0  0  0  0  0  0  0  0  0  0  0  0
   19.4667   19.3453   23.0127 C   0  0  0  0  0  0  0  0  0  0  0  0
   20.1068   20.2380   23.0317 H   0  0  0  0  0  0  0  0  0  0  0  0
   18.6074   19.5669   23.6590 H   0  0  0  0  0  0  0  0  0  0  0  0
   18.9355   19.1020   21.5758 C   0  0  0  0  0  0  0  0  0  0  0  0
   18.7201   18.0353   21.4238 H   0  0  0  0  0  0  0  0  0  0  0  0
   17.9692   19.6156   21.4762 H   0  0  0  0  0  0  0  0  0  0  0  0
   19.8601   19.6262   20.4472 C   0  0  0  0  0  0  0  0  0  0  0  0
   19.9869   20.7130   20.5505 H   0  0  0  0  0  0  0  0  0  0  0  0
   19.3568   19.4698   19.4828 H   0  0  0  0  0  0  0  0  0  0  0  0
   21.2486   18.9516   20.3961 C   0  0  0  0  0  0  0  0  0  0  0  0
   21.8498   19.2086   21.2770 H   0  0  0  0  0  0  0  0  0  0  0  0
   21.8049   19.2859   19.5109 H   0  0  0  0  0  0  0  0  0  0  0  0
   21.1566   17.8592   20.3413 H   0  0  0  0  0  0  0  0  0  0  0  0
   19.7742   20.2651   26.2183 C   0  0  0  0  0  0  0  0  0  0  0  0
   20.7400   20.7539   26.3643 H   0  0  0  0  0  0  0  0  0  0  0  0
   19.3076   20.6380   25.3057 H   0  0  0  0  0  0  0  0  0  0  0  0
   19.1256   20.4715   27.0726 H   0  0  0  0  0  0  0  0  0  0  0  0
  1  2  1  0  0  0  0
  1  3  1  0  0  0  0
  1  4  1  0  0  0  0
  4  5  1  0  0  0  0
  4  6  1  0  0  0  0
  4  7  1  0  0  0  0
  7  8  1  0  0  0  0
  7  9  1  0  0  0  0
  7 10  1  0  0  0  0
 10 11  1  0  0  0  0
 10 12  1  0  0  0  0
 10 13  1  0  0  0  0
 13 14  1  0  0  0  0
 13 15  1  0  0  0  0
 13 16  1  0  0  0  0
 16 17  1  0  0  0  0
 16 18  1  0  0  0  0
 16 19  1  0  0  0  0
 19 20  1  0  0  0  0
 19 21  1  0  0  0  0
 19 22  1  0  0  0  0
  1 23  1  0  0  0  0
 23 24  1  0  0  0  0
 23 25  1  0  0  0  0
 23 26  1  0  0  0  0
M  END
> <VM2 Rank>
197

> <Conf_Id>
223

> <Probability>
0.00

> <Sum Probability>
99.99

> <Delta G>
5.471

> <G>
80.938

> <E>
48.019

> <-TS>
32.919

> <U+W>
26.557

> <U>
76.255

> <W>
-49.697

> <W(PB)>
-51.922

> <W(SA)>
2.224

> <Valence>
6.727

> <Coulomb>
69.126

> <VdW>
0.401

> <VdW6>
-8.493

> <VdW12>
8.894

> <Bond>
0.275

> <Angle>
1.571

> <Pdih>
4.881

> <Idih>
0.000

> <Tether>
0.000

$$$$
VeraChem MOL file


 26 25  0  0  0  0  0  0  0  0999 V2000     
   19.2970   18.5620   25.6922 N   0  3  0  0  0  0  0  0  0  0  0  0
   19.1288   17.9918   26.5361 H   0  0  0  0  0  0  0  0  0  0  0  0
   18.5948   18.2405   25.0090 H   0  0  0  0  0  0  0  0  0  0  0  0
   20.7007   18.2913   25.1748 C   0  0  0  0  0  0  0  0  0  0  0  0
   20.9704   17.2860   25.5085 H   0  0  0  0  0  0  0  0  0  0  0  0
   21.3847   18.9953   25.6551 H   0  0  0  0  0  0  0  0  0  0  0  0
   20.8640   18.3445   23.6394 C   0  0  0  0  0  0  0  0  0  0  0  0
   21.8901   18.0346   23.4014 H   0  0  0  0  0  0  0  0  0  0  0  0
   20.2068   17.5955   23.1844 H   0  0  0  0  0  0  0  0  0  0  0  0
   20.6061   19.7457   23.0290 C   0  0  0  0  0  0  0  0  0  0  0  0
   21.2270   20.4734   23.5697 H   0  0  0  0  0  0  0  0  0  0  0  0
   19.5638   20.0507   23.1870 H   0  0  0  0  0  0  0  0  0  0  0  0
   20.9488   19.8367   21.5184 C   0  0  0  0  0  0  0  0  0  0  0  0
   21.3300   20.8472   21.3160 H   0  0  0  0  0  0  0  0  0  0  0  0
   21.7748   19.1559   21.2712 H   0  0  0  0  0  0  0  0  0  0  0  0
   19.7532   19.5919   20.5623 C   0  0  0  0  0  0  0  0  0  0  0  0
   20.0962   19.7499   19.5302 H   0  0  0  0  0  0  0  0  0  0  0  0
   18.9758   20.3476   20.7423 H   0  0  0  0  0  0  0  0  0  0  0  0
   19.1307   18.1824   20.6654 C   0  0  0  0  0  0  0  0  0  0  0  0
   19.8970   17.4020   20.5722 H   0  0  0  0  0  0  0  0  0  0  0  0
   18.3960   18.0286   19.8646 H   0  0  0  0  0  0  0  0  0  0  0  0
   18.6060   18.0474   21.6188 H   0  0  0  0  0  0  0  0  0  0  0  0
   19.1075   20.0355   26.0355 C   0  0  0  0  0  0  0  0  0  0  0  0
   19.8354   20.3207   26.7982 H   0  0  0  0  0  0  0  0  0  0  0  0
   19.2540   20.6440   25.1423 H   0  0  0  0  0  0  0  0  0  0  0  0
   18.0960   20.1848   26.4196 H   0  0  0  0  0  0  0  0  0  0  0  0
  1  2  1  0  0  0  0
  1  3  1  0  0  0  0
  1  4  1  0  0  0  0
  4  5  1  0  0  0  0
  4  6  1  0  0  0  0
  4  7  1  0  0  0  0
  7  8  1  0  0  0  0
  7  9  1  0  0  0  0
  7 10  1  0  0  0  0
 10 11  1  0  0  0  0
 10 12  1  0  0  0  0
 10 13  1  0  0  0  0
 13 14  1  0  0  0  0
 13 15  1  0  0  0  0
 13 16  1  0  0  0  0
 16 17  1  0  0  0  0
 16 18  1  0  0  0  0
 16 19  1  0  0  0  0
 19 20  1  0  0  0  0
 19 21  1  0  0  0  0
 19 22  1  0  0  0  0
  1 23  1  0  0  0  0
 23 24  1  0  0  0  0
 23 25  1  0  0  0  0
 23 26  1  0  0  0  0
M  END
> <VM2 Rank>
198

> <Conf_Id>
848

> <Probability>
0.00

> <Sum Probability>
99.99

> <Delta G>
5.485

> <G>
80.951

> <E>
48.181

> <-TS>
32.770

> <U+W>
26.719

> <U>
76.621

> <W>
-49.902

> <W(PB)>
-52.079

> <W(SA)>
2.177

> <Valence>
6.730

> <Coulomb>
69.541

> <VdW>
0.350

> <VdW6>
-8.499

> <VdW12>
8.849

> <Bond>
0.279

> <Angle>
1.640

> <Pdih>
4.811

> <Idih>
0.000

> <Tether>
0.000

$$$$
VeraChem MOL file


 26 25  0  0  0  0  0  0  0  0999 V2000     
   19.9776   18.7582   26.1086 N   0  3  0  0  0  0  0  0  0  0  0  0
   20.9605   18.4475   26.0803 H   0  0  0  0  0  0  0  0  0  0  0  0
   19.5866   18.3268   26.9610 H   0  0  0  0  0  0  0  0  0  0  0  0
   19.2242   18.2405   24.8936 C   0  0  0  0  0  0  0  0  0  0  0  0
   18.3590   18.8868   24.7260 H   0  0  0  0  0  0  0  0  0  0  0  0
   18.8508   17.2472   25.1558 H   0  0  0  0  0  0  0  0  0  0  0  0
   20.0569   18.1101   23.5986 C   0  0  0  0  0  0  0  0  0  0  0  0
   20.8998   17.4296   23.7771 H   0  0  0  0  0  0  0  0  0  0  0  0
   19.4293   17.6215   22.8450 H   0  0  0  0  0  0  0  0  0  0  0  0
   20.5863   19.4599   23.0523 C   0  0  0  0  0  0  0  0  0  0  0  0
   21.3356   19.8463   23.7556 H   0  0  0  0  0  0  0  0  0  0  0  0
   19.7789   20.2044   23.0202 H   0  0  0  0  0  0  0  0  0  0  0  0
   21.2550   19.3395   21.6579 C   0  0  0  0  0  0  0  0  0  0  0  0
   22.1018   20.0389   21.6225 H   0  0  0  0  0  0  0  0  0  0  0  0
   21.6920   18.3397   21.5290 H   0  0  0  0  0  0  0  0  0  0  0  0
   20.3246   19.6738   20.4636 C   0  0  0  0  0  0  0  0  0  0  0  0
   20.9153   19.6294   19.5380 H   0  0  0  0  0  0  0  0  0  0  0  0
   19.9735   20.7116   20.5501 H   0  0  0  0  0  0  0  0  0  0  0  0
   19.1084   18.7325   20.3206 C   0  0  0  0  0  0  0  0  0  0  0  0
   19.4233   17.6818   20.2800 H   0  0  0  0  0  0  0  0  0  0  0  0
   18.5592   18.9536   19.3963 H   0  0  0  0  0  0  0  0  0  0  0  0
   18.4076   18.8561   21.1554 H   0  0  0  0  0  0  0  0  0  0  0  0
   19.8751   20.2755   26.2217 C   0  0  0  0  0  0  0  0  0  0  0  0
   18.8227   20.5578   26.2956 H   0  0  0  0  0  0  0  0  0  0  0  0
   20.4067   20.6027   27.1181 H   0  0  0  0  0  0  0  0  0  0  0  0
   20.3200   20.7414   25.3416 H   0  0  0  0  0  0  0  0  0  0  0  0
  1  2  1  0  0  0  0
  1  3  1  0  0  0  0
  1  4  1  0  0  0  0
  4  5  1  0  0  0  0
  4  6  1  0  0  0  0
  4  7  1  0  0  0  0
  7  8  1  0  0  0  0
  7  9  1  0  0  0  0
  7 10  1  0  0  0  0
 10 11  1  0  0  0  0
 10 12  1  0  0  0  0
 10 13  1  0  0  0  0
 13 14  1  0  0  0  0
 13 15  1  0  0  0  0
 13 16  1  0  0  0  0
 16 17  1  0  0  0  0
 16 18  1  0  0  0  0
 16 19  1  0  0  0  0
 19 20  1  0  0  0  0
 19 21  1  0  0  0  0
 19 22  1  0  0  0  0
  1 23  1  0  0  0  0
 23 24  1  0  0  0  0
 23 25  1  0  0  0  0
 23 26  1  0  0  0  0
M  END
> <VM2 Rank>
199

> <Conf_Id>
232

> <Probability>
0.00

> <Sum Probability>
99.99

> <Delta G>
5.502

> <G>
80.969

> <E>
48.050

> <-TS>
32.919

> <U+W>
26.588

> <U>
76.255

> <W>
-49.666

> <W(PB)>
-51.863

> <W(SA)>
2.196

> <Valence>
6.727

> <Coulomb>
69.126

> <VdW>
0.402

> <VdW6>
-8.494

> <VdW12>
8.895

> <Bond>
0.275

> <Angle>
1.572

> <Pdih>
4.880

> <Idih>
0.000

> <Tether>
0.000

$$$$
VeraChem MOL file


 26 25  0  0  0  0  0  0  0  0999 V2000     
   20.7229   18.7078   25.7424 N   0  3  0  0  0  0  0  0  0  0  0  0
   21.5215   18.5398   25.1123 H   0  0  0  0  0  0  0  0  0  0  0  0
   20.9436   18.1774   26.6001 H   0  0  0  0  0  0  0  0  0  0  0  0
   19.4425   18.1627   25.1302 C   0  0  0  0  0  0  0  0  0  0  0  0
   18.5985   18.7106   25.5566 H   0  0  0  0  0  0  0  0  0  0  0  0
   19.3589   17.1213   25.4515 H   0  0  0  0  0  0  0  0  0  0  0  0
   19.3795   18.1927   23.5869 C   0  0  0  0  0  0  0  0  0  0  0  0
   20.2047   17.5953   23.1843 H   0  0  0  0  0  0  0  0  0  0  0  0
   18.4564   17.6835   23.2800 H   0  0  0  0  0  0  0  0  0  0  0  0
   19.3908   19.6213   22.9858 C   0  0  0  0  0  0  0  0  0  0  0  0
   20.3362   20.1297   23.2143 H   0  0  0  0  0  0  0  0  0  0  0  0
   18.5992   20.2045   23.4764 H   0  0  0  0  0  0  0  0  0  0  0  0
   19.1437   19.6518   21.4544 C   0  0  0  0  0  0  0  0  0  0  0  0
   18.4920   18.8196   21.1548 H   0  0  0  0  0  0  0  0  0  0  0  0
   18.5809   20.5656   21.2183 H   0  0  0  0  0  0  0  0  0  0  0  0
   20.4282   19.6609   20.5863 C   0  0  0  0  0  0  0  0  0  0  0  0
   21.0218   20.5571   20.8148 H   0  0  0  0  0  0  0  0  0  0  0  0
   20.1335   19.7534   19.5315 H   0  0  0  0  0  0  0  0  0  0  0  0
   21.3143   18.4059   20.7433 C   0  0  0  0  0  0  0  0  0  0  0  0
   22.1194   18.4098   19.9971 H   0  0  0  0  0  0  0  0  0  0  0  0
   20.7304   17.4872   20.6022 H   0  0  0  0  0  0  0  0  0  0  0  0
   21.7872   18.3734   21.7321 H   0  0  0  0  0  0  0  0  0  0  0  0
   20.5862   20.1868   26.0877 C   0  0  0  0  0  0  0  0  0  0  0  0
   21.5174   20.5347   26.5404 H   0  0  0  0  0  0  0  0  0  0  0  0
   20.3825   20.7594   25.1821 H   0  0  0  0  0  0  0  0  0  0  0  0
   19.7643   20.3135   26.7956 H   0  0  0  0  0  0  0  0  0  0  0  0
  1  2  1  0  0  0  0
  1  3  1  0  0  0  0
  1  4  1  0  0  0  0
  4  5  1  0  0  0  0
  4  6  1  0  0  0  0
  4  7  1  0  0  0  0
  7  8  1  0  0  0  0
  7  9  1  0  0  0  0
  7 10  1  0  0  0  0
 10 11  1  0  0  0  0
 10 12  1  0  0  0  0
 10 13  1  0  0  0  0
 13 14  1  0  0  0  0
 13 15  1  0  0  0  0
 13 16  1  0  0  0  0
 16 17  1  0  0  0  0
 16 18  1  0  0  0  0
 16 19  1  0  0  0  0
 19 20  1  0  0  0  0
 19 21  1  0  0  0  0
 19 22  1  0  0  0  0
  1 23  1  0  0  0  0
 23 24  1  0  0  0  0
 23 25  1  0  0  0  0
 23 26  1  0  0  0  0
M  END
> <VM2 Rank>
200

> <Conf_Id>
1098

> <Probability>
0.00

> <Sum Probability>
99.99

> <Delta G>
5.543

> <G>
81.010

> <E>
48.239

> <-TS>
32.770

> <U+W>
26.778

> <U>
76.621

> <W>
-49.844

> <W(PB)>
-52.049

> <W(SA)>
2.205

> <Valence>
6.730

> <Coulomb>
69.541

> <VdW>
0.350

> <VdW6>
-8.499

> <VdW12>
8.849

> <Bond>
0.279

> <Angle>
1.640

> <Pdih>
4.811

> <Idih>
0.000

> <Tether>
0.000

$$$$
VeraChem MOL file


 26 25  0  0  0  0  0  0  0  0999 V2000     
   20.1772   18.4732   26.1293 N   0  3  0  0  0  0  0  0  0  0  0  0
   20.6832   18.4907   27.0289 H   0  0  0  0  0  0  0  0  0  0  0  0
   19.9180   17.4840   25.9933 H   0  0  0  0  0  0  0  0  0  0  0  0
   21.1153   18.9254   25.0182 C   0  0  0  0  0  0  0  0  0  0  0  0
   22.0263   18.3315   25.1286 H   0  0  0  0  0  0  0  0  0  0  0  0
   21.3784   19.9721   25.1894 H   0  0  0  0  0  0  0  0  0  0  0  0
   20.5883   18.7372   23.5781 C   0  0  0  0  0  0  0  0  0  0  0  0
   21.4482   18.4936   22.9422 H   0  0  0  0  0  0  0  0  0  0  0  0
   19.9093   17.8754   23.5366 H   0  0  0  0  0  0  0  0  0  0  0  0
   19.9008   20.0041   23.0123 C   0  0  0  0  0  0  0  0  0  0  0  0
   20.6393   20.8144   22.9405 H   0  0  0  0  0  0  0  0  0  0  0  0
   19.1366   20.3577   23.7144 H   0  0  0  0  0  0  0  0  0  0  0  0
   19.2244   19.8018   21.6314 C   0  0  0  0  0  0  0  0  0  0  0  0
   18.4138   19.0646   21.7123 H   0  0  0  0  0  0  0  0  0  0  0  0
   18.7360   20.7485   21.3621 H   0  0  0  0  0  0  0  0  0  0  0  0
   20.1893   19.4143   20.4809 C   0  0  0  0  0  0  0  0  0  0  0  0
   21.1888   19.8334   20.6625 H   0  0  0  0  0  0  0  0  0  0  0  0
   19.8311   19.8814   19.5527 H   0  0  0  0  0  0  0  0  0  0  0  0
   20.2807   17.8890   20.2403 C   0  0  0  0  0  0  0  0  0  0  0  0
   19.2961   17.4719   19.9922 H   0  0  0  0  0  0  0  0  0  0  0  0
   20.6621   17.3540   21.1167 H   0  0  0  0  0  0  0  0  0  0  0  0
   20.9540   17.6728   19.4009 H   0  0  0  0  0  0  0  0  0  0  0  0
   18.9320   19.3451   26.2265 C   0  0  0  0  0  0  0  0  0  0  0  0
   18.3440   19.2345   25.3134 H   0  0  0  0  0  0  0  0  0  0  0  0
   18.3375   19.0235   27.0846 H   0  0  0  0  0  0  0  0  0  0  0  0
   19.2318   20.3874   26.3547 H   0  0  0  0  0  0  0  0  0  0  0  0
  1  2  1  0  0  0  0
  1  3  1  0  0  0  0
  1  4  1  0  0  0  0
  4  5  1  0  0  0  0
  4  6  1  0  0  0  0
  4  7  1  0  0  0  0
  7  8  1  0  0  0  0
  7  9  1  0  0  0  0
  7 10  1  0  0  0  0
 10 11  1  0  0  0  0
 10 12  1  0  0  0  0
 10 13  1  0  0  0  0
 13 14  1  0  0  0  0
 13 15  1  0  0  0  0
 13 16  1  0  0  0  0
 16 17  1  0  0  0  0
 16 18  1  0  0  0  0
 16 19  1  0  0  0  0
 19 20  1  0  0  0  0
 19 21  1  0  0  0  0
 19 22  1  0  0  0  0
  1 23  1  0  0  0  0
 23 24  1  0  0  0  0
 23 25  1  0  0  0  0
 23 26  1  0  0  0  0
M  END
> <VM2 Rank>
201

> <Conf_Id>
450

> <Probability>
0.00

> <Sum Probability>
100.00

> <Delta G>
5.600

> <G>
81.067

> <E>
48.304

> <-TS>
32.762

> <U+W>
26.842

> <U>
76.536

> <W>
-49.694

> <W(PB)>
-51.899

> <W(SA)>
2.205

> <Valence>
6.954

> <Coulomb>
69.035

> <VdW>
0.548

> <VdW6>
-8.376

> <VdW12>
8.924

> <Bond>
0.281

> <Angle>
1.722

> <Pdih>
4.950

> <Idih>
0.000

> <Tether>
0.000

$$$$
VeraChem MOL file


 26 25  0  0  0  0  0  0  0  0999 V2000     
   19.8501   18.4398   26.1176 N   0  3  0  0  0  0  0  0  0  0  0  0
   20.3124   17.5242   26.0072 H   0  0  0  0  0  0  0  0  0  0  0  0
   19.2893   18.3484   26.9796 H   0  0  0  0  0  0  0  0  0  0  0  0
   18.9202   18.7013   24.9405 C   0  0  0  0  0  0  0  0  0  0  0  0
   18.4399   19.6722   25.0853 H   0  0  0  0  0  0  0  0  0  0  0  0
   18.1423   17.9351   24.9911 H   0  0  0  0  0  0  0  0  0  0  0  0
   19.5737   18.6337   23.5422 C   0  0  0  0  0  0  0  0  0  0  0  0
   20.4139   17.9270   23.5545 H   0  0  0  0  0  0  0  0  0  0  0  0
   18.8273   18.2261   22.8494 H   0  0  0  0  0  0  0  0  0  0  0  0
   20.0292   20.0172   23.0168 C   0  0  0  0  0  0  0  0  0  0  0  0
   20.6552   20.5128   23.7682 H   0  0  0  0  0  0  0  0  0  0  0  0
   19.1492   20.6623   22.8876 H   0  0  0  0  0  0  0  0  0  0  0  0
   20.8276   19.9655   21.6883 C   0  0  0  0  0  0  0  0  0  0  0  0
   21.1325   20.9933   21.4470 H   0  0  0  0  0  0  0  0  0  0  0  0
   21.7627   19.4066   21.8310 H   0  0  0  0  0  0  0  0  0  0  0  0
   20.0439   19.3994   20.4757 C   0  0  0  0  0  0  0  0  0  0  0  0
   20.3647   19.9357   19.5716 H   0  0  0  0  0  0  0  0  0  0  0  0
   18.9702   19.6068   20.5838 H   0  0  0  0  0  0  0  0  0  0  0  0
   20.2794   17.8888   20.2404 C   0  0  0  0  0  0  0  0  0  0  0  0
   19.9533   17.2816   21.0917 H   0  0  0  0  0  0  0  0  0  0  0  0
   21.3429   17.6808   20.0649 H   0  0  0  0  0  0  0  0  0  0  0  0
   19.7242   17.5471   19.3574 H   0  0  0  0  0  0  0  0  0  0  0  0
   20.8839   19.5442   26.2955 C   0  0  0  0  0  0  0  0  0  0  0  0
   20.3718   20.5037   26.3950 H   0  0  0  0  0  0  0  0  0  0  0  0
   21.4695   19.3430   27.1953 H   0  0  0  0  0  0  0  0  0  0  0  0
   21.5445   19.5611   25.4266 H   0  0  0  0  0  0  0  0  0  0  0  0
  1  2  1  0  0  0  0
  1  3  1  0  0  0  0
  1  4  1  0  0  0  0
  4  5  1  0  0  0  0
  4  6  1  0  0  0  0
  4  7  1  0  0  0  0
  7  8  1  0  0  0  0
  7  9  1  0  0  0  0
  7 10  1  0  0  0  0
 10 11  1  0  0  0  0
 10 12  1  0  0  0  0
 10 13  1  0  0  0  0
 13 14  1  0  0  0  0
 13 15  1  0  0  0  0
 13 16  1  0  0  0  0
 16 17  1  0  0  0  0
 16 18  1  0  0  0  0
 16 19  1  0  0  0  0
 19 20  1  0  0  0  0
 19 21  1  0  0  0  0
 19 22  1  0  0  0  0
  1 23  1  0  0  0  0
 23 24  1  0  0  0  0
 23 25  1  0  0  0  0
 23 26  1  0  0  0  0
M  END
> <VM2 Rank>
202

> <Conf_Id>
510

> <Probability>
0.00

> <Sum Probability>
100.00

> <Delta G>
5.641

> <G>
81.107

> <E>
48.345

> <-TS>
32.762

> <U+W>
26.883

> <U>
76.537

> <W>
-49.653

> <W(PB)>
-51.865

> <W(SA)>
2.212

> <Valence>
6.954

> <Coulomb>
69.035

> <VdW>
0.548

> <VdW6>
-8.377

> <VdW12>
8.924

> <Bond>
0.281

> <Angle>
1.722

> <Pdih>
4.950

> <Idih>
0.000

> <Tether>
0.000

$$$$
VeraChem MOL file


 26 25  0  0  0  0  0  0  0  0999 V2000     
   19.3766   18.9829   25.6596 N   0  3  0  0  0  0  0  0  0  0  0  0
   19.1503   18.8831   26.6618 H   0  0  0  0  0  0  0  0  0  0  0  0
   18.7338   18.3392   25.1753 H   0  0  0  0  0  0  0  0  0  0  0  0
   20.8184   18.5635   25.4267 C   0  0  0  0  0  0  0  0  0  0  0  0
   21.0660   17.8495   26.2163 H   0  0  0  0  0  0  0  0  0  0  0  0
   21.4536   19.4417   25.5663 H   0  0  0  0  0  0  0  0  0  0  0  0
   21.1277   17.8917   24.0675 C   0  0  0  0  0  0  0  0  0  0  0  0
   22.1786   17.5748   24.0990 H   0  0  0  0  0  0  0  0  0  0  0  0
   20.5431   16.9683   23.9618 H   0  0  0  0  0  0  0  0  0  0  0  0
   20.9366   18.7987   22.8252 C   0  0  0  0  0  0  0  0  0  0  0  0
   21.6794   18.5057   22.0714 H   0  0  0  0  0  0  0  0  0  0  0  0
   21.1629   19.8418   23.0844 H   0  0  0  0  0  0  0  0  0  0  0  0
   19.5255   18.6829   22.1932 C   0  0  0  0  0  0  0  0  0  0  0  0
   19.3839   17.6673   21.7986 H   0  0  0  0  0  0  0  0  0  0  0  0
   18.7556   18.8168   22.9618 H   0  0  0  0  0  0  0  0  0  0  0  0
   19.2718   19.7120   21.0651 C   0  0  0  0  0  0  0  0  0  0  0  0
   19.3799   20.7314   21.4612 H   0  0  0  0  0  0  0  0  0  0  0  0
   18.2282   19.6210   20.7326 H   0  0  0  0  0  0  0  0  0  0  0  0
   20.2019   19.5283   19.8443 C   0  0  0  0  0  0  0  0  0  0  0  0
   19.9225   20.2218   19.0407 H   0  0  0  0  0  0  0  0  0  0  0  0
   20.1335   18.5078   19.4456 H   0  0  0  0  0  0  0  0  0  0  0  0
   21.2495   19.7277   20.1021 H   0  0  0  0  0  0  0  0  0  0  0  0
   19.1495   20.4299   25.2353 C   0  0  0  0  0  0  0  0  0  0  0  0
   19.8115   21.0794   25.8121 H   0  0  0  0  0  0  0  0  0  0  0  0
   19.3648   20.5369   24.1711 H   0  0  0  0  0  0  0  0  0  0  0  0
   18.1090   20.6999   25.4294 H   0  0  0  0  0  0  0  0  0  0  0  0
  1  2  1  0  0  0  0
  1  3  1  0  0  0  0
  1  4  1  0  0  0  0
  4  5  1  0  0  0  0
  4  6  1  0  0  0  0
  4  7  1  0  0  0  0
  7  8  1  0  0  0  0
  7  9  1  0  0  0  0
  7 10  1  0  0  0  0
 10 11  1  0  0  0  0
 10 12  1  0  0  0  0
 10 13  1  0  0  0  0
 13 14  1  0  0  0  0
 13 15  1  0  0  0  0
 13 16  1  0  0  0  0
 16 17  1  0  0  0  0
 16 18  1  0  0  0  0
 16 19  1  0  0  0  0
 19 20  1  0  0  0  0
 19 21  1  0  0  0  0
 19 22  1  0  0  0  0
  1 23  1  0  0  0  0
 23 24  1  0  0  0  0
 23 25  1  0  0  0  0
 23 26  1  0  0  0  0
M  END
> <VM2 Rank>
203

> <Conf_Id>
1333

> <Probability>
0.00

> <Sum Probability>
100.00

> <Delta G>
5.686

> <G>
81.153

> <E>
48.074

> <-TS>
33.079

> <U+W>
26.612

> <U>
76.615

> <W>
-50.003

> <W(PB)>
-52.185

> <W(SA)>
2.182

> <Valence>
6.481

> <Coulomb>
70.025

> <VdW>
0.109

> <VdW6>
-9.001

> <VdW12>
9.110

> <Bond>
0.267

> <Angle>
1.571

> <Pdih>
4.643

> <Idih>
0.000

> <Tether>
0.000

$$$$
VeraChem MOL file


 26 25  0  0  0  0  0  0  0  0999 V2000     
   19.9921   18.5109   26.0438 N   0  3  0  0  0  0  0  0  0  0  0  0
   20.4179   18.0507   26.8639 H   0  0  0  0  0  0  0  0  0  0  0  0
   19.2868   17.8422   25.6992 H   0  0  0  0  0  0  0  0  0  0  0  0
   21.0590   18.7446   24.9866 C   0  0  0  0  0  0  0  0  0  0  0  0
   21.8530   18.0173   25.1747 H   0  0  0  0  0  0  0  0  0  0  0  0
   21.4795   19.7418   25.1390 H   0  0  0  0  0  0  0  0  0  0  0  0
   20.5931   18.5758   23.5232 C   0  0  0  0  0  0  0  0  0  0  0  0
   21.4787   18.6856   22.8862 H   0  0  0  0  0  0  0  0  0  0  0  0
   20.2207   17.5539   23.3741 H   0  0  0  0  0  0  0  0  0  0  0  0
   19.5164   19.5974   23.0835 C   0  0  0  0  0  0  0  0  0  0  0  0
   19.8995   20.6173   23.2259 H   0  0  0  0  0  0  0  0  0  0  0  0
   18.6391   19.5011   23.7353 H   0  0  0  0  0  0  0  0  0  0  0  0
   19.0321   19.4269   21.6199 C   0  0  0  0  0  0  0  0  0  0  0  0
   18.5450   18.4499   21.4954 H   0  0  0  0  0  0  0  0  0  0  0  0
   18.2446   20.1728   21.4437 H   0  0  0  0  0  0  0  0  0  0  0  0
   20.1298   19.6209   20.5419 C   0  0  0  0  0  0  0  0  0  0  0  0
   20.9221   20.2836   20.9170 H   0  0  0  0  0  0  0  0  0  0  0  0
   19.6873   20.1390   19.6795 H   0  0  0  0  0  0  0  0  0  0  0  0
   20.7347   18.2891   20.0389 C   0  0  0  0  0  0  0  0  0  0  0  0
   19.9622   17.6561   19.5831 H   0  0  0  0  0  0  0  0  0  0  0  0
   21.2037   17.7171   20.8471 H   0  0  0  0  0  0  0  0  0  0  0  0
   21.5012   18.4788   19.2765 H   0  0  0  0  0  0  0  0  0  0  0  0
   19.3509   19.8242   26.4792 C   0  0  0  0  0  0  0  0  0  0  0  0
   18.5983   19.6176   27.2433 H   0  0  0  0  0  0  0  0  0  0  0  0
   20.1223   20.4784   26.8913 H   0  0  0  0  0  0  0  0  0  0  0  0
   18.8805   20.3067   25.6214 H   0  0  0  0  0  0  0  0  0  0  0  0
  1  2  1  0  0  0  0
  1  3  1  0  0  0  0
  1  4  1  0  0  0  0
  4  5  1  0  0  0  0
  4  6  1  0  0  0  0
  4  7  1  0  0  0  0
  7  8  1  0  0  0  0
  7  9  1  0  0  0  0
  7 10  1  0  0  0  0
 10 11  1  0  0  0  0
 10 12  1  0  0  0  0
 10 13  1  0  0  0  0
 13 14  1  0  0  0  0
 13 15  1  0  0  0  0
 13 16  1  0  0  0  0
 16 17  1  0  0  0  0
 16 18  1  0  0  0  0
 16 19  1  0  0  0  0
 19 20  1  0  0  0  0
 19 21  1  0  0  0  0
 19 22  1  0  0  0  0
  1 23  1  0  0  0  0
 23 24  1  0  0  0  0
 23 25  1  0  0  0  0
 23 26  1  0  0  0  0
M  END
> <VM2 Rank>
204

> <Conf_Id>
839

> <Probability>
0.00

> <Sum Probability>
100.00

> <Delta G>
5.713

> <G>
81.179

> <E>
48.416

> <-TS>
32.763

> <U+W>
26.954

> <U>
76.526

> <W>
-49.572

> <W(PB)>
-51.788

> <W(SA)>
2.215

> <Valence>
6.989

> <Coulomb>
69.059

> <VdW>
0.478

> <VdW6>
-8.314

> <VdW12>
8.792

> <Bond>
0.275

> <Angle>
1.647

> <Pdih>
5.068

> <Idih>
0.000

> <Tether>
0.000

$$$$
VeraChem MOL file


 26 25  0  0  0  0  0  0  0  0999 V2000     
   19.7665   18.2101   25.3470 N   0  3  0  0  0  0  0  0  0  0  0  0
   19.8465   17.5569   26.1422 H   0  0  0  0  0  0  0  0  0  0  0  0
   19.7487   17.6119   24.5078 H   0  0  0  0  0  0  0  0  0  0  0  0
   20.9816   19.1205   25.3172 C   0  0  0  0  0  0  0  0  0  0  0  0
   21.7790   18.5951   25.8489 H   0  0  0  0  0  0  0  0  0  0  0  0
   20.7445   20.0222   25.8873 H   0  0  0  0  0  0  0  0  0  0  0  0
   21.5149   19.4998   23.9157 C   0  0  0  0  0  0  0  0  0  0  0  0
   22.4270   20.0909   24.0719 H   0  0  0  0  0  0  0  0  0  0  0  0
   21.8398   18.5968   23.3859 H   0  0  0  0  0  0  0  0  0  0  0  0
   20.5441   20.3429   23.0455 C   0  0  0  0  0  0  0  0  0  0  0  0
   21.1357   21.0004   22.3936 H   0  0  0  0  0  0  0  0  0  0  0  0
   19.9691   21.0171   23.6948 H   0  0  0  0  0  0  0  0  0  0  0  0
   19.5743   19.5231   22.1536 C   0  0  0  0  0  0  0  0  0  0  0  0
   19.0189   18.7932   22.7530 H   0  0  0  0  0  0  0  0  0  0  0  0
   18.8235   20.2105   21.7401 H   0  0  0  0  0  0  0  0  0  0  0  0
   20.2784   18.7994   20.9807 C   0  0  0  0  0  0  0  0  0  0  0  0
   21.0034   18.0679   21.3602 H   0  0  0  0  0  0  0  0  0  0  0  0
   20.8459   19.5265   20.3833 H   0  0  0  0  0  0  0  0  0  0  0  0
   19.2650   18.0729   20.0706 C   0  0  0  0  0  0  0  0  0  0  0  0
   18.7024   17.3153   20.6317 H   0  0  0  0  0  0  0  0  0  0  0  0
   19.7800   17.5660   19.2443 H   0  0  0  0  0  0  0  0  0  0  0  0
   18.5464   18.7798   19.6358 H   0  0  0  0  0  0  0  0  0  0  0  0
   18.4831   19.0214   25.4866 C   0  0  0  0  0  0  0  0  0  0  0  0
   18.3909   19.7061   24.6420 H   0  0  0  0  0  0  0  0  0  0  0  0
   17.6295   18.3401   25.5046 H   0  0  0  0  0  0  0  0  0  0  0  0
   18.5197   19.5898   26.4185 H   0  0  0  0  0  0  0  0  0  0  0  0
  1  2  1  0  0  0  0
  1  3  1  0  0  0  0
  1  4  1  0  0  0  0
  4  5  1  0  0  0  0
  4  6  1  0  0  0  0
  4  7  1  0  0  0  0
  7  8  1  0  0  0  0
  7  9  1  0  0  0  0
  7 10  1  0  0  0  0
 10 11  1  0  0  0  0
 10 12  1  0  0  0  0
 10 13  1  0  0  0  0
 13 14  1  0  0  0  0
 13 15  1  0  0  0  0
 13 16  1  0  0  0  0
 16 17  1  0  0  0  0
 16 18  1  0  0  0  0
 16 19  1  0  0  0  0
 19 20  1  0  0  0  0
 19 21  1  0  0  0  0
 19 22  1  0  0  0  0
  1 23  1  0  0  0  0
 23 24  1  0  0  0  0
 23 25  1  0  0  0  0
 23 26  1  0  0  0  0
M  END
> <VM2 Rank>
205

> <Conf_Id>
270

> <Probability>
0.00

> <Sum Probability>
100.00

> <Delta G>
5.771

> <G>
81.238

> <E>
48.414

> <-TS>
32.823

> <U+W>
26.952

> <U>
77.039

> <W>
-50.087

> <W(PB)>
-52.291

> <W(SA)>
2.204

> <Valence>
6.724

> <Coulomb>
70.181

> <VdW>
0.134

> <VdW6>
-8.757

> <VdW12>
8.891

> <Bond>
0.279

> <Angle>
1.699

> <Pdih>
4.746

> <Idih>
0.000

> <Tether>
0.000

$$$$
VeraChem MOL file


 26 25  0  0  0  0  0  0  0  0999 V2000     
   20.3586   18.2705   25.3683 N   0  3  0  0  0  0  0  0  0  0  0  0
   20.5553   17.6937   24.5370 H   0  0  0  0  0  0  0  0  0  0  0  0
   20.3563   17.6092   26.1609 H   0  0  0  0  0  0  0  0  0  0  0  0
   18.9903   18.9177   25.2468 C   0  0  0  0  0  0  0  0  0  0  0  0
   19.0004   19.8446   25.8255 H   0  0  0  0  0  0  0  0  0  0  0  0
   18.2797   18.2387   25.7250 H   0  0  0  0  0  0  0  0  0  0  0  0
   18.4912   19.1916   23.8085 C   0  0  0  0  0  0  0  0  0  0  0  0
   18.3929   18.2455   23.2639 H   0  0  0  0  0  0  0  0  0  0  0  0
   17.4701   19.5857   23.8961 H   0  0  0  0  0  0  0  0  0  0  0  0
   19.3309   20.2191   23.0026 C   0  0  0  0  0  0  0  0  0  0  0  0
   19.7115   20.9906   23.6858 H   0  0  0  0  0  0  0  0  0  0  0  0
   18.6662   20.7488   22.3062 H   0  0  0  0  0  0  0  0  0  0  0  0
   20.5059   19.6178   22.1866 C   0  0  0  0  0  0  0  0  0  0  0  0
   21.1303   20.4452   21.8222 H   0  0  0  0  0  0  0  0  0  0  0  0
   21.1533   19.0100   22.8285 H   0  0  0  0  0  0  0  0  0  0  0  0
   20.0458   18.7760   20.9722 C   0  0  0  0  0  0  0  0  0  0  0  0
   19.3871   19.3787   20.3313 H   0  0  0  0  0  0  0  0  0  0  0  0
   19.4576   17.9111   21.3048 H   0  0  0  0  0  0  0  0  0  0  0  0
   21.2459   18.2746   20.1407 C   0  0  0  0  0  0  0  0  0  0  0  0
   21.9083   17.6414   20.7451 H   0  0  0  0  0  0  0  0  0  0  0  0
   21.8366   19.1147   19.7526 H   0  0  0  0  0  0  0  0  0  0  0  0
   20.9026   17.6808   19.2836 H   0  0  0  0  0  0  0  0  0  0  0  0
   21.4395   19.3226   25.5913 C   0  0  0  0  0  0  0  0  0  0  0  0
   21.4509   20.0175   24.7500 H   0  0  0  0  0  0  0  0  0  0  0  0
   21.2240   19.8658   26.5140 H   0  0  0  0  0  0  0  0  0  0  0  0
   22.4093   18.8271   25.6741 H   0  0  0  0  0  0  0  0  0  0  0  0
  1  2  1  0  0  0  0
  1  3  1  0  0  0  0
  1  4  1  0  0  0  0
  4  5  1  0  0  0  0
  4  6  1  0  0  0  0
  4  7  1  0  0  0  0
  7  8  1  0  0  0  0
  7  9  1  0  0  0  0
  7 10  1  0  0  0  0
 10 11  1  0  0  0  0
 10 12  1  0  0  0  0
 10 13  1  0  0  0  0
 13 14  1  0  0  0  0
 13 15  1  0  0  0  0
 13 16  1  0  0  0  0
 16 17  1  0  0  0  0
 16 18  1  0  0  0  0
 16 19  1  0  0  0  0
 19 20  1  0  0  0  0
 19 21  1  0  0  0  0
 19 22  1  0  0  0  0
  1 23  1  0  0  0  0
 23 24  1  0  0  0  0
 23 25  1  0  0  0  0
 23 26  1  0  0  0  0
M  END
> <VM2 Rank>
206

> <Conf_Id>
1350

> <Probability>
0.00

> <Sum Probability>
100.00

> <Delta G>
5.809

> <G>
81.275

> <E>
48.451

> <-TS>
32.825

> <U+W>
26.989

> <U>
77.039

> <W>
-50.050

> <W(PB)>
-52.250

> <W(SA)>
2.200

> <Valence>
6.724

> <Coulomb>
70.181

> <VdW>
0.134

> <VdW6>
-8.757

> <VdW12>
8.891

> <Bond>
0.279

> <Angle>
1.699

> <Pdih>
4.746

> <Idih>
0.000

> <Tether>
0.000

$$$$
VeraChem MOL file


 26 25  0  0  0  0  0  0  0  0999 V2000     
   19.2491   19.0924   24.9400 N   0  3  0  0  0  0  0  0  0  0  0  0
   18.9734   18.2400   25.4520 H   0  0  0  0  0  0  0  0  0  0  0  0
   18.7951   19.0255   24.0172 H   0  0  0  0  0  0  0  0  0  0  0  0
   20.7542   19.1315   24.7652 C   0  0  0  0  0  0  0  0  0  0  0  0
   21.2024   19.1778   25.7610 H   0  0  0  0  0  0  0  0  0  0  0  0
   21.0134   20.0520   24.2386 H   0  0  0  0  0  0  0  0  0  0  0  0
   21.3247   17.9188   24.0046 C   0  0  0  0  0  0  0  0  0  0  0  0
   22.4135   18.0366   23.9254 H   0  0  0  0  0  0  0  0  0  0  0  0
   21.1633   17.0183   24.6120 H   0  0  0  0  0  0  0  0  0  0  0  0
   20.7316   17.6803   22.5896 C   0  0  0  0  0  0  0  0  0  0  0  0
   19.6617   17.4499   22.6526 H   0  0  0  0  0  0  0  0  0  0  0  0
   21.1949   16.7636   22.1989 H   0  0  0  0  0  0  0  0  0  0  0  0
   21.0013   18.8130   21.5605 C   0  0  0  0  0  0  0  0  0  0  0  0
   22.0245   19.1896   21.6954 H   0  0  0  0  0  0  0  0  0  0  0  0
   20.9823   18.3736   20.5535 H   0  0  0  0  0  0  0  0  0  0  0  0
   20.0084   20.0054   21.5743 C   0  0  0  0  0  0  0  0  0  0  0  0
   20.3583   20.7493   20.8449 H   0  0  0  0  0  0  0  0  0  0  0  0
   20.0192   20.5193   22.5415 H   0  0  0  0  0  0  0  0  0  0  0  0
   18.5596   19.6108   21.2047 C   0  0  0  0  0  0  0  0  0  0  0  0
   17.9259   20.5044   21.1337 H   0  0  0  0  0  0  0  0  0  0  0  0
   18.1086   18.9475   21.9513 H   0  0  0  0  0  0  0  0  0  0  0  0
   18.5270   19.1021   20.2325 H   0  0  0  0  0  0  0  0  0  0  0  0
   18.7791   20.3378   25.6781 C   0  0  0  0  0  0  0  0  0  0  0  0
   17.6938   20.2974   25.7941 H   0  0  0  0  0  0  0  0  0  0  0  0
   19.2540   20.3728   26.6610 H   0  0  0  0  0  0  0  0  0  0  0  0
   19.0559   21.2232   25.1016 H   0  0  0  0  0  0  0  0  0  0  0  0
  1  2  1  0  0  0  0
  1  3  1  0  0  0  0
  1  4  1  0  0  0  0
  4  5  1  0  0  0  0
  4  6  1  0  0  0  0
  4  7  1  0  0  0  0
  7  8  1  0  0  0  0
  7  9  1  0  0  0  0
  7 10  1  0  0  0  0
 10 11  1  0  0  0  0
 10 12  1  0  0  0  0
 10 13  1  0  0  0  0
 13 14  1  0  0  0  0
 13 15  1  0  0  0  0
 13 16  1  0  0  0  0
 16 17  1  0  0  0  0
 16 18  1  0  0  0  0
 16 19  1  0  0  0  0
 19 20  1  0  0  0  0
 19 21  1  0  0  0  0
 19 22  1  0  0  0  0
  1 23  1  0  0  0  0
 23 24  1  0  0  0  0
 23 25  1  0  0  0  0
 23 26  1  0  0  0  0
M  END
> <VM2 Rank>
207

> <Conf_Id>
841

> <Probability>
0.00

> <Sum Probability>
100.00

> <Delta G>
5.837

> <G>
81.303

> <E>
48.161

> <-TS>
33.142

> <U+W>
26.699

> <U>
75.617

> <W>
-48.918

> <W(PB)>
-51.101

> <W(SA)>
2.184

> <Valence>
5.117

> <Coulomb>
70.837

> <VdW>
-0.337

> <VdW6>
-9.231

> <VdW12>
8.894

> <Bond>
0.293

> <Angle>
2.154

> <Pdih>
2.670

> <Idih>
0.000

> <Tether>
0.000

$$$$
VeraChem MOL file


 26 25  0  0  0  0  0  0  0  0999 V2000     
   19.7960   18.5494   26.0790 N   0  3  0  0  0  0  0  0  0  0  0  0
   20.6527   18.1144   26.4545 H   0  0  0  0  0  0  0  0  0  0  0  0
   19.0319   18.1654   26.6573 H   0  0  0  0  0  0  0  0  0  0  0  0
   19.5834   18.1290   24.6312 C   0  0  0  0  0  0  0  0  0  0  0  0
   18.6852   18.6250   24.2576 H   0  0  0  0  0  0  0  0  0  0  0  0
   19.3821   17.0549   24.6549 H   0  0  0  0  0  0  0  0  0  0  0  0
   20.7751   18.3703   23.6745 C   0  0  0  0  0  0  0  0  0  0  0  0
   21.7154   18.2531   24.2290 H   0  0  0  0  0  0  0  0  0  0  0  0
   20.7732   17.5717   22.9246 H   0  0  0  0  0  0  0  0  0  0  0  0
   20.7597   19.7467   22.9557 C   0  0  0  0  0  0  0  0  0  0  0  0
   21.7027   19.8832   22.4088 H   0  0  0  0  0  0  0  0  0  0  0  0
   20.7463   20.5446   23.7069 H   0  0  0  0  0  0  0  0  0  0  0  0
   19.5639   19.9594   21.9870 C   0  0  0  0  0  0  0  0  0  0  0  0
   18.6822   19.3979   22.3211 H   0  0  0  0  0  0  0  0  0  0  0  0
   19.2724   21.0178   22.0338 H   0  0  0  0  0  0  0  0  0  0  0  0
   19.8657   19.6264   20.5034 C   0  0  0  0  0  0  0  0  0  0  0  0
   20.6813   20.2667   20.1394 H   0  0  0  0  0  0  0  0  0  0  0  0
   18.9837   19.8872   19.9019 H   0  0  0  0  0  0  0  0  0  0  0  0
   20.2206   18.1459   20.2440 C   0  0  0  0  0  0  0  0  0  0  0  0
   21.1912   17.8855   20.6835 H   0  0  0  0  0  0  0  0  0  0  0  0
   20.2875   17.9510   19.1658 H   0  0  0  0  0  0  0  0  0  0  0  0
   19.4566   17.4761   20.6592 H   0  0  0  0  0  0  0  0  0  0  0  0
   19.8436   20.0630   26.2422 C   0  0  0  0  0  0  0  0  0  0  0  0
   18.9477   20.5015   25.7973 H   0  0  0  0  0  0  0  0  0  0  0  0
   19.8840   20.3051   27.3065 H   0  0  0  0  0  0  0  0  0  0  0  0
   20.7359   20.4504   25.7481 H   0  0  0  0  0  0  0  0  0  0  0  0
  1  2  1  0  0  0  0
  1  3  1  0  0  0  0
  1  4  1  0  0  0  0
  4  5  1  0  0  0  0
  4  6  1  0  0  0  0
  4  7  1  0  0  0  0
  7  8  1  0  0  0  0
  7  9  1  0  0  0  0
  7 10  1  0  0  0  0
 10 11  1  0  0  0  0
 10 12  1  0  0  0  0
 10 13  1  0  0  0  0
 13 14  1  0  0  0  0
 13 15  1  0  0  0  0
 13 16  1  0  0  0  0
 16 17  1  0  0  0  0
 16 18  1  0  0  0  0
 16 19  1  0  0  0  0
 19 20  1  0  0  0  0
 19 21  1  0  0  0  0
 19 22  1  0  0  0  0
  1 23  1  0  0  0  0
 23 24  1  0  0  0  0
 23 25  1  0  0  0  0
 23 26  1  0  0  0  0
M  END
> <VM2 Rank>
208

> <Conf_Id>
1344

> <Probability>
0.00

> <Sum Probability>
100.00

> <Delta G>
5.857

> <G>
81.324

> <E>
48.798

> <-TS>
32.526

> <U+W>
27.336

> <U>
77.250

> <W>
-49.914

> <W(PB)>
-52.089

> <W(SA)>
2.175

> <Valence>
7.375

> <Coulomb>
69.347

> <VdW>
0.528

> <VdW6>
-8.925

> <VdW12>
9.453

> <Bond>
0.330

> <Angle>
1.936

> <Pdih>
5.109

> <Idih>
0.000

> <Tether>
0.000

$$$$
VeraChem MOL file


 26 25  0  0  0  0  0  0  0  0999 V2000     
   19.5408   18.6759   25.6525 N   0  3  0  0  0  0  0  0  0  0  0  0
   20.2631   18.3630   26.3197 H   0  0  0  0  0  0  0  0  0  0  0  0
   19.0398   17.8198   25.3688 H   0  0  0  0  0  0  0  0  0  0  0  0
   20.1891   19.3277   24.4480 C   0  0  0  0  0  0  0  0  0  0  0  0
   20.7259   20.2139   24.7955 H   0  0  0  0  0  0  0  0  0  0  0  0
   19.3917   19.6536   23.7782 H   0  0  0  0  0  0  0  0  0  0  0  0
   21.1618   18.3946   23.7003 C   0  0  0  0  0  0  0  0  0  0  0  0
   21.9539   18.0979   24.4007 H   0  0  0  0  0  0  0  0  0  0  0  0
   20.6546   17.4692   23.3979 H   0  0  0  0  0  0  0  0  0  0  0  0
   21.8188   19.0675   22.4697 C   0  0  0  0  0  0  0  0  0  0  0  0
   22.7884   18.5804   22.2963 H   0  0  0  0  0  0  0  0  0  0  0  0
   22.0535   20.1166   22.6976 H   0  0  0  0  0  0  0  0  0  0  0  0
   21.0126   18.9793   21.1452 C   0  0  0  0  0  0  0  0  0  0  0  0
   21.6350   19.4217   20.3550 H   0  0  0  0  0  0  0  0  0  0  0  0
   20.8791   17.9277   20.8561 H   0  0  0  0  0  0  0  0  0  0  0  0
   19.6467   19.7118   21.1397 C   0  0  0  0  0  0  0  0  0  0  0  0
   19.4880   20.1477   20.1433 H   0  0  0  0  0  0  0  0  0  0  0  0
   19.6631   20.5613   21.8357 H   0  0  0  0  0  0  0  0  0  0  0  0
   18.4519   18.7768   21.4420 C   0  0  0  0  0  0  0  0  0  0  0  0
   18.5506   18.2782   22.4121 H   0  0  0  0  0  0  0  0  0  0  0  0
   18.3632   17.9975   20.6740 H   0  0  0  0  0  0  0  0  0  0  0  0
   17.5118   19.3434   21.4503 H   0  0  0  0  0  0  0  0  0  0  0  0
   18.5863   19.6564   26.3195 C   0  0  0  0  0  0  0  0  0  0  0  0
   18.1263   19.1754   27.1856 H   0  0  0  0  0  0  0  0  0  0  0  0
   19.1444   20.5386   26.6407 H   0  0  0  0  0  0  0  0  0  0  0  0
   17.8130   19.9473   25.6051 H   0  0  0  0  0  0  0  0  0  0  0  0
  1  2  1  0  0  0  0
  1  3  1  0  0  0  0
  1  4  1  0  0  0  0
  4  5  1  0  0  0  0
  4  6  1  0  0  0  0
  4  7  1  0  0  0  0
  7  8  1  0  0  0  0
  7  9  1  0  0  0  0
  7 10  1  0  0  0  0
 10 11  1  0  0  0  0
 10 12  1  0  0  0  0
 10 13  1  0  0  0  0
 13 14  1  0  0  0  0
 13 15  1  0  0  0  0
 13 16  1  0  0  0  0
 16 17  1  0  0  0  0
 16 18  1  0  0  0  0
 16 19  1  0  0  0  0
 19 20  1  0  0  0  0
 19 21  1  0  0  0  0
 19 22  1  0  0  0  0
  1 23  1  0  0  0  0
 23 24  1  0  0  0  0
 23 25  1  0  0  0  0
 23 26  1  0  0  0  0
M  END
> <VM2 Rank>
209

> <Conf_Id>
1626

> <Probability>
0.00

> <Sum Probability>
100.00

> <Delta G>
5.922

> <G>
81.389

> <E>
48.350

> <-TS>
33.039

> <U+W>
26.888

> <U>
76.568

> <W>
-49.679

> <W(PB)>
-51.903

> <W(SA)>
2.224

> <Valence>
6.604

> <Coulomb>
70.083

> <VdW>
-0.119

> <VdW6>
-8.383

> <VdW12>
8.264

> <Bond>
0.244

> <Angle>
1.737

> <Pdih>
4.623

> <Idih>
0.000

> <Tether>
0.000

$$$$
VeraChem MOL file


 26 25  0  0  0  0  0  0  0  0999 V2000     
   19.6965   19.6012   25.7880 N   0  3  0  0  0  0  0  0  0  0  0  0
   19.4439   20.5300   26.1611 H   0  0  0  0  0  0  0  0  0  0  0  0
   20.3631   19.2120   26.4724 H   0  0  0  0  0  0  0  0  0  0  0  0
   20.3678   19.7613   24.4344 C   0  0  0  0  0  0  0  0  0  0  0  0
   21.1380   20.5289   24.5442 H   0  0  0  0  0  0  0  0  0  0  0  0
   19.6195   20.1342   23.7329 H   0  0  0  0  0  0  0  0  0  0  0  0
   21.0221   18.4733   23.8887 C   0  0  0  0  0  0  0  0  0  0  0  0
   21.7416   18.1161   24.6373 H   0  0  0  0  0  0  0  0  0  0  0  0
   20.2790   17.6747   23.7704 H   0  0  0  0  0  0  0  0  0  0  0  0
   21.7737   18.6977   22.5531 C   0  0  0  0  0  0  0  0  0  0  0  0
   22.5705   17.9442   22.4835 H   0  0  0  0  0  0  0  0  0  0  0  0
   22.2882   19.6685   22.5718 H   0  0  0  0  0  0  0  0  0  0  0  0
   20.9107   18.5794   21.2675 C   0  0  0  0  0  0  0  0  0  0  0  0
   21.5884   18.6848   20.4089 H   0  0  0  0  0  0  0  0  0  0  0  0
   20.4942   17.5659   21.1868 H   0  0  0  0  0  0  0  0  0  0  0  0
   19.7840   19.6328   21.1161 C   0  0  0  0  0  0  0  0  0  0  0  0
   19.7009   19.9068   20.0549 H   0  0  0  0  0  0  0  0  0  0  0  0
   20.0510   20.5595   21.6418 H   0  0  0  0  0  0  0  0  0  0  0  0
   18.4022   19.1164   21.5812 C   0  0  0  0  0  0  0  0  0  0  0  0
   17.6439   19.9042   21.4859 H   0  0  0  0  0  0  0  0  0  0  0  0
   18.4145   18.7870   22.6254 H   0  0  0  0  0  0  0  0  0  0  0  0
   18.0775   18.2662   20.9673 H   0  0  0  0  0  0  0  0  0  0  0  0
   18.4510   18.7278   25.6880 C   0  0  0  0  0  0  0  0  0  0  0  0
   18.7350   17.7299   25.3481 H   0  0  0  0  0  0  0  0  0  0  0  0
   17.9825   18.6606   26.6724 H   0  0  0  0  0  0  0  0  0  0  0  0
   17.7535   19.1776   24.9782 H   0  0  0  0  0  0  0  0  0  0  0  0
  1  2  1  0  0  0  0
  1  3  1  0  0  0  0
  1  4  1  0  0  0  0
  4  5  1  0  0  0  0
  4  6  1  0  0  0  0
  4  7  1  0  0  0  0
  7  8  1  0  0  0  0
  7  9  1  0  0  0  0
  7 10  1  0  0  0  0
 10 11  1  0  0  0  0
 10 12  1  0  0  0  0
 10 13  1  0  0  0  0
 13 14  1  0  0  0  0
 13 15  1  0  0  0  0
 13 16  1  0  0  0  0
 16 17  1  0  0  0  0
 16 18  1  0  0  0  0
 16 19  1  0  0  0  0
 19 20  1  0  0  0  0
 19 21  1  0  0  0  0
 19 22  1  0  0  0  0
  1 23  1  0  0  0  0
 23 24  1  0  0  0  0
 23 25  1  0  0  0  0
 23 26  1  0  0  0  0
M  END
> <VM2 Rank>
210

> <Conf_Id>
568

> <Probability>
0.00

> <Sum Probability>
100.00

> <Delta G>
5.984

> <G>
81.451

> <E>
48.059

> <-TS>
33.391

> <U+W>
26.598

> <U>
76.813

> <W>
-50.215

> <W(PB)>
-52.361

> <W(SA)>
2.146

> <Valence>
6.903

> <Coulomb>
69.931

> <VdW>
-0.021

> <VdW6>
-9.386

> <VdW12>
9.365

> <Bond>
0.281

> <Angle>
1.859

> <Pdih>
4.763

> <Idih>
0.000

> <Tether>
0.000

$$$$
VeraChem MOL file


 26 25  0  0  0  0  0  0  0  0999 V2000     
   20.1591   20.1473   24.7896 N   0  3  0  0  0  0  0  0  0  0  0  0
   19.7045   20.3668   23.8912 H   0  0  0  0  0  0  0  0  0  0  0  0
   20.7757   20.9509   24.9895 H   0  0  0  0  0  0  0  0  0  0  0  0
   20.9945   18.8857   24.6442 C   0  0  0  0  0  0  0  0  0  0  0  0
   21.4531   18.6789   25.6145 H   0  0  0  0  0  0  0  0  0  0  0  0
   21.7993   19.1002   23.9382 H   0  0  0  0  0  0  0  0  0  0  0  0
   20.2216   17.6376   24.1657 C   0  0  0  0  0  0  0  0  0  0  0  0
   20.9331   16.8094   24.0504 H   0  0  0  0  0  0  0  0  0  0  0  0
   19.5304   17.3257   24.9595 H   0  0  0  0  0  0  0  0  0  0  0  0
   19.4205   17.8116   22.8473 C   0  0  0  0  0  0  0  0  0  0  0  0
   18.6458   18.5783   22.9651 H   0  0  0  0  0  0  0  0  0  0  0  0
   18.8689   16.8758   22.6824 H   0  0  0  0  0  0  0  0  0  0  0  0
   20.2810   18.0723   21.5799 C   0  0  0  0  0  0  0  0  0  0  0  0
   21.1781   17.4390   21.6145 H   0  0  0  0  0  0  0  0  0  0  0  0
   19.7143   17.7284   20.7035 H   0  0  0  0  0  0  0  0  0  0  0  0
   20.7006   19.5437   21.3241 C   0  0  0  0  0  0  0  0  0  0  0  0
   21.3515   19.5640   20.4387 H   0  0  0  0  0  0  0  0  0  0  0  0
   21.3153   19.9278   22.1452 H   0  0  0  0  0  0  0  0  0  0  0  0
   19.5069   20.4930   21.0681 C   0  0  0  0  0  0  0  0  0  0  0  0
   18.8898   20.1309   20.2355 H   0  0  0  0  0  0  0  0  0  0  0  0
   19.8654   21.4964   20.8038 H   0  0  0  0  0  0  0  0  0  0  0  0
   18.8626   20.5953   21.9485 H   0  0  0  0  0  0  0  0  0  0  0  0
   19.1238   19.9987   25.8982 C   0  0  0  0  0  0  0  0  0  0  0  0
   19.6346   19.7811   26.8386 H   0  0  0  0  0  0  0  0  0  0  0  0
   18.5621   20.9309   25.9906 H   0  0  0  0  0  0  0  0  0  0  0  0
   18.4429   19.1824   25.6488 H   0  0  0  0  0  0  0  0  0  0  0  0
  1  2  1  0  0  0  0
  1  3  1  0  0  0  0
  1  4  1  0  0  0  0
  4  5  1  0  0  0  0
  4  6  1  0  0  0  0
  4  7  1  0  0  0  0
  7  8  1  0  0  0  0
  7  9  1  0  0  0  0
  7 10  1  0  0  0  0
 10 11  1  0  0  0  0
 10 12  1  0  0  0  0
 10 13  1  0  0  0  0
 13 14  1  0  0  0  0
 13 15  1  0  0  0  0
 13 16  1  0  0  0  0
 16 17  1  0  0  0  0
 16 18  1  0  0  0  0
 16 19  1  0  0  0  0
 19 20  1  0  0  0  0
 19 21  1  0  0  0  0
 19 22  1  0  0  0  0
  1 23  1  0  0  0  0
 23 24  1  0  0  0  0
 23 25  1  0  0  0  0
 23 26  1  0  0  0  0
M  END
> <VM2 Rank>
211

> <Conf_Id>
285

> <Probability>
0.00

> <Sum Probability>
100.00

> <Delta G>
6.325

> <G>
81.791

> <E>
48.389

> <-TS>
33.402

> <U+W>
26.927

> <U>
76.224

> <W>
-49.297

> <W(PB)>
-51.459

> <W(SA)>
2.162

> <Valence>
5.366

> <Coulomb>
70.918

> <VdW>
-0.060

> <VdW6>
-9.938

> <VdW12>
9.878

> <Bond>
0.328

> <Angle>
2.304

> <Pdih>
2.734

> <Idih>
0.000

> <Tether>
0.000

$$$$
VeraChem MOL file


 26 25  0  0  0  0  0  0  0  0999 V2000     
   19.1205   18.4028   25.4341 N   0  3  0  0  0  0  0  0  0  0  0  0
   19.3616   17.4323   25.1811 H   0  0  0  0  0  0  0  0  0  0  0  0
   18.0961   18.3991   25.5622 H   0  0  0  0  0  0  0  0  0  0  0  0
   19.4884   19.3491   24.3035 C   0  0  0  0  0  0  0  0  0  0  0  0
   19.2591   20.3667   24.6292 H   0  0  0  0  0  0  0  0  0  0  0  0
   18.8368   19.1119   23.4608 H   0  0  0  0  0  0  0  0  0  0  0  0
   20.9628   19.2651   23.8517 C   0  0  0  0  0  0  0  0  0  0  0  0
   21.6002   19.5645   24.6935 H   0  0  0  0  0  0  0  0  0  0  0  0
   21.2349   18.2289   23.6126 H   0  0  0  0  0  0  0  0  0  0  0  0
   21.2789   20.1893   22.6497 C   0  0  0  0  0  0  0  0  0  0  0  0
   22.3435   20.4566   22.7010 H   0  0  0  0  0  0  0  0  0  0  0  0
   20.7329   21.1374   22.7526 H   0  0  0  0  0  0  0  0  0  0  0  0
   21.0228   19.5781   21.2452 C   0  0  0  0  0  0  0  0  0  0  0  0
   21.3729   20.3093   20.5033 H   0  0  0  0  0  0  0  0  0  0  0  0
   21.6550   18.6911   21.1003 H   0  0  0  0  0  0  0  0  0  0  0  0
   19.5461   19.2402   20.9178 C   0  0  0  0  0  0  0  0  0  0  0  0
   19.3685   19.4462   19.8529 H   0  0  0  0  0  0  0  0  0  0  0  0
   18.8683   19.9084   21.4660 H   0  0  0  0  0  0  0  0  0  0  0  0
   19.1867   17.7584   21.1784 C   0  0  0  0  0  0  0  0  0  0  0  0
   19.3632   17.4658   22.2188 H   0  0  0  0  0  0  0  0  0  0  0  0
   19.7836   17.0948   20.5394 H   0  0  0  0  0  0  0  0  0  0  0  0
   18.1286   17.5732   20.9528 H   0  0  0  0  0  0  0  0  0  0  0  0
   19.8016   18.8071   26.7367 C   0  0  0  0  0  0  0  0  0  0  0  0
   19.4838   18.1286   27.5314 H   0  0  0  0  0  0  0  0  0  0  0  0
   20.8847   18.7453   26.6131 H   0  0  0  0  0  0  0  0  0  0  0  0
   19.5147   19.8303   26.9889 H   0  0  0  0  0  0  0  0  0  0  0  0
  1  2  1  0  0  0  0
  1  3  1  0  0  0  0
  1  4  1  0  0  0  0
  4  5  1  0  0  0  0
  4  6  1  0  0  0  0
  4  7  1  0  0  0  0
  7  8  1  0  0  0  0
  7  9  1  0  0  0  0
  7 10  1  0  0  0  0
 10 11  1  0  0  0  0
 10 12  1  0  0  0  0
 10 13  1  0  0  0  0
 13 14  1  0  0  0  0
 13 15  1  0  0  0  0
 13 16  1  0  0  0  0
 16 17  1  0  0  0  0
 16 18  1  0  0  0  0
 16 19  1  0  0  0  0
 19 20  1  0  0  0  0
 19 21  1  0  0  0  0
 19 22  1  0  0  0  0
  1 23  1  0  0  0  0
 23 24  1  0  0  0  0
 23 25  1  0  0  0  0
 23 26  1  0  0  0  0
M  END
> <VM2 Rank>
212

> <Conf_Id>
1519

> <Probability>
0.00

> <Sum Probability>
100.00

> <Delta G>
6.394

> <G>
81.860

> <E>
48.646

> <-TS>
33.214

> <U+W>
27.184

> <U>
77.189

> <W>
-50.005

> <W(PB)>
-52.223

> <W(SA)>
2.218

> <Valence>
6.919

> <Coulomb>
70.049

> <VdW>
0.221

> <VdW6>
-8.980

> <VdW12>
9.200

> <Bond>
0.284

> <Angle>
1.855

> <Pdih>
4.781

> <Idih>
0.000

> <Tether>
0.000

$$$$
VeraChem MOL file


 26 25  0  0  0  0  0  0  0  0999 V2000     
   19.8641   19.6721   25.4890 N   0  3  0  0  0  0  0  0  0  0  0  0
   20.0858   20.4645   24.8684 H   0  0  0  0  0  0  0  0  0  0  0  0
   20.0347   20.0215   26.4453 H   0  0  0  0  0  0  0  0  0  0  0  0
   20.7981   18.5103   25.1978 C   0  0  0  0  0  0  0  0  0  0  0  0
   20.4996   17.6822   25.8456 H   0  0  0  0  0  0  0  0  0  0  0  0
   21.8039   18.8189   25.4938 H   0  0  0  0  0  0  0  0  0  0  0  0
   20.8371   18.0247   23.7301 C   0  0  0  0  0  0  0  0  0  0  0  0
   21.4782   17.1339   23.7005 H   0  0  0  0  0  0  0  0  0  0  0  0
   19.8430   17.6864   23.4172 H   0  0  0  0  0  0  0  0  0  0  0  0
   21.4161   19.0696   22.7383 C   0  0  0  0  0  0  0  0  0  0  0  0
   21.9082   18.5457   21.9072 H   0  0  0  0  0  0  0  0  0  0  0  0
   22.2175   19.6270   23.2428 H   0  0  0  0  0  0  0  0  0  0  0  0
   20.3809   20.0719   22.1580 C   0  0  0  0  0  0  0  0  0  0  0  0
   19.5764   20.2697   22.8750 H   0  0  0  0  0  0  0  0  0  0  0  0
   20.8867   21.0352   22.0044 H   0  0  0  0  0  0  0  0  0  0  0  0
   19.7681   19.6452   20.7996 C   0  0  0  0  0  0  0  0  0  0  0  0
   20.5666   19.5345   20.0526 H   0  0  0  0  0  0  0  0  0  0  0  0
   19.1232   20.4575   20.4364 H   0  0  0  0  0  0  0  0  0  0  0  0
   18.9380   18.3440   20.8608 C   0  0  0  0  0  0  0  0  0  0  0  0
   19.5714   17.4762   21.0825 H   0  0  0  0  0  0  0  0  0  0  0  0
   18.4490   18.1554   19.8964 H   0  0  0  0  0  0  0  0  0  0  0  0
   18.1544   18.4097   21.6266 H   0  0  0  0  0  0  0  0  0  0  0  0
   18.4057   19.2523   25.3434 C   0  0  0  0  0  0  0  0  0  0  0  0
   18.2232   18.9299   24.3164 H   0  0  0  0  0  0  0  0  0  0  0  0
   18.1993   18.4300   26.0319 H   0  0  0  0  0  0  0  0  0  0  0  0
   17.7632   20.1028   25.5819 H   0  0  0  0  0  0  0  0  0  0  0  0
  1  2  1  0  0  0  0
  1  3  1  0  0  0  0
  1  4  1  0  0  0  0
  4  5  1  0  0  0  0
  4  6  1  0  0  0  0
  4  7  1  0  0  0  0
  7  8  1  0  0  0  0
  7  9  1  0  0  0  0
  7 10  1  0  0  0  0
 10 11  1  0  0  0  0
 10 12  1  0  0  0  0
 10 13  1  0  0  0  0
 13 14  1  0  0  0  0
 13 15  1  0  0  0  0
 13 16  1  0  0  0  0
 16 17  1  0  0  0  0
 16 18  1  0  0  0  0
 16 19  1  0  0  0  0
 19 20  1  0  0  0  0
 19 21  1  0  0  0  0
 19 22  1  0  0  0  0
  1 23  1  0  0  0  0
 23 24  1  0  0  0  0
 23 25  1  0  0  0  0
 23 26  1  0  0  0  0
M  END
> <VM2 Rank>
213

> <Conf_Id>
555

> <Probability>
0.00

> <Sum Probability>
100.00

> <Delta G>
6.412

> <G>
81.879

> <E>
48.644

> <-TS>
33.234

> <U+W>
27.182

> <U>
77.340

> <W>
-50.158

> <W(PB)>
-52.285

> <W(SA)>
2.128

> <Valence>
6.847

> <Coulomb>
70.349

> <VdW>
0.144

> <VdW6>
-9.591

> <VdW12>
9.735

> <Bond>
0.315

> <Angle>
1.724

> <Pdih>
4.808

> <Idih>
0.000

> <Tether>
0.000

$$$$
VeraChem MOL file


 26 25  0  0  0  0  0  0  0  0999 V2000     
   19.7600   19.3603   25.4711 N   0  3  0  0  0  0  0  0  0  0  0  0
   19.4410   18.6346   26.1315 H   0  0  0  0  0  0  0  0  0  0  0  0
   18.9042   19.7260   25.0280 H   0  0  0  0  0  0  0  0  0  0  0  0
   20.6700   18.7490   24.4236 C   0  0  0  0  0  0  0  0  0  0  0  0
   21.5511   18.3621   24.9417 H   0  0  0  0  0  0  0  0  0  0  0  0
   20.9944   19.5488   23.7562 H   0  0  0  0  0  0  0  0  0  0  0  0
   20.0164   17.6102   23.6120 C   0  0  0  0  0  0  0  0  0  0  0  0
   20.7739   17.1262   22.9819 H   0  0  0  0  0  0  0  0  0  0  0  0
   19.6780   16.8400   24.3178 H   0  0  0  0  0  0  0  0  0  0  0  0
   18.8145   18.0518   22.7354 C   0  0  0  0  0  0  0  0  0  0  0  0
   18.1773   18.7590   23.2817 H   0  0  0  0  0  0  0  0  0  0  0  0
   18.1847   17.1678   22.5637 H   0  0  0  0  0  0  0  0  0  0  0  0
   19.1759   18.6354   21.3427 C   0  0  0  0  0  0  0  0  0  0  0  0
   19.7043   17.8799   20.7448 H   0  0  0  0  0  0  0  0  0  0  0  0
   18.2320   18.8189   20.8107 H   0  0  0  0  0  0  0  0  0  0  0  0
   19.9784   19.9611   21.3582 C   0  0  0  0  0  0  0  0  0  0  0  0
   19.7764   20.5230   22.2800 H   0  0  0  0  0  0  0  0  0  0  0  0
   19.6191   20.5983   20.5379 H   0  0  0  0  0  0  0  0  0  0  0  0
   21.4986   19.7516   21.1642 C   0  0  0  0  0  0  0  0  0  0  0  0
   22.0305   20.7101   21.2201 H   0  0  0  0  0  0  0  0  0  0  0  0
   21.7082   19.3120   20.1804 H   0  0  0  0  0  0  0  0  0  0  0  0
   21.9246   19.0860   21.9229 H   0  0  0  0  0  0  0  0  0  0  0  0
   20.4941   20.4706   26.2097 C   0  0  0  0  0  0  0  0  0  0  0  0
   21.3784   20.0539   26.6969 H   0  0  0  0  0  0  0  0  0  0  0  0
   20.7934   21.2405   25.4952 H   0  0  0  0  0  0  0  0  0  0  0  0
   19.8285   20.9024   26.9604 H   0  0  0  0  0  0  0  0  0  0  0  0
  1  2  1  0  0  0  0
  1  3  1  0  0  0  0
  1  4  1  0  0  0  0
  4  5  1  0  0  0  0
  4  6  1  0  0  0  0
  4  7  1  0  0  0  0
  7  8  1  0  0  0  0
  7  9  1  0  0  0  0
  7 10  1  0  0  0  0
 10 11  1  0  0  0  0
 10 12  1  0  0  0  0
 10 13  1  0  0  0  0
 13 14  1  0  0  0  0
 13 15  1  0  0  0  0
 13 16  1  0  0  0  0
 16 17  1  0  0  0  0
 16 18  1  0  0  0  0
 16 19  1  0  0  0  0
 19 20  1  0  0  0  0
 19 21  1  0  0  0  0
 19 22  1  0  0  0  0
  1 23  1  0  0  0  0
 23 24  1  0  0  0  0
 23 25  1  0  0  0  0
 23 26  1  0  0  0  0
M  END
> <VM2 Rank>
214

> <Conf_Id>
819

> <Probability>
0.00

> <Sum Probability>
100.00

> <Delta G>
6.482

> <G>
81.949

> <E>
48.856

> <-TS>
33.093

> <U+W>
27.394

> <U>
77.061

> <W>
-49.667

> <W(PB)>
-51.855

> <W(SA)>
2.188

> <Valence>
6.801

> <Coulomb>
70.341

> <VdW>
-0.081

> <VdW6>
-8.958

> <VdW12>
8.877

> <Bond>
0.269

> <Angle>
1.891

> <Pdih>
4.642

> <Idih>
0.000

> <Tether>
0.000

$$$$
VeraChem MOL file


 26 25  0  0  0  0  0  0  0  0999 V2000     
   20.7480   18.8776   24.8498 N   0  3  0  0  0  0  0  0  0  0  0  0
   21.0796   18.7956   23.8768 H   0  0  0  0  0  0  0  0  0  0  0  0
   20.8415   17.9349   25.2590 H   0  0  0  0  0  0  0  0  0  0  0  0
   19.2937   19.3081   24.8591 C   0  0  0  0  0  0  0  0  0  0  0  0
   19.2296   20.3264   24.4682 H   0  0  0  0  0  0  0  0  0  0  0  0
   18.9738   19.3244   25.9041 H   0  0  0  0  0  0  0  0  0  0  0  0
   18.3569   18.3804   24.0582 C   0  0  0  0  0  0  0  0  0  0  0  0
   18.6029   17.3314   24.2705 H   0  0  0  0  0  0  0  0  0  0  0  0
   17.3366   18.5296   24.4358 H   0  0  0  0  0  0  0  0  0  0  0  0
   18.3359   18.6253   22.5252 C   0  0  0  0  0  0  0  0  0  0  0  0
   17.9568   19.6344   22.3118 H   0  0  0  0  0  0  0  0  0  0  0  0
   17.5963   17.9370   22.0928 H   0  0  0  0  0  0  0  0  0  0  0  0
   19.6861   18.3978   21.7979 C   0  0  0  0  0  0  0  0  0  0  0  0
   20.2790   17.6400   22.3268 H   0  0  0  0  0  0  0  0  0  0  0  0
   19.4803   17.9708   20.8063 H   0  0  0  0  0  0  0  0  0  0  0  0
   20.4967   19.7015   21.5933 C   0  0  0  0  0  0  0  0  0  0  0  0
   20.5975   20.2582   22.5325 H   0  0  0  0  0  0  0  0  0  0  0  0
   19.9492   20.3637   20.9078 H   0  0  0  0  0  0  0  0  0  0  0  0
   21.8981   19.4175   21.0125 C   0  0  0  0  0  0  0  0  0  0  0  0
   22.4502   20.3537   20.8577 H   0  0  0  0  0  0  0  0  0  0  0  0
   21.8268   18.9059   20.0437 H   0  0  0  0  0  0  0  0  0  0  0  0
   22.4896   18.7864   21.6882 H   0  0  0  0  0  0  0  0  0  0  0  0
   21.5926   19.8819   25.6211 C   0  0  0  0  0  0  0  0  0  0  0  0
   21.2388   19.9301   26.6533 H   0  0  0  0  0  0  0  0  0  0  0  0
   22.6364   19.5607   25.6037 H   0  0  0  0  0  0  0  0  0  0  0  0
   21.5007   20.8640   25.1522 H   0  0  0  0  0  0  0  0  0  0  0  0
  1  2  1  0  0  0  0
  1  3  1  0  0  0  0
  1  4  1  0  0  0  0
  4  5  1  0  0  0  0
  4  6  1  0  0  0  0
  4  7  1  0  0  0  0
  7  8  1  0  0  0  0
  7  9  1  0  0  0  0
  7 10  1  0  0  0  0
 10 11  1  0  0  0  0
 10 12  1  0  0  0  0
 10 13  1  0  0  0  0
 13 14  1  0  0  0  0
 13 15  1  0  0  0  0
 13 16  1  0  0  0  0
 16 17  1  0  0  0  0
 16 18  1  0  0  0  0
 16 19  1  0  0  0  0
 19 20  1  0  0  0  0
 19 21  1  0  0  0  0
 19 22  1  0  0  0  0
  1 23  1  0  0  0  0
 23 24  1  0  0  0  0
 23 25  1  0  0  0  0
 23 26  1  0  0  0  0
M  END
> <VM2 Rank>
215

> <Conf_Id>
937

> <Probability>
0.00

> <Sum Probability>
100.00

> <Delta G>
7.040

> <G>
82.506

> <E>
49.520

> <-TS>
32.986

> <U+W>
28.059

> <U>
76.549

> <W>
-48.490

> <W(PB)>
-50.670

> <W(SA)>
2.180

> <Valence>
5.809

> <Coulomb>
71.051

> <VdW>
-0.311

> <VdW6>
-8.913

> <VdW12>
8.601

> <Bond>
0.232

> <Angle>
1.493

> <Pdih>
4.084

> <Idih>
0.000

> <Tether>
0.000

$$$$
VeraChem MOL file


 26 25  0  0  0  0  0  0  0  0999 V2000     
   19.3006   18.7295   24.7984 N   0  3  0  0  0  0  0  0  0  0  0  0
   19.3712   17.7843   25.2067 H   0  0  0  0  0  0  0  0  0  0  0  0
   19.0614   18.5893   23.8052 H   0  0  0  0  0  0  0  0  0  0  0  0
   20.6334   19.4451   24.9067 C   0  0  0  0  0  0  0  0  0  0  0  0
   20.8695   19.5181   25.9713 H   0  0  0  0  0  0  0  0  0  0  0  0
   20.5175   20.4582   24.5140 H   0  0  0  0  0  0  0  0  0  0  0  0
   21.7923   18.7320   24.1799 C   0  0  0  0  0  0  0  0  0  0  0  0
   22.7323   19.0818   24.6269 H   0  0  0  0  0  0  0  0  0  0  0  0
   21.7494   17.6534   24.3818 H   0  0  0  0  0  0  0  0  0  0  0  0
   21.8706   18.9872   22.6504 C   0  0  0  0  0  0  0  0  0  0  0  0
   22.7626   18.4660   22.2758 H   0  0  0  0  0  0  0  0  0  0  0  0
   22.0515   20.0537   22.4569 H   0  0  0  0  0  0  0  0  0  0  0  0
   20.6487   18.4964   21.8320 C   0  0  0  0  0  0  0  0  0  0  0  0
   21.0056   18.1270   20.8604 H   0  0  0  0  0  0  0  0  0  0  0  0
   20.1858   17.6305   22.3235 H   0  0  0  0  0  0  0  0  0  0  0  0
   19.6074   19.6105   21.5617 C   0  0  0  0  0  0  0  0  0  0  0  0
   20.0561   20.3746   20.9114 H   0  0  0  0  0  0  0  0  0  0  0  0
   19.3306   20.1286   22.4876 H   0  0  0  0  0  0  0  0  0  0  0  0
   18.3366   19.0529   20.8864 C   0  0  0  0  0  0  0  0  0  0  0  0
   17.8392   18.3104   21.5236 H   0  0  0  0  0  0  0  0  0  0  0  0
   18.5776   18.5733   19.9287 H   0  0  0  0  0  0  0  0  0  0  0  0
   17.6187   19.8591   20.6866 H   0  0  0  0  0  0  0  0  0  0  0  0
   18.2184   19.5365   25.5015 C   0  0  0  0  0  0  0  0  0  0  0  0
   18.1424   20.5204   25.0334 H   0  0  0  0  0  0  0  0  0  0  0  0
   17.2649   19.0110   25.4133 H   0  0  0  0  0  0  0  0  0  0  0  0
   18.4819   19.6478   26.5556 H   0  0  0  0  0  0  0  0  0  0  0  0
  1  2  1  0  0  0  0
  1  3  1  0  0  0  0
  1  4  1  0  0  0  0
  4  5  1  0  0  0  0
  4  6  1  0  0  0  0
  4  7  1  0  0  0  0
  7  8  1  0  0  0  0
  7  9  1  0  0  0  0
  7 10  1  0  0  0  0
 10 11  1  0  0  0  0
 10 12  1  0  0  0  0
 10 13  1  0  0  0  0
 13 14  1  0  0  0  0
 13 15  1  0  0  0  0
 13 16  1  0  0  0  0
 16 17  1  0  0  0  0
 16 18  1  0  0  0  0
 16 19  1  0  0  0  0
 19 20  1  0  0  0  0
 19 21  1  0  0  0  0
 19 22  1  0  0  0  0
  1 23  1  0  0  0  0
 23 24  1  0  0  0  0
 23 25  1  0  0  0  0
 23 26  1  0  0  0  0
M  END
> <VM2 Rank>
216

> <Conf_Id>
1448

> <Probability>
0.00

> <Sum Probability>
100.00

> <Delta G>
7.048

> <G>
82.515

> <E>
49.529

> <-TS>
32.986

> <U+W>
28.067

> <U>
76.549

> <W>
-48.482

> <W(PB)>
-50.645

> <W(SA)>
2.163

> <Valence>
5.809

> <Coulomb>
71.051

> <VdW>
-0.311

> <VdW6>
-8.913

> <VdW12>
8.601

> <Bond>
0.232

> <Angle>
1.493

> <Pdih>
4.084

> <Idih>
0.000

> <Tether>
0.000

$$$$
VeraChem MOL file


 26 25  0  0  0  0  0  0  0  0999 V2000     
   19.3340   19.1845   25.0740 N   0  3  0  0  0  0  0  0  0  0  0  0
   19.0147   18.3695   25.6206 H   0  0  0  0  0  0  0  0  0  0  0  0
   18.8203   19.1405   24.1817 H   0  0  0  0  0  0  0  0  0  0  0  0
   20.8246   19.0853   24.8137 C   0  0  0  0  0  0  0  0  0  0  0  0
   21.3170   19.0720   25.7894 H   0  0  0  0  0  0  0  0  0  0  0  0
   21.1464   19.9845   24.2825 H   0  0  0  0  0  0  0  0  0  0  0  0
   21.2423   17.8310   24.0195 C   0  0  0  0  0  0  0  0  0  0  0  0
   22.2978   17.6294   24.2457 H   0  0  0  0  0  0  0  0  0  0  0  0
   20.6871   16.9564   24.3837 H   0  0  0  0  0  0  0  0  0  0  0  0
   21.1034   17.9523   22.4784 C   0  0  0  0  0  0  0  0  0  0  0  0
   21.4879   17.0207   22.0406 H   0  0  0  0  0  0  0  0  0  0  0  0
   21.7689   18.7432   22.1097 H   0  0  0  0  0  0  0  0  0  0  0  0
   19.6572   18.1648   21.9550 C   0  0  0  0  0  0  0  0  0  0  0  0
   19.5419   17.6203   21.0074 H   0  0  0  0  0  0  0  0  0  0  0  0
   18.9414   17.6952   22.6425 H   0  0  0  0  0  0  0  0  0  0  0  0
   19.2721   19.6472   21.7084 C   0  0  0  0  0  0  0  0  0  0  0  0
   19.5151   20.2672   22.5797 H   0  0  0  0  0  0  0  0  0  0  0  0
   18.1831   19.7123   21.5751 H   0  0  0  0  0  0  0  0  0  0  0  0
   19.9542   20.2459   20.4568 C   0  0  0  0  0  0  0  0  0  0  0  0
   19.6107   21.2746   20.2871 H   0  0  0  0  0  0  0  0  0  0  0  0
   19.7146   19.6618   19.5589 H   0  0  0  0  0  0  0  0  0  0  0  0
   21.0454   20.2754   20.5632 H   0  0  0  0  0  0  0  0  0  0  0  0
   19.0202   20.4788   25.8111 C   0  0  0  0  0  0  0  0  0  0  0  0
   19.5535   20.4870   26.7643 H   0  0  0  0  0  0  0  0  0  0  0  0
   19.3400   21.3265   25.2012 H   0  0  0  0  0  0  0  0  0  0  0  0
   17.9443   20.5377   25.9901 H   0  0  0  0  0  0  0  0  0  0  0  0
  1  2  1  0  0  0  0
  1  3  1  0  0  0  0
  1  4  1  0  0  0  0
  4  5  1  0  0  0  0
  4  6  1  0  0  0  0
  4  7  1  0  0  0  0
  7  8  1  0  0  0  0
  7  9  1  0  0  0  0
  7 10  1  0  0  0  0
 10 11  1  0  0  0  0
 10 12  1  0  0  0  0
 10 13  1  0  0  0  0
 13 14  1  0  0  0  0
 13 15  1  0  0  0  0
 13 16  1  0  0  0  0
 16 17  1  0  0  0  0
 16 18  1  0  0  0  0
 16 19  1  0  0  0  0
 19 20  1  0  0  0  0
 19 21  1  0  0  0  0
 19 22  1  0  0  0  0
  1 23  1  0  0  0  0
 23 24  1  0  0  0  0
 23 25  1  0  0  0  0
 23 26  1  0  0  0  0
M  END
> <VM2 Rank>
217

> <Conf_Id>
744

> <Probability>
0.00

> <Sum Probability>
100.00

> <Delta G>
7.131

> <G>
82.598

> <E>
49.618

> <-TS>
32.980

> <U+W>
28.156

> <U>
77.517

> <W>
-49.361

> <W(PB)>
-51.554

> <W(SA)>
2.194

> <Valence>
6.532

> <Coulomb>
71.087

> <VdW>
-0.102

> <VdW6>
-9.038

> <VdW12>
8.936

> <Bond>
0.274

> <Angle>
1.678

> <Pdih>
4.580

> <Idih>
0.000

> <Tether>
0.000

$$$$
VeraChem MOL file


 26 25  0  0  0  0  0  0  0  0999 V2000     
   20.6039   19.3152   25.1189 N   0  3  0  0  0  0  0  0  0  0  0  0
   21.1769   19.3831   24.2650 H   0  0  0  0  0  0  0  0  0  0  0  0
   21.0433   18.5782   25.6923 H   0  0  0  0  0  0  0  0  0  0  0  0
   19.1865   18.9168   24.7559 C   0  0  0  0  0  0  0  0  0  0  0  0
   18.7264   19.7355   24.1971 H   0  0  0  0  0  0  0  0  0  0  0  0
   18.6402   18.7965   25.6948 H   0  0  0  0  0  0  0  0  0  0  0  0
   19.0891   17.6095   23.9433 C   0  0  0  0  0  0  0  0  0  0  0  0
   19.7838   16.8635   24.3517 H   0  0  0  0  0  0  0  0  0  0  0  0
   18.0835   17.1959   24.0965 H   0  0  0  0  0  0  0  0  0  0  0  0
   19.3079   17.7678   22.4148 C   0  0  0  0  0  0  0  0  0  0  0  0
   18.5230   18.4095   21.9950 H   0  0  0  0  0  0  0  0  0  0  0  0
   19.1523   16.7807   21.9578 H   0  0  0  0  0  0  0  0  0  0  0  0
   20.7137   18.2735   21.9924 C   0  0  0  0  0  0  0  0  0  0  0  0
   21.4601   17.9543   22.7317 H   0  0  0  0  0  0  0  0  0  0  0  0
   21.0032   17.7706   21.0591 H   0  0  0  0  0  0  0  0  0  0  0  0
   20.8057   19.8049   21.7626 C   0  0  0  0  0  0  0  0  0  0  0  0
   21.8654   20.0910   21.7054 H   0  0  0  0  0  0  0  0  0  0  0  0
   20.3814   20.3564   22.6103 H   0  0  0  0  0  0  0  0  0  0  0  0
   20.1055   20.2614   20.4621 C   0  0  0  0  0  0  0  0  0  0  0  0
   20.2438   21.3396   20.3094 H   0  0  0  0  0  0  0  0  0  0  0  0
   19.0264   20.0677   20.4915 H   0  0  0  0  0  0  0  0  0  0  0  0
   20.5213   19.7447   19.5873 H   0  0  0  0  0  0  0  0  0  0  0  0
   20.5955   20.6408   25.8670 C   0  0  0  0  0  0  0  0  0  0  0  0
   20.1534   21.4102   25.2302 H   0  0  0  0  0  0  0  0  0  0  0  0
   20.0066   20.5334   26.7805 H   0  0  0  0  0  0  0  0  0  0  0  0
   21.6218   20.9161   26.1202 H   0  0  0  0  0  0  0  0  0  0  0  0
  1  2  1  0  0  0  0
  1  3  1  0  0  0  0
  1  4  1  0  0  0  0
  4  5  1  0  0  0  0
  4  6  1  0  0  0  0
  4  7  1  0  0  0  0
  7  8  1  0  0  0  0
  7  9  1  0  0  0  0
  7 10  1  0  0  0  0
 10 11  1  0  0  0  0
 10 12  1  0  0  0  0
 10 13  1  0  0  0  0
 13 14  1  0  0  0  0
 13 15  1  0  0  0  0
 13 16  1  0  0  0  0
 16 17  1  0  0  0  0
 16 18  1  0  0  0  0
 16 19  1  0  0  0  0
 19 20  1  0  0  0  0
 19 21  1  0  0  0  0
 19 22  1  0  0  0  0
  1 23  1  0  0  0  0
 23 24  1  0  0  0  0
 23 25  1  0  0  0  0
 23 26  1  0  0  0  0
M  END
> <VM2 Rank>
218

> <Conf_Id>
440

> <Probability>
0.00

> <Sum Probability>
100.00

> <Delta G>
7.243

> <G>
82.709

> <E>
49.730

> <-TS>
32.980

> <U+W>
28.268

> <U>
77.517

> <W>
-49.249

> <W(PB)>
-51.417

> <W(SA)>
2.168

> <Valence>
6.532

> <Coulomb>
71.087

> <VdW>
-0.102

> <VdW6>
-9.038

> <VdW12>
8.935

> <Bond>
0.274

> <Angle>
1.678

> <Pdih>
4.581

> <Idih>
0.000

> <Tether>
0.000

$$$$
VeraChem MOL file


 26 25  0  0  0  0  0  0  0  0999 V2000     
   19.0544   18.6614   24.6573 N   0  3  0  0  0  0  0  0  0  0  0  0
   19.1849   18.2941   23.7027 H   0  0  0  0  0  0  0  0  0  0  0  0
   18.0327   18.7111   24.7977 H   0  0  0  0  0  0  0  0  0  0  0  0
   19.6500   20.0572   24.7562 C   0  0  0  0  0  0  0  0  0  0  0  0
   19.5593   20.3680   25.8000 H   0  0  0  0  0  0  0  0  0  0  0  0
   19.0348   20.7294   24.1528 H   0  0  0  0  0  0  0  0  0  0  0  0
   21.1254   20.1879   24.3130 C   0  0  0  0  0  0  0  0  0  0  0  0
   21.5155   21.1236   24.7348 H   0  0  0  0  0  0  0  0  0  0  0  0
   21.7292   19.3892   24.7618 H   0  0  0  0  0  0  0  0  0  0  0  0
   21.3555   20.2297   22.7784 C   0  0  0  0  0  0  0  0  0  0  0  0
   22.4298   20.3897   22.6113 H   0  0  0  0  0  0  0  0  0  0  0  0
   20.8579   21.1098   22.3479 H   0  0  0  0  0  0  0  0  0  0  0  0
   20.9361   18.9485   22.0132 C   0  0  0  0  0  0  0  0  0  0  0  0
   21.6692   18.7605   21.2164 H   0  0  0  0  0  0  0  0  0  0  0  0
   20.9925   18.0750   22.6765 H   0  0  0  0  0  0  0  0  0  0  0  0
   19.5388   19.0638   21.3562 C   0  0  0  0  0  0  0  0  0  0  0  0
   19.5751   19.8216   20.5607 H   0  0  0  0  0  0  0  0  0  0  0  0
   18.7913   19.4194   22.0755 H   0  0  0  0  0  0  0  0  0  0  0  0
   19.0774   17.7193   20.7550 C   0  0  0  0  0  0  0  0  0  0  0  0
   19.7827   17.3672   19.9909 H   0  0  0  0  0  0  0  0  0  0  0  0
   18.0933   17.8247   20.2799 H   0  0  0  0  0  0  0  0  0  0  0  0
   18.9968   16.9433   21.5271 H   0  0  0  0  0  0  0  0  0  0  0  0
   19.6705   17.7222   25.6877 C   0  0  0  0  0  0  0  0  0  0  0  0
   19.5088   18.1315   26.6872 H   0  0  0  0  0  0  0  0  0  0  0  0
   19.1929   16.7430   25.6091 H   0  0  0  0  0  0  0  0  0  0  0  0
   20.7407   17.6245   25.4960 H   0  0  0  0  0  0  0  0  0  0  0  0
  1  2  1  0  0  0  0
  1  3  1  0  0  0  0
  1  4  1  0  0  0  0
  4  5  1  0  0  0  0
  4  6  1  0  0  0  0
  4  7  1  0  0  0  0
  7  8  1  0  0  0  0
  7  9  1  0  0  0  0
  7 10  1  0  0  0  0
 10 11  1  0  0  0  0
 10 12  1  0  0  0  0
 10 13  1  0  0  0  0
 13 14  1  0  0  0  0
 13 15  1  0  0  0  0
 13 16  1  0  0  0  0
 16 17  1  0  0  0  0
 16 18  1  0  0  0  0
 16 19  1  0  0  0  0
 19 20  1  0  0  0  0
 19 21  1  0  0  0  0
 19 22  1  0  0  0  0
  1 23  1  0  0  0  0
 23 24  1  0  0  0  0
 23 25  1  0  0  0  0
 23 26  1  0  0  0  0
M  END
> <VM2 Rank>
219

> <Conf_Id>
508

> <Probability>
0.00

> <Sum Probability>
100.00

> <Delta G>
7.511

> <G>
82.977

> <E>
49.844

> <-TS>
33.133

> <U+W>
28.382

> <U>
77.224

> <W>
-48.842

> <W(PB)>
-51.015

> <W(SA)>
2.173

> <Valence>
6.171

> <Coulomb>
71.061

> <VdW>
-0.008

> <VdW6>
-9.540

> <VdW12>
9.532

> <Bond>
0.273

> <Angle>
1.632

> <Pdih>
4.266

> <Idih>
0.000

> <Tether>
0.000

$$$$
VeraChem MOL file


 26 25  0  0  0  0  0  0  0  0999 V2000     
   21.0114   18.8585   24.7267 N   0  3  0  0  0  0  0  0  0  0  0  0
   21.9903   19.1098   24.9381 H   0  0  0  0  0  0  0  0  0  0  0  0
   21.0239   18.4792   23.7680 H   0  0  0  0  0  0  0  0  0  0  0  0
   20.1443   20.1070   24.7736 C   0  0  0  0  0  0  0  0  0  0  0  0
   20.6540   20.8924   24.2100 H   0  0  0  0  0  0  0  0  0  0  0  0
   20.0978   20.4224   25.8190 H   0  0  0  0  0  0  0  0  0  0  0  0
   18.7071   19.9443   24.2273 C   0  0  0  0  0  0  0  0  0  0  0  0
   18.2446   19.0382   24.6384 H   0  0  0  0  0  0  0  0  0  0  0  0
   18.1099   20.7805   24.6140 H   0  0  0  0  0  0  0  0  0  0  0  0
   18.5814   19.9501   22.6800 C   0  0  0  0  0  0  0  0  0  0  0  0
   18.9225   20.9147   22.2792 H   0  0  0  0  0  0  0  0  0  0  0  0
   17.5112   19.8939   22.4370 H   0  0  0  0  0  0  0  0  0  0  0  0
   19.3004   18.7836   21.9552 C   0  0  0  0  0  0  0  0  0  0  0  0
   19.3728   17.9117   22.6191 H   0  0  0  0  0  0  0  0  0  0  0  0
   18.6771   18.4589   21.1103 H   0  0  0  0  0  0  0  0  0  0  0  0
   20.6892   19.1798   21.3970 C   0  0  0  0  0  0  0  0  0  0  0  0
   21.2986   19.6719   22.1645 H   0  0  0  0  0  0  0  0  0  0  0  0
   20.5584   19.9208   20.5957 H   0  0  0  0  0  0  0  0  0  0  0  0
   21.4502   17.9585   20.8389 C   0  0  0  0  0  0  0  0  0  0  0  0
   21.6295   17.2086   21.6201 H   0  0  0  0  0  0  0  0  0  0  0  0
   22.4244   18.2612   20.4333 H   0  0  0  0  0  0  0  0  0  0  0  0
   20.8845   17.4784   20.0297 H   0  0  0  0  0  0  0  0  0  0  0  0
   20.5241   17.8083   25.7182 C   0  0  0  0  0  0  0  0  0  0  0  0
   19.5109   17.5007   25.4526 H   0  0  0  0  0  0  0  0  0  0  0  0
   21.1914   16.9444   25.6804 H   0  0  0  0  0  0  0  0  0  0  0  0
   20.5304   18.2347   26.7236 H   0  0  0  0  0  0  0  0  0  0  0  0
  1  2  1  0  0  0  0
  1  3  1  0  0  0  0
  1  4  1  0  0  0  0
  4  5  1  0  0  0  0
  4  6  1  0  0  0  0
  4  7  1  0  0  0  0
  7  8  1  0  0  0  0
  7  9  1  0  0  0  0
  7 10  1  0  0  0  0
 10 11  1  0  0  0  0
 10 12  1  0  0  0  0
 10 13  1  0  0  0  0
 13 14  1  0  0  0  0
 13 15  1  0  0  0  0
 13 16  1  0  0  0  0
 16 17  1  0  0  0  0
 16 18  1  0  0  0  0
 16 19  1  0  0  0  0
 19 20  1  0  0  0  0
 19 21  1  0  0  0  0
 19 22  1  0  0  0  0
  1 23  1  0  0  0  0
 23 24  1  0  0  0  0
 23 25  1  0  0  0  0
 23 26  1  0  0  0  0
M  END
> <VM2 Rank>
220

> <Conf_Id>
90

> <Probability>
0.00

> <Sum Probability>
100.00

> <Delta G>
7.536

> <G>
83.002

> <E>
49.869

> <-TS>
33.133

> <U+W>
28.407

> <U>
77.224

> <W>
-48.816

> <W(PB)>
-50.999

> <W(SA)>
2.183

> <Valence>
6.170

> <Coulomb>
71.061

> <VdW>
-0.008

> <VdW6>
-9.540

> <VdW12>
9.532

> <Bond>
0.273

> <Angle>
1.632

> <Pdih>
4.265

> <Idih>
0.000

> <Tether>
0.000

$$$$
VeraChem MOL file


 26 25  0  0  0  0  0  0  0  0999 V2000     
   20.2967   18.2353   24.9486 N   0  3  0  0  0  0  0  0  0  0  0  0
   20.4426   17.8698   23.9966 H   0  0  0  0  0  0  0  0  0  0  0  0
   20.0115   17.4242   25.5203 H   0  0  0  0  0  0  0  0  0  0  0  0
   19.1859   19.2695   24.9376 C   0  0  0  0  0  0  0  0  0  0  0  0
   19.2173   19.7835   25.9016 H   0  0  0  0  0  0  0  0  0  0  0  0
   18.2320   18.7401   24.8717 H   0  0  0  0  0  0  0  0  0  0  0  0
   19.2658   20.3070   23.7954 C   0  0  0  0  0  0  0  0  0  0  0  0
   18.7370   21.2069   24.1362 H   0  0  0  0  0  0  0  0  0  0  0  0
   20.2980   20.6293   23.6247 H   0  0  0  0  0  0  0  0  0  0  0  0
   18.5908   19.8464   22.4769 C   0  0  0  0  0  0  0  0  0  0  0  0
   18.5833   20.6872   21.7697 H   0  0  0  0  0  0  0  0  0  0  0  0
   17.5334   19.6426   22.6960 H   0  0  0  0  0  0  0  0  0  0  0  0
   19.1819   18.5972   21.7670 C   0  0  0  0  0  0  0  0  0  0  0  0
   19.2589   17.7442   22.4512 H   0  0  0  0  0  0  0  0  0  0  0  0
   18.4422   18.2864   21.0160 H   0  0  0  0  0  0  0  0  0  0  0  0
   20.5163   18.8294   21.0105 C   0  0  0  0  0  0  0  0  0  0  0  0
   20.5100   19.8158   20.5261 H   0  0  0  0  0  0  0  0  0  0  0  0
   20.5765   18.0965   20.1935 H   0  0  0  0  0  0  0  0  0  0  0  0
   21.7878   18.6722   21.8736 C   0  0  0  0  0  0  0  0  0  0  0  0
   21.8665   19.4542   22.6342 H   0  0  0  0  0  0  0  0  0  0  0  0
   22.6832   18.7474   21.2429 H   0  0  0  0  0  0  0  0  0  0  0  0
   21.8171   17.6930   22.3673 H   0  0  0  0  0  0  0  0  0  0  0  0
   21.5827   18.8329   25.5074 C   0  0  0  0  0  0  0  0  0  0  0  0
   21.4047   19.1707   26.5307 H   0  0  0  0  0  0  0  0  0  0  0  0
   22.3639   18.0695   25.5024 H   0  0  0  0  0  0  0  0  0  0  0  0
   21.8891   19.6783   24.8885 H   0  0  0  0  0  0  0  0  0  0  0  0
  1  2  1  0  0  0  0
  1  3  1  0  0  0  0
  1  4  1  0  0  0  0
  4  5  1  0  0  0  0
  4  6  1  0  0  0  0
  4  7  1  0  0  0  0
  7  8  1  0  0  0  0
  7  9  1  0  0  0  0
  7 10  1  0  0  0  0
 10 11  1  0  0  0  0
 10 12  1  0  0  0  0
 10 13  1  0  0  0  0
 13 14  1  0  0  0  0
 13 15  1  0  0  0  0
 13 16  1  0  0  0  0
 16 17  1  0  0  0  0
 16 18  1  0  0  0  0
 16 19  1  0  0  0  0
 19 20  1  0  0  0  0
 19 21  1  0  0  0  0
 19 22  1  0  0  0  0
  1 23  1  0  0  0  0
 23 24  1  0  0  0  0
 23 25  1  0  0  0  0
 23 26  1  0  0  0  0
M  END
> <VM2 Rank>
221

> <Conf_Id>
190

> <Probability>
0.00

> <Sum Probability>
100.00

> <Delta G>
8.337

> <G>
83.804

> <E>
50.406

> <-TS>
33.398

> <U+W>
28.944

> <U>
78.445

> <W>
-49.500

> <W(PB)>
-51.618

> <W(SA)>
2.117

> <Valence>
7.678

> <Coulomb>
71.384

> <VdW>
-0.617

> <VdW6>
-10.187

> <VdW12>
9.570

> <Bond>
0.307

> <Angle>
2.873

> <Pdih>
4.498

> <Idih>
0.000

> <Tether>
0.000

$$$$
VeraChem MOL file


 26 25  0  0  0  0  0  0  0  0999 V2000     
   19.4201   18.5068   24.7817 N   0  3  0  0  0  0  0  0  0  0  0  0
   19.5716   17.5052   24.5875 H   0  0  0  0  0  0  0  0  0  0  0  0
   18.9062   18.8740   23.9680 H   0  0  0  0  0  0  0  0  0  0  0  0
   20.7520   19.2168   24.9109 C   0  0  0  0  0  0  0  0  0  0  0  0
   21.2955   18.7274   25.7231 H   0  0  0  0  0  0  0  0  0  0  0  0
   20.5618   20.2515   25.2067 H   0  0  0  0  0  0  0  0  0  0  0  0
   21.6207   19.1953   23.6351 C   0  0  0  0  0  0  0  0  0  0  0  0
   22.6552   19.3931   23.9455 H   0  0  0  0  0  0  0  0  0  0  0  0
   21.6402   18.1944   23.1903 H   0  0  0  0  0  0  0  0  0  0  0  0
   21.2393   20.2721   22.5859 C   0  0  0  0  0  0  0  0  0  0  0  0
   22.0193   20.2968   21.8124 H   0  0  0  0  0  0  0  0  0  0  0  0
   21.2828   21.2558   23.0738 H   0  0  0  0  0  0  0  0  0  0  0  0
   19.8584   20.1348   21.8884 C   0  0  0  0  0  0  0  0  0  0  0  0
   19.0382   20.1435   22.6154 H   0  0  0  0  0  0  0  0  0  0  0  0
   19.7152   21.0501   21.2972 H   0  0  0  0  0  0  0  0  0  0  0  0
   19.7270   18.9379   20.9098 C   0  0  0  0  0  0  0  0  0  0  0  0
   20.6897   18.7416   20.4178 H   0  0  0  0  0  0  0  0  0  0  0  0
   19.0353   19.2284   20.1064 H   0  0  0  0  0  0  0  0  0  0  0  0
   19.1816   17.6401   21.5482 C   0  0  0  0  0  0  0  0  0  0  0  0
   19.0215   16.8780   20.7745 H   0  0  0  0  0  0  0  0  0  0  0  0
   18.2164   17.8141   22.0406 H   0  0  0  0  0  0  0  0  0  0  0  0
   19.8775   17.2145   22.2774 H   0  0  0  0  0  0  0  0  0  0  0  0
   18.6089   18.6861   26.0569 C   0  0  0  0  0  0  0  0  0  0  0  0
   18.4361   19.7513   26.2259 H   0  0  0  0  0  0  0  0  0  0  0  0
   17.6526   18.1695   25.9494 H   0  0  0  0  0  0  0  0  0  0  0  0
   19.1638   18.2636   26.8975 H   0  0  0  0  0  0  0  0  0  0  0  0
  1  2  1  0  0  0  0
  1  3  1  0  0  0  0
  1  4  1  0  0  0  0
  4  5  1  0  0  0  0
  4  6  1  0  0  0  0
  4  7  1  0  0  0  0
  7  8  1  0  0  0  0
  7  9  1  0  0  0  0
  7 10  1  0  0  0  0
 10 11  1  0  0  0  0
 10 12  1  0  0  0  0
 10 13  1  0  0  0  0
 13 14  1  0  0  0  0
 13 15  1  0  0  0  0
 13 16  1  0  0  0  0
 16 17  1  0  0  0  0
 16 18  1  0  0  0  0
 16 19  1  0  0  0  0
 19 20  1  0  0  0  0
 19 21  1  0  0  0  0
 19 22  1  0  0  0  0
  1 23  1  0  0  0  0
 23 24  1  0  0  0  0
 23 25  1  0  0  0  0
 23 26  1  0  0  0  0
M  END
> <VM2 Rank>
222

> <Conf_Id>
1083

> <Probability>
0.00

> <Sum Probability>
100.00

> <Delta G>
8.542

> <G>
84.008

> <E>
50.997

> <-TS>
33.012

> <U+W>
29.535

> <U>
78.058

> <W>
-48.524

> <W(PB)>
-50.674

> <W(SA)>
2.150

> <Valence>
6.916

> <Coulomb>
71.698

> <VdW>
-0.555

> <VdW6>
-9.227

> <VdW12>
8.672

> <Bond>
0.274

> <Angle>
2.757

> <Pdih>
3.885

> <Idih>
0.000

> <Tether>
0.000

$$$$
