@<TRIPOS>MOLECULE
guest-s12_vm2.mol2 : vm2 ligand conformer 1
          26          25           1
SMALL
USER_CHARGES
 
@<TRIPOS>ATOM
       1    N1      19.983750   18.623827   26.486091 N.4        1 MOL1        -0.4857
       2    H1      20.862900   18.085547   26.533251 H          1 MOL1         0.3650
       3    H2      19.230452   17.918631   26.475298 H          1 MOL1         0.3650
       4    C1      19.944267   19.450694   25.216613 C.3        1 MOL1         0.0209
       5    H3      20.759798   20.176760   25.263926 H          1 MOL1         0.0967
       6    H4      18.997595   19.996664   25.201439 H          1 MOL1         0.0967
       7    C2      20.075938   18.606555   23.935929 C.3        1 MOL1        -0.1378
       8    H5      21.020567   18.047077   23.963016 H          1 MOL1         0.0993
       9    H6      19.264267   17.867619   23.900751 H          1 MOL1         0.0993
      10    C3      20.030561   19.490031   22.669492 C.3        1 MOL1        -0.1338
      11    H7      20.840763   20.231434   22.711049 H          1 MOL1         0.0993
      12    H8      19.086525   20.052353   22.648976 H          1 MOL1         0.0993
      13    C4      20.161762   18.652832   21.376717 C.3        1 MOL1        -0.1338
      14    H9      21.105697   18.090598   21.396984 H          1 MOL1         0.0993
      15    H10     19.351667   17.911528   21.334944 H          1 MOL1         0.0993
      16    C5      20.116309   19.536724   20.110273 C.3        1 MOL1        -0.1313
      17    H11     20.926442   20.278613   20.146058 H          1 MOL1         0.0993
      18    H12     19.172592   20.099489   20.083993 H          1 MOL1         0.0993
      19    C6      20.247639   18.697363   18.821429 C.3        1 MOL1        -0.2328
      20    H13     20.213225   19.342117   17.933658 H          1 MOL1         0.1004
      21    H14     19.430846   17.968390   18.739893 H          1 MOL1         0.1004
      22    H15     21.198435   18.148882   18.802456 H          1 MOL1         0.1004
      23    C7      19.847774   19.531973   27.700456 C.3        1 MOL1        -0.0781
      24    H16     18.896278   20.065430   27.645270 H          1 MOL1         0.0978
      25    H17     19.877768   18.924096   28.607504 H          1 MOL1         0.0978
      26    H18     20.673228   20.247189   27.708319 H          1 MOL1         0.0978
@<TRIPOS>BOND
    1     1     2    1
    2     1     3    1
    3     1     4    1
    4     4     5    1
    5     4     6    1
    6     4     7    1
    7     7     8    1
    8     7     9    1
    9     7    10    1
   10    10    11    1
   11    10    12    1
   12    10    13    1
   13    13    14    1
   14    13    15    1
   15    13    16    1
   16    16    17    1
   17    16    18    1
   18    16    19    1
   19    19    20    1
   20    19    21    1
   21    19    22    1
   22     1    23    1
   23    23    24    1
   24    23    25    1
   25    23    26    1
@<TRIPOS>SUBSTRUCTURE
       1 MOL1            1 RESIDUE      1      MOL     
@<SCITEGIC>MOL_PROPERTY
VM2 Rank
SciTegic.value.IntegerValue
1

@<SCITEGIC>MOL_PROPERTY
Conf_Id
SciTegic.value.IntegerValue
11

@<SCITEGIC>MOL_PROPERTY
Probability
SciTegic.value.DoubleValue
6.71

@<SCITEGIC>MOL_PROPERTY
Sum Probability
SciTegic.value.DoubleValue
6.71

@<SCITEGIC>MOL_PROPERTY
Delta G
SciTegic.value.DoubleValue
0.000

@<SCITEGIC>MOL_PROPERTY
G
SciTegic.value.DoubleValue
75.467

@<SCITEGIC>MOL_PROPERTY
E
SciTegic.value.DoubleValue
43.304

@<SCITEGIC>MOL_PROPERTY
-TS
SciTegic.value.DoubleValue
32.163

@<SCITEGIC>MOL_PROPERTY
U+W
SciTegic.value.DoubleValue
21.842

@<SCITEGIC>MOL_PROPERTY
U
SciTegic.value.DoubleValue
70.357

@<SCITEGIC>MOL_PROPERTY
W
SciTegic.value.DoubleValue
-48.512

@<SCITEGIC>MOL_PROPERTY
W(PB)
SciTegic.value.DoubleValue
-50.853

@<SCITEGIC>MOL_PROPERTY
W(SA)
SciTegic.value.DoubleValue
2.341

@<SCITEGIC>MOL_PROPERTY
Valence
SciTegic.value.DoubleValue
1.714

@<SCITEGIC>MOL_PROPERTY
Coulomb
SciTegic.value.DoubleValue
68.480

@<SCITEGIC>MOL_PROPERTY
VdW
SciTegic.value.DoubleValue
0.163

@<SCITEGIC>MOL_PROPERTY
VdW6
SciTegic.value.DoubleValue
-5.268

@<SCITEGIC>MOL_PROPERTY
VdW12
SciTegic.value.DoubleValue
5.431

@<SCITEGIC>MOL_PROPERTY
Bond
SciTegic.value.DoubleValue
0.126

@<SCITEGIC>MOL_PROPERTY
Angle
SciTegic.value.DoubleValue
0.350

@<SCITEGIC>MOL_PROPERTY
Pdih
SciTegic.value.DoubleValue
1.238

@<SCITEGIC>MOL_PROPERTY
Idih
SciTegic.value.DoubleValue
0.000

@<SCITEGIC>MOL_PROPERTY
Tether
SciTegic.value.DoubleValue
0.000

@<TRIPOS>MOLECULE
guest-s12_vm2.mol2 : vm2 ligand conformer 2
          26          25           1
SMALL
USER_CHARGES
 
@<TRIPOS>ATOM
       1    N1      20.392344   19.003567   26.622225 N.4        1 MOL1        -0.4857
       2    H1      20.862968   19.562804   27.351449 H          1 MOL1         0.3650
       3    H2      20.876330   18.092439   26.632086 H          1 MOL1         0.3650
       4    C1      20.568779   19.677691   25.271808 C.3        1 MOL1         0.0209
       5    H3      21.630105   19.915773   25.164215 H          1 MOL1         0.0967
       6    H4      20.010704   20.617187   25.289081 H          1 MOL1         0.0967
       7    C2      20.122384   18.824486   24.067063 C.3        1 MOL1        -0.1378
       8    H5      20.651684   17.862610   24.086065 H          1 MOL1         0.0993
       9    H6      19.050014   18.603692   24.145473 H          1 MOL1         0.0993
      10    C3      20.403172   19.546304   22.730459 C.3        1 MOL1        -0.1338
      11    H7      21.476550   19.769092   22.652943 H          1 MOL1         0.0993
      12    H8      19.876972   20.511066   22.718102 H          1 MOL1         0.0993
      13    C4      19.961550   18.700899   21.514052 C.3        1 MOL1        -0.1338
      14    H9      20.487444   17.736117   21.526480 H          1 MOL1         0.0993
      15    H10     18.888226   18.478306   21.591209 H          1 MOL1         0.0993
      16    C5      20.242575   19.423088   20.177398 C.3        1 MOL1        -0.1313
      17    H11     21.315649   19.645768   20.094205 H          1 MOL1         0.0993
      18    H12     19.716644   20.388000   20.159036 H          1 MOL1         0.0993
      19    C6      19.800225   18.576002   18.965104 C.3        1 MOL1        -0.2328
      20    H13     18.723373   18.365705   19.002060 H          1 MOL1         0.1004
      21    H14     20.334874   17.617591   18.936792 H          1 MOL1         0.1004
      22    H15     20.007815   19.105104   18.025964 H          1 MOL1         0.1004
      23    C7      18.916971   18.837963   26.968890 C.3        1 MOL1        -0.0781
      24    H16     18.436212   19.818634   26.969040 H          1 MOL1         0.0978
      25    H17     18.441459   18.191893   26.228260 H          1 MOL1         0.0978
      26    H18     18.831489   18.385386   27.959326 H          1 MOL1         0.0978
@<TRIPOS>BOND
    1     1     2    1
    2     1     3    1
    3     1     4    1
    4     4     5    1
    5     4     6    1
    6     4     7    1
    7     7     8    1
    8     7     9    1
    9     7    10    1
   10    10    11    1
   11    10    12    1
   12    10    13    1
   13    13    14    1
   14    13    15    1
   15    13    16    1
   16    16    17    1
   17    16    18    1
   18    16    19    1
   19    19    20    1
   20    19    21    1
   21    19    22    1
   22     1    23    1
   23    23    24    1
   24    23    25    1
   25    23    26    1
@<TRIPOS>SUBSTRUCTURE
       1 MOL1            1 RESIDUE      1      MOL     
@<SCITEGIC>MOL_PROPERTY
VM2 Rank
SciTegic.value.IntegerValue
2

@<SCITEGIC>MOL_PROPERTY
Conf_Id
SciTegic.value.IntegerValue
1250

@<SCITEGIC>MOL_PROPERTY
Probability
SciTegic.value.DoubleValue
4.12

@<SCITEGIC>MOL_PROPERTY
Sum Probability
SciTegic.value.DoubleValue
10.83

@<SCITEGIC>MOL_PROPERTY
Delta G
SciTegic.value.DoubleValue
0.290

@<SCITEGIC>MOL_PROPERTY
G
SciTegic.value.DoubleValue
75.757

@<SCITEGIC>MOL_PROPERTY
E
SciTegic.value.DoubleValue
43.424

@<SCITEGIC>MOL_PROPERTY
-TS
SciTegic.value.DoubleValue
32.333

@<SCITEGIC>MOL_PROPERTY
U+W
SciTegic.value.DoubleValue
21.962

@<SCITEGIC>MOL_PROPERTY
U
SciTegic.value.DoubleValue
70.745

@<SCITEGIC>MOL_PROPERTY
W
SciTegic.value.DoubleValue
-48.783

@<SCITEGIC>MOL_PROPERTY
W(PB)
SciTegic.value.DoubleValue
-51.112

@<SCITEGIC>MOL_PROPERTY
W(SA)
SciTegic.value.DoubleValue
2.329

@<SCITEGIC>MOL_PROPERTY
Valence
SciTegic.value.DoubleValue
1.993

@<SCITEGIC>MOL_PROPERTY
Coulomb
SciTegic.value.DoubleValue
68.323

@<SCITEGIC>MOL_PROPERTY
VdW
SciTegic.value.DoubleValue
0.429

@<SCITEGIC>MOL_PROPERTY
VdW6
SciTegic.value.DoubleValue
-5.973

@<SCITEGIC>MOL_PROPERTY
VdW12
SciTegic.value.DoubleValue
6.402

@<SCITEGIC>MOL_PROPERTY
Bond
SciTegic.value.DoubleValue
0.161

@<SCITEGIC>MOL_PROPERTY
Angle
SciTegic.value.DoubleValue
0.472

@<SCITEGIC>MOL_PROPERTY
Pdih
SciTegic.value.DoubleValue
1.360

@<SCITEGIC>MOL_PROPERTY
Idih
SciTegic.value.DoubleValue
0.000

@<SCITEGIC>MOL_PROPERTY
Tether
SciTegic.value.DoubleValue
0.000

@<TRIPOS>MOLECULE
guest-s12_vm2.mol2 : vm2 ligand conformer 3
          26          25           1
SMALL
USER_CHARGES
 
@<TRIPOS>ATOM
       1    N1      19.498348   18.912444   26.590591 N.4        1 MOL1        -0.4857
       2    H1      19.208503   17.922404   26.573161 H          1 MOL1         0.3650
       3    H2      18.874844   19.360159   27.281093 H          1 MOL1         0.3650
       4    C1      19.284473   19.546672   25.226326 C.3        1 MOL1         0.0209
       5    H3      19.638991   20.579273   25.275834 H          1 MOL1         0.0967
       6    H4      18.207119   19.566561   25.043063 H          1 MOL1         0.0967
       7    C2      19.976934   18.809592   24.061916 C.3        1 MOL1        -0.1378
       8    H5      21.063623   18.808987   24.216776 H          1 MOL1         0.0993
       9    H6      19.652433   17.760640   24.050697 H          1 MOL1         0.0993
      10    C3      19.650666   19.469479   22.703804 C.3        1 MOL1        -0.1338
      11    H7      19.970968   20.520621   22.721463 H          1 MOL1         0.0993
      12    H8      18.562539   19.471698   22.549666 H          1 MOL1         0.0993
      13    C4      20.337908   18.739289   21.527411 C.3        1 MOL1        -0.1338
      14    H9      21.425969   18.737294   21.681183 H          1 MOL1         0.0993
      15    H10     20.017944   17.688176   21.509852 H          1 MOL1         0.0993
      16    C5      20.011321   19.399465   20.169222 C.3        1 MOL1        -0.1313
      17    H11     20.331627   20.450780   20.180896 H          1 MOL1         0.0993
      18    H12     18.923917   19.401555   20.009399 H          1 MOL1         0.0993
      19    C6      20.699453   18.667826   18.997020 C.3        1 MOL1        -0.2328
      20    H13     21.791291   18.678995   19.110896 H          1 MOL1         0.1004
      21    H14     20.455691   19.150838   18.041873 H          1 MOL1         0.1004
      22    H15     20.372626   17.621441   18.938154 H          1 MOL1         0.1004
      23    C7      20.948896   19.045233   27.040710 C.3        1 MOL1        -0.0781
      24    H16     21.220891   20.102660   27.067358 H          1 MOL1         0.0978
      25    H17     21.054398   18.612249   28.037950 H          1 MOL1         0.0978
      26    H18     21.595472   18.513490   26.339825 H          1 MOL1         0.0978
@<TRIPOS>BOND
    1     1     2    1
    2     1     3    1
    3     1     4    1
    4     4     5    1
    5     4     6    1
    6     4     7    1
    7     7     8    1
    8     7     9    1
    9     7    10    1
   10    10    11    1
   11    10    12    1
   12    10    13    1
   13    13    14    1
   14    13    15    1
   15    13    16    1
   16    16    17    1
   17    16    18    1
   18    16    19    1
   19    19    20    1
   20    19    21    1
   21    19    22    1
   22     1    23    1
   23    23    24    1
   24    23    25    1
   25    23    26    1
@<TRIPOS>SUBSTRUCTURE
       1 MOL1            1 RESIDUE      1      MOL     
@<SCITEGIC>MOL_PROPERTY
VM2 Rank
SciTegic.value.IntegerValue
3

@<SCITEGIC>MOL_PROPERTY
Conf_Id
SciTegic.value.IntegerValue
37

@<SCITEGIC>MOL_PROPERTY
Probability
SciTegic.value.DoubleValue
4.08

@<SCITEGIC>MOL_PROPERTY
Sum Probability
SciTegic.value.DoubleValue
14.91

@<SCITEGIC>MOL_PROPERTY
Delta G
SciTegic.value.DoubleValue
0.296

@<SCITEGIC>MOL_PROPERTY
G
SciTegic.value.DoubleValue
75.762

@<SCITEGIC>MOL_PROPERTY
E
SciTegic.value.DoubleValue
43.429

@<SCITEGIC>MOL_PROPERTY
-TS
SciTegic.value.DoubleValue
32.333

@<SCITEGIC>MOL_PROPERTY
U+W
SciTegic.value.DoubleValue
21.967

@<SCITEGIC>MOL_PROPERTY
U
SciTegic.value.DoubleValue
70.745

@<SCITEGIC>MOL_PROPERTY
W
SciTegic.value.DoubleValue
-48.778

@<SCITEGIC>MOL_PROPERTY
W(PB)
SciTegic.value.DoubleValue
-51.115

@<SCITEGIC>MOL_PROPERTY
W(SA)
SciTegic.value.DoubleValue
2.337

@<SCITEGIC>MOL_PROPERTY
Valence
SciTegic.value.DoubleValue
1.993

@<SCITEGIC>MOL_PROPERTY
Coulomb
SciTegic.value.DoubleValue
68.323

@<SCITEGIC>MOL_PROPERTY
VdW
SciTegic.value.DoubleValue
0.429

@<SCITEGIC>MOL_PROPERTY
VdW6
SciTegic.value.DoubleValue
-5.973

@<SCITEGIC>MOL_PROPERTY
VdW12
SciTegic.value.DoubleValue
6.403

@<SCITEGIC>MOL_PROPERTY
Bond
SciTegic.value.DoubleValue
0.161

@<SCITEGIC>MOL_PROPERTY
Angle
SciTegic.value.DoubleValue
0.472

@<SCITEGIC>MOL_PROPERTY
Pdih
SciTegic.value.DoubleValue
1.360

@<SCITEGIC>MOL_PROPERTY
Idih
SciTegic.value.DoubleValue
0.000

@<SCITEGIC>MOL_PROPERTY
Tether
SciTegic.value.DoubleValue
0.000

@<TRIPOS>MOLECULE
guest-s12_vm2.mol2 : vm2 ligand conformer 4
          26          25           1
SMALL
USER_CHARGES
 
@<TRIPOS>ATOM
       1    N1      19.327232   19.167758   25.903958 N.4        1 MOL1        -0.4857
       2    H1      18.783290   18.290921   25.902571 H          1 MOL1         0.3650
       3    H2      18.826295   19.804799   25.266459 H          1 MOL1         0.3650
       4    C1      20.730429   18.912017   25.388618 C.3        1 MOL1         0.0209
       5    H3      21.221569   18.235335   26.092544 H          1 MOL1         0.0967
       6    H4      21.270711   19.862018   25.395249 H          1 MOL1         0.0967
       7    C2      20.775951   18.299242   23.974923 C.3        1 MOL1        -0.1378
       8    H5      21.820152   18.058279   23.735081 H          1 MOL1         0.0993
       9    H6      20.226359   17.348513   23.969400 H          1 MOL1         0.0993
      10    C3      20.207614   19.247995   22.892812 C.3        1 MOL1        -0.1338
      11    H7      20.744000   20.206544   22.928561 H          1 MOL1         0.0993
      12    H8      19.151913   19.465572   23.102855 H          1 MOL1         0.0993
      13    C4      20.329388   18.641657   21.476212 C.3        1 MOL1        -0.1338
      14    H9      21.384583   18.426646   21.257461 H          1 MOL1         0.0993
      15    H10     19.795870   17.681654   21.440246 H          1 MOL1         0.0993
      16    C5      19.762017   19.586776   20.393570 C.3        1 MOL1        -0.1313
      17    H11     20.293974   20.548068   20.424175 H          1 MOL1         0.0993
      18    H12     18.705437   19.802679   20.605696 H          1 MOL1         0.0993
      19    C6      19.886073   18.978068   18.980434 C.3        1 MOL1        -0.2328
      20    H13     19.334943   18.031352   18.908421 H          1 MOL1         0.1004
      21    H14     20.935811   18.782705   18.725311 H          1 MOL1         0.1004
      22    H15     19.478213   19.663226   18.225958 H          1 MOL1         0.1004
      23    C7      19.389295   19.756487   27.306474 C.3        1 MOL1        -0.0781
      24    H16     18.373250   19.935926   27.665053 H          1 MOL1         0.0978
      25    H17     19.895339   19.051509   27.969698 H          1 MOL1         0.0978
      26    H18     19.941689   20.698245   27.276541 H          1 MOL1         0.0978
@<TRIPOS>BOND
    1     1     2    1
    2     1     3    1
    3     1     4    1
    4     4     5    1
    5     4     6    1
    6     4     7    1
    7     7     8    1
    8     7     9    1
    9     7    10    1
   10    10    11    1
   11    10    12    1
   12    10    13    1
   13    13    14    1
   14    13    15    1
   15    13    16    1
   16    16    17    1
   17    16    18    1
   18    16    19    1
   19    19    20    1
   20    19    21    1
   21    19    22    1
   22     1    23    1
   23    23    24    1
   24    23    25    1
   25    23    26    1
@<TRIPOS>SUBSTRUCTURE
       1 MOL1            1 RESIDUE      1      MOL     
@<SCITEGIC>MOL_PROPERTY
VM2 Rank
SciTegic.value.IntegerValue
4

@<SCITEGIC>MOL_PROPERTY
Conf_Id
SciTegic.value.IntegerValue
1284

@<SCITEGIC>MOL_PROPERTY
Probability
SciTegic.value.DoubleValue
3.03

@<SCITEGIC>MOL_PROPERTY
Sum Probability
SciTegic.value.DoubleValue
17.94

@<SCITEGIC>MOL_PROPERTY
Delta G
SciTegic.value.DoubleValue
0.474

@<SCITEGIC>MOL_PROPERTY
G
SciTegic.value.DoubleValue
75.941

@<SCITEGIC>MOL_PROPERTY
E
SciTegic.value.DoubleValue
43.686

@<SCITEGIC>MOL_PROPERTY
-TS
SciTegic.value.DoubleValue
32.255

@<SCITEGIC>MOL_PROPERTY
U+W
SciTegic.value.DoubleValue
22.224

@<SCITEGIC>MOL_PROPERTY
U
SciTegic.value.DoubleValue
71.142

@<SCITEGIC>MOL_PROPERTY
W
SciTegic.value.DoubleValue
-48.918

@<SCITEGIC>MOL_PROPERTY
W(PB)
SciTegic.value.DoubleValue
-51.255

@<SCITEGIC>MOL_PROPERTY
W(SA)
SciTegic.value.DoubleValue
2.337

@<SCITEGIC>MOL_PROPERTY
Valence
SciTegic.value.DoubleValue
1.835

@<SCITEGIC>MOL_PROPERTY
Coulomb
SciTegic.value.DoubleValue
69.101

@<SCITEGIC>MOL_PROPERTY
VdW
SciTegic.value.DoubleValue
0.206

@<SCITEGIC>MOL_PROPERTY
VdW6
SciTegic.value.DoubleValue
-5.849

@<SCITEGIC>MOL_PROPERTY
VdW12
SciTegic.value.DoubleValue
6.055

@<SCITEGIC>MOL_PROPERTY
Bond
SciTegic.value.DoubleValue
0.142

@<SCITEGIC>MOL_PROPERTY
Angle
SciTegic.value.DoubleValue
0.413

@<SCITEGIC>MOL_PROPERTY
Pdih
SciTegic.value.DoubleValue
1.279

@<SCITEGIC>MOL_PROPERTY
Idih
SciTegic.value.DoubleValue
0.000

@<SCITEGIC>MOL_PROPERTY
Tether
SciTegic.value.DoubleValue
0.000

@<TRIPOS>MOLECULE
guest-s12_vm2.mol2 : vm2 ligand conformer 5
          26          25           1
SMALL
USER_CHARGES
 
@<TRIPOS>ATOM
       1    N1      20.555879   19.293638   25.947467 N.4        1 MOL1        -0.4857
       2    H1      20.960793   20.023437   25.341992 H          1 MOL1         0.3650
       3    H2      21.264882   18.545188   25.990551 H          1 MOL1         0.3650
       4    C1      19.273178   18.762636   25.337010 C.3        1 MOL1         0.0209
       5    H3      18.552549   19.583426   25.298974 H          1 MOL1         0.0967
       6    H4      18.881239   17.995473   26.009670 H          1 MOL1         0.0967
       7    C2      19.451793   18.163501   23.928027 C.3        1 MOL1        -0.1378
       8    H5      20.181474   17.343775   23.967821 H          1 MOL1         0.0993
       9    H6      18.497410   17.717877   23.617361 H          1 MOL1         0.0993
      10    C3      19.890685   19.215418   22.881629 C.3        1 MOL1        -0.1338
      11    H7      20.863221   19.640522   23.163450 H          1 MOL1         0.0993
      12    H8      19.170322   20.045361   22.873003 H          1 MOL1         0.0993
      13    C4      19.993433   18.607264   21.464300 C.3        1 MOL1        -0.1338
      14    H9      20.711236   17.775259   21.472533 H          1 MOL1         0.0993
      15    H10     19.021453   18.184920   21.173783 H          1 MOL1         0.0993
      16    C5      20.432274   19.655412   20.417362 C.3        1 MOL1        -0.1313
      17    H11     21.405900   20.078941   20.701349 H          1 MOL1         0.0993
      18    H12     19.716121   20.489043   20.403902 H          1 MOL1         0.0993
      19    C6      20.532987   19.044470   19.003333 C.3        1 MOL1        -0.2328
      20    H13     21.267811   18.229285   18.976716 H          1 MOL1         0.1004
      21    H14     20.845626   19.803402   18.274427 H          1 MOL1         0.1004
      22    H15     19.564897   18.642759   18.676788 H          1 MOL1         0.1004
      23    C7      20.277771   19.847662   27.337871 C.3        1 MOL1        -0.0781
      24    H16     19.879832   19.050124   27.969154 H          1 MOL1         0.0978
      25    H17     21.208742   20.226661   27.765396 H          1 MOL1         0.0978
      26    H18     19.549549   20.658188   27.262473 H          1 MOL1         0.0978
@<TRIPOS>BOND
    1     1     2    1
    2     1     3    1
    3     1     4    1
    4     4     5    1
    5     4     6    1
    6     4     7    1
    7     7     8    1
    8     7     9    1
    9     7    10    1
   10    10    11    1
   11    10    12    1
   12    10    13    1
   13    13    14    1
   14    13    15    1
   15    13    16    1
   16    16    17    1
   17    16    18    1
   18    16    19    1
   19    19    20    1
   20    19    21    1
   21    19    22    1
   22     1    23    1
   23    23    24    1
   24    23    25    1
   25    23    26    1
@<TRIPOS>SUBSTRUCTURE
       1 MOL1            1 RESIDUE      1      MOL     
@<SCITEGIC>MOL_PROPERTY
VM2 Rank
SciTegic.value.IntegerValue
5

@<SCITEGIC>MOL_PROPERTY
Conf_Id
SciTegic.value.IntegerValue
484

@<SCITEGIC>MOL_PROPERTY
Probability
SciTegic.value.DoubleValue
3.01

@<SCITEGIC>MOL_PROPERTY
Sum Probability
SciTegic.value.DoubleValue
20.95

@<SCITEGIC>MOL_PROPERTY
Delta G
SciTegic.value.DoubleValue
0.477

@<SCITEGIC>MOL_PROPERTY
G
SciTegic.value.DoubleValue
75.944

@<SCITEGIC>MOL_PROPERTY
E
SciTegic.value.DoubleValue
43.689

@<SCITEGIC>MOL_PROPERTY
-TS
SciTegic.value.DoubleValue
32.255

@<SCITEGIC>MOL_PROPERTY
U+W
SciTegic.value.DoubleValue
22.227

@<SCITEGIC>MOL_PROPERTY
U
SciTegic.value.DoubleValue
71.142

@<SCITEGIC>MOL_PROPERTY
W
SciTegic.value.DoubleValue
-48.916

@<SCITEGIC>MOL_PROPERTY
W(PB)
SciTegic.value.DoubleValue
-51.253

@<SCITEGIC>MOL_PROPERTY
W(SA)
SciTegic.value.DoubleValue
2.337

@<SCITEGIC>MOL_PROPERTY
Valence
SciTegic.value.DoubleValue
1.835

@<SCITEGIC>MOL_PROPERTY
Coulomb
SciTegic.value.DoubleValue
69.101

@<SCITEGIC>MOL_PROPERTY
VdW
SciTegic.value.DoubleValue
0.206

@<SCITEGIC>MOL_PROPERTY
VdW6
SciTegic.value.DoubleValue
-5.849

@<SCITEGIC>MOL_PROPERTY
VdW12
SciTegic.value.DoubleValue
6.055

@<SCITEGIC>MOL_PROPERTY
Bond
SciTegic.value.DoubleValue
0.142

@<SCITEGIC>MOL_PROPERTY
Angle
SciTegic.value.DoubleValue
0.413

@<SCITEGIC>MOL_PROPERTY
Pdih
SciTegic.value.DoubleValue
1.279

@<SCITEGIC>MOL_PROPERTY
Idih
SciTegic.value.DoubleValue
0.000

@<SCITEGIC>MOL_PROPERTY
Tether
SciTegic.value.DoubleValue
0.000

@<TRIPOS>MOLECULE
guest-s12_vm2.mol2 : vm2 ligand conformer 6
          26          25           1
SMALL
USER_CHARGES
 
@<TRIPOS>ATOM
       1    N1      19.928112   18.806382   26.289580 N.4        1 MOL1        -0.4857
       2    H1      20.799361   19.041742   26.789952 H          1 MOL1         0.3650
       3    H2      19.866957   17.776601   26.314538 H          1 MOL1         0.3650
       4    C1      20.001152   19.291409   24.855754 C.3        1 MOL1         0.0209
       5    H3      20.075537   20.381622   24.873872 H          1 MOL1         0.0967
       6    H4      19.064716   19.017722   24.363985 H          1 MOL1         0.0967
       7    C2      21.192007   18.703749   24.074203 C.3        1 MOL1        -0.1378
       8    H5      22.123414   18.948316   24.602023 H          1 MOL1         0.0993
       9    H6      21.118347   17.608181   24.057614 H          1 MOL1         0.0993
      10    C3      21.279865   19.240818   22.626073 C.3        1 MOL1        -0.1338
      11    H7      22.197335   18.853262   22.161811 H          1 MOL1         0.0993
      12    H8      21.380938   20.334912   22.646641 H          1 MOL1         0.0993
      13    C4      20.062688   18.844947   21.755638 C.3        1 MOL1        -0.1338
      14    H9      19.944685   17.752500   21.764317 H          1 MOL1         0.0993
      15    H10     19.142882   19.267702   22.181451 H          1 MOL1         0.0993
      16    C5      20.216281   19.333373   20.297891 C.3        1 MOL1        -0.1313
      17    H11     21.129904   18.909200   19.858167 H          1 MOL1         0.0993
      18    H12     20.335573   20.425873   20.283242 H          1 MOL1         0.0993
      19    C6      19.001113   18.939499   19.431188 C.3        1 MOL1        -0.2328
      20    H13     19.128909   19.294352   18.400278 H          1 MOL1         0.1004
      21    H14     18.075475   19.378363   19.825887 H          1 MOL1         0.1004
      22    H15     18.875846   17.849333   19.398826 H          1 MOL1         0.1004
      23    C7      18.726783   19.429824   26.986673 C.3        1 MOL1        -0.0781
      24    H16     18.830179   20.517103   26.976840 H          1 MOL1         0.0978
      25    H17     17.815195   19.139851   26.459530 H          1 MOL1         0.0978
      26    H18     18.685941   19.072519   28.018085 H          1 MOL1         0.0978
@<TRIPOS>BOND
    1     1     2    1
    2     1     3    1
    3     1     4    1
    4     4     5    1
    5     4     6    1
    6     4     7    1
    7     7     8    1
    8     7     9    1
    9     7    10    1
   10    10    11    1
   11    10    12    1
   12    10    13    1
   13    13    14    1
   14    13    15    1
   15    13    16    1
   16    16    17    1
   17    16    18    1
   18    16    19    1
   19    19    20    1
   20    19    21    1
   21    19    22    1
   22     1    23    1
   23    23    24    1
   24    23    25    1
   25    23    26    1
@<TRIPOS>SUBSTRUCTURE
       1 MOL1            1 RESIDUE      1      MOL     
@<SCITEGIC>MOL_PROPERTY
VM2 Rank
SciTegic.value.IntegerValue
6

@<SCITEGIC>MOL_PROPERTY
Conf_Id
SciTegic.value.IntegerValue
1013

@<SCITEGIC>MOL_PROPERTY
Probability
SciTegic.value.DoubleValue
2.62

@<SCITEGIC>MOL_PROPERTY
Sum Probability
SciTegic.value.DoubleValue
23.57

@<SCITEGIC>MOL_PROPERTY
Delta G
SciTegic.value.DoubleValue
0.561

@<SCITEGIC>MOL_PROPERTY
G
SciTegic.value.DoubleValue
76.027

@<SCITEGIC>MOL_PROPERTY
E
SciTegic.value.DoubleValue
43.767

@<SCITEGIC>MOL_PROPERTY
-TS
SciTegic.value.DoubleValue
32.260

@<SCITEGIC>MOL_PROPERTY
U+W
SciTegic.value.DoubleValue
22.305

@<SCITEGIC>MOL_PROPERTY
U
SciTegic.value.DoubleValue
71.138

@<SCITEGIC>MOL_PROPERTY
W
SciTegic.value.DoubleValue
-48.832

@<SCITEGIC>MOL_PROPERTY
W(PB)
SciTegic.value.DoubleValue
-51.177

@<SCITEGIC>MOL_PROPERTY
W(SA)
SciTegic.value.DoubleValue
2.344

@<SCITEGIC>MOL_PROPERTY
Valence
SciTegic.value.DoubleValue
2.016

@<SCITEGIC>MOL_PROPERTY
Coulomb
SciTegic.value.DoubleValue
68.932

@<SCITEGIC>MOL_PROPERTY
VdW
SciTegic.value.DoubleValue
0.190

@<SCITEGIC>MOL_PROPERTY
VdW6
SciTegic.value.DoubleValue
-5.902

@<SCITEGIC>MOL_PROPERTY
VdW12
SciTegic.value.DoubleValue
6.091

@<SCITEGIC>MOL_PROPERTY
Bond
SciTegic.value.DoubleValue
0.149

@<SCITEGIC>MOL_PROPERTY
Angle
SciTegic.value.DoubleValue
0.477

@<SCITEGIC>MOL_PROPERTY
Pdih
SciTegic.value.DoubleValue
1.390

@<SCITEGIC>MOL_PROPERTY
Idih
SciTegic.value.DoubleValue
0.000

@<SCITEGIC>MOL_PROPERTY
Tether
SciTegic.value.DoubleValue
0.000

@<TRIPOS>MOLECULE
guest-s12_vm2.mol2 : vm2 ligand conformer 7
          26          25           1
SMALL
USER_CHARGES
 
@<TRIPOS>ATOM
       1    N1      20.015036   18.815267   26.292651 N.4        1 MOL1        -0.4857
       2    H1      20.281289   17.818984   26.329261 H          1 MOL1         0.3650
       3    H2      19.081313   18.865991   26.729032 H          1 MOL1         0.3650
       4    C1      19.946071   19.285700   24.853772 C.3        1 MOL1         0.0209
       5    H3      20.950595   19.210470   24.430775 H          1 MOL1         0.0967
       6    H4      19.651754   20.338211   24.858771 H          1 MOL1         0.0967
       7    C2      18.956321   18.475019   23.995005 C.3        1 MOL1        -0.1378
       8    H5      19.250940   17.417116   23.991453 H          1 MOL1         0.0993
       9    H6      17.960082   18.522437   24.454557 H          1 MOL1         0.0993
      10    C3      18.863297   18.993604   22.540478 C.3        1 MOL1        -0.1338
      11    H7      18.541843   20.044468   22.546096 H          1 MOL1         0.0993
      12    H8      18.077990   18.431843   22.015880 H          1 MOL1         0.0993
      13    C4      20.193295   18.858361   21.760284 C.3        1 MOL1        -0.1338
      14    H9      20.976446   19.455385   22.246410 H          1 MOL1         0.0993
      15    H10     20.528938   17.812334   21.785052 H          1 MOL1         0.0993
      16    C5      20.046534   19.316032   20.291895 C.3        1 MOL1        -0.1313
      17    H11     19.710114   20.361918   20.261087 H          1 MOL1         0.0993
      18    H12     19.270625   18.719025   19.792362 H          1 MOL1         0.0993
      19    C6      21.373866   19.182202   19.515225 C.3        1 MOL1        -0.2328
      20    H13     21.249451   19.511274   18.475388 H          1 MOL1         0.1004
      21    H14     21.718904   18.140135   19.499506 H          1 MOL1         0.1004
      22    H15     22.161710   19.796303   19.970610 H          1 MOL1         0.1004
      23    C7      21.013579   19.663815   27.067690 C.3        1 MOL1        -0.0781
      24    H16     20.693398   20.707762   27.042740 H          1 MOL1         0.0978
      25    H17     21.053410   19.314856   28.101995 H          1 MOL1         0.0978
      26    H18     21.999642   19.567924   26.607864 H          1 MOL1         0.0978
@<TRIPOS>BOND
    1     1     2    1
    2     1     3    1
    3     1     4    1
    4     4     5    1
    5     4     6    1
    6     4     7    1
    7     7     8    1
    8     7     9    1
    9     7    10    1
   10    10    11    1
   11    10    12    1
   12    10    13    1
   13    13    14    1
   14    13    15    1
   15    13    16    1
   16    16    17    1
   17    16    18    1
   18    16    19    1
   19    19    20    1
   20    19    21    1
   21    19    22    1
   22     1    23    1
   23    23    24    1
   24    23    25    1
   25    23    26    1
@<TRIPOS>SUBSTRUCTURE
       1 MOL1            1 RESIDUE      1      MOL     
@<SCITEGIC>MOL_PROPERTY
VM2 Rank
SciTegic.value.IntegerValue
7

@<SCITEGIC>MOL_PROPERTY
Conf_Id
SciTegic.value.IntegerValue
1246

@<SCITEGIC>MOL_PROPERTY
Probability
SciTegic.value.DoubleValue
2.48

@<SCITEGIC>MOL_PROPERTY
Sum Probability
SciTegic.value.DoubleValue
26.05

@<SCITEGIC>MOL_PROPERTY
Delta G
SciTegic.value.DoubleValue
0.592

@<SCITEGIC>MOL_PROPERTY
G
SciTegic.value.DoubleValue
76.059

@<SCITEGIC>MOL_PROPERTY
E
SciTegic.value.DoubleValue
43.799

@<SCITEGIC>MOL_PROPERTY
-TS
SciTegic.value.DoubleValue
32.260

@<SCITEGIC>MOL_PROPERTY
U+W
SciTegic.value.DoubleValue
22.337

@<SCITEGIC>MOL_PROPERTY
U
SciTegic.value.DoubleValue
71.138

@<SCITEGIC>MOL_PROPERTY
W
SciTegic.value.DoubleValue
-48.801

@<SCITEGIC>MOL_PROPERTY
W(PB)
SciTegic.value.DoubleValue
-51.137

@<SCITEGIC>MOL_PROPERTY
W(SA)
SciTegic.value.DoubleValue
2.337

@<SCITEGIC>MOL_PROPERTY
Valence
SciTegic.value.DoubleValue
2.016

@<SCITEGIC>MOL_PROPERTY
Coulomb
SciTegic.value.DoubleValue
68.932

@<SCITEGIC>MOL_PROPERTY
VdW
SciTegic.value.DoubleValue
0.190

@<SCITEGIC>MOL_PROPERTY
VdW6
SciTegic.value.DoubleValue
-5.902

@<SCITEGIC>MOL_PROPERTY
VdW12
SciTegic.value.DoubleValue
6.092

@<SCITEGIC>MOL_PROPERTY
Bond
SciTegic.value.DoubleValue
0.149

@<SCITEGIC>MOL_PROPERTY
Angle
SciTegic.value.DoubleValue
0.477

@<SCITEGIC>MOL_PROPERTY
Pdih
SciTegic.value.DoubleValue
1.390

@<SCITEGIC>MOL_PROPERTY
Idih
SciTegic.value.DoubleValue
0.000

@<SCITEGIC>MOL_PROPERTY
Tether
SciTegic.value.DoubleValue
0.000

@<TRIPOS>MOLECULE
guest-s12_vm2.mol2 : vm2 ligand conformer 8
          26          25           1
SMALL
USER_CHARGES
 
@<TRIPOS>ATOM
       1    N1      19.590179   19.766095   26.020377 N.4        1 MOL1        -0.4857
       2    H1      18.970241   19.996481   26.813151 H          1 MOL1         0.3650
       3    H2      19.449475   20.528130   25.340498 H          1 MOL1         0.3650
       4    C1      19.166417   18.438011   25.412409 C.3        1 MOL1         0.0209
       5    H3      18.090288   18.491907   25.228933 H          1 MOL1         0.0967
       6    H4      19.340795   17.661244   26.161227 H          1 MOL1         0.0967
       7    C2      19.880834   18.056585   24.097290 C.3        1 MOL1        -0.1378
       8    H5      20.957315   17.941145   24.278216 H          1 MOL1         0.0993
       9    H6      19.514190   17.071714   23.779013 H          1 MOL1         0.0993
      10    C3      19.640984   19.083120   22.964882 C.3        1 MOL1        -0.1338
      11    H7      20.043070   20.061991   23.258589 H          1 MOL1         0.0993
      12    H8      18.560666   19.213848   22.811671 H          1 MOL1         0.0993
      13    C4      20.300560   18.640282   21.639015 C.3        1 MOL1        -0.1338
      14    H9      21.380353   18.506300   21.792697 H          1 MOL1         0.0993
      15    H10     19.899272   17.662958   21.336861 H          1 MOL1         0.0993
      16    C5      20.064953   19.665320   20.507209 C.3        1 MOL1        -0.1313
      17    H11     20.467416   20.644312   20.803133 H          1 MOL1         0.0993
      18    H12     18.985959   19.801411   20.348338 H          1 MOL1         0.0993
      19    C6      20.724705   19.219460   19.184789 C.3        1 MOL1        -0.2328
      20    H13     20.546557   19.959497   18.393822 H          1 MOL1         0.1004
      21    H14     20.317383   18.258447   18.844576 H          1 MOL1         0.1004
      22    H15     21.810412   19.107865   19.303055 H          1 MOL1         0.1004
      23    C7      21.039369   19.721127   26.491029 C.3        1 MOL1        -0.0781
      24    H16     21.691676   19.539888   25.634394 H          1 MOL1         0.0978
      25    H17     21.295371   20.677869   26.951629 H          1 MOL1         0.0978
      26    H18     21.154401   18.917568   27.221680 H          1 MOL1         0.0978
@<TRIPOS>BOND
    1     1     2    1
    2     1     3    1
    3     1     4    1
    4     4     5    1
    5     4     6    1
    6     4     7    1
    7     7     8    1
    8     7     9    1
    9     7    10    1
   10    10    11    1
   11    10    12    1
   12    10    13    1
   13    13    14    1
   14    13    15    1
   15    13    16    1
   16    16    17    1
   17    16    18    1
   18    16    19    1
   19    19    20    1
   20    19    21    1
   21    19    22    1
   22     1    23    1
   23    23    24    1
   24    23    25    1
   25    23    26    1
@<TRIPOS>SUBSTRUCTURE
       1 MOL1            1 RESIDUE      1      MOL     
@<SCITEGIC>MOL_PROPERTY
VM2 Rank
SciTegic.value.IntegerValue
8

@<SCITEGIC>MOL_PROPERTY
Conf_Id
SciTegic.value.IntegerValue
1278

@<SCITEGIC>MOL_PROPERTY
Probability
SciTegic.value.DoubleValue
2.48

@<SCITEGIC>MOL_PROPERTY
Sum Probability
SciTegic.value.DoubleValue
28.53

@<SCITEGIC>MOL_PROPERTY
Delta G
SciTegic.value.DoubleValue
0.594

@<SCITEGIC>MOL_PROPERTY
G
SciTegic.value.DoubleValue
76.060

@<SCITEGIC>MOL_PROPERTY
E
SciTegic.value.DoubleValue
43.581

@<SCITEGIC>MOL_PROPERTY
-TS
SciTegic.value.DoubleValue
32.479

@<SCITEGIC>MOL_PROPERTY
U+W
SciTegic.value.DoubleValue
22.119

@<SCITEGIC>MOL_PROPERTY
U
SciTegic.value.DoubleValue
71.479

@<SCITEGIC>MOL_PROPERTY
W
SciTegic.value.DoubleValue
-49.360

@<SCITEGIC>MOL_PROPERTY
W(PB)
SciTegic.value.DoubleValue
-51.654

@<SCITEGIC>MOL_PROPERTY
W(SA)
SciTegic.value.DoubleValue
2.294

@<SCITEGIC>MOL_PROPERTY
Valence
SciTegic.value.DoubleValue
2.085

@<SCITEGIC>MOL_PROPERTY
Coulomb
SciTegic.value.DoubleValue
68.999

@<SCITEGIC>MOL_PROPERTY
VdW
SciTegic.value.DoubleValue
0.395

@<SCITEGIC>MOL_PROPERTY
VdW6
SciTegic.value.DoubleValue
-6.752

@<SCITEGIC>MOL_PROPERTY
VdW12
SciTegic.value.DoubleValue
7.148

@<SCITEGIC>MOL_PROPERTY
Bond
SciTegic.value.DoubleValue
0.184

@<SCITEGIC>MOL_PROPERTY
Angle
SciTegic.value.DoubleValue
0.576

@<SCITEGIC>MOL_PROPERTY
Pdih
SciTegic.value.DoubleValue
1.325

@<SCITEGIC>MOL_PROPERTY
Idih
SciTegic.value.DoubleValue
0.000

@<SCITEGIC>MOL_PROPERTY
Tether
SciTegic.value.DoubleValue
0.000

@<TRIPOS>MOLECULE
guest-s12_vm2.mol2 : vm2 ligand conformer 9
          26          25           1
SMALL
USER_CHARGES
 
@<TRIPOS>ATOM
       1    N1      20.169834   19.825404   26.040886 N.4        1 MOL1        -0.4857
       2    H1      20.200893   20.605022   25.367120 H          1 MOL1         0.3650
       3    H2      20.673122   20.170700   26.873569 H          1 MOL1         0.3650
       4    C1      20.895093   18.614895   25.473713 C.3        1 MOL1         0.0209
       5    H3      20.829393   17.813575   26.214034 H          1 MOL1         0.0967
       6    H4      21.948227   18.886705   25.365773 H          1 MOL1         0.0967
       7    C2      20.366648   18.106233   24.114512 C.3        1 MOL1        -0.1378
       8    H5      20.946467   17.218302   23.829751 H          1 MOL1         0.0993
       9    H6      19.325856   17.773950   24.220384 H          1 MOL1         0.0993
      10    C3      20.472432   19.168205   22.994387 C.3        1 MOL1        -0.1338
      11    H7      21.511930   19.516048   22.916298 H          1 MOL1         0.0993
      12    H8      19.860923   20.043253   23.252211 H          1 MOL1         0.0993
      13    C4      20.010678   18.610565   21.628776 C.3        1 MOL1        -0.1338
      14    H9      20.621777   17.737018   21.362385 H          1 MOL1         0.0993
      15    H10     18.972369   18.259501   21.707458 H          1 MOL1         0.0993
      16    C5      20.112314   19.670252   20.508984 C.3        1 MOL1        -0.1313
      17    H11     21.149771   20.023274   20.425030 H          1 MOL1         0.0993
      18    H12     19.500156   20.545232   20.769070 H          1 MOL1         0.0993
      19    C6      19.650716   19.109567   19.146845 C.3        1 MOL1        -0.2328
      20    H13     19.730025   19.876082   18.365062 H          1 MOL1         0.1004
      21    H14     18.604605   18.779393   19.189686 H          1 MOL1         0.1004
      22    H15     20.267120   18.253549   18.842742 H          1 MOL1         0.1004
      23    C7      18.730285   19.484879   26.408896 C.3        1 MOL1        -0.0781
      24    H16     18.189916   19.181658   25.509878 H          1 MOL1         0.0978
      25    H17     18.729113   18.669407   27.135389 H          1 MOL1         0.0978
      26    H18     18.254377   20.366725   26.843527 H          1 MOL1         0.0978
@<TRIPOS>BOND
    1     1     2    1
    2     1     3    1
    3     1     4    1
    4     4     5    1
    5     4     6    1
    6     4     7    1
    7     7     8    1
    8     7     9    1
    9     7    10    1
   10    10    11    1
   11    10    12    1
   12    10    13    1
   13    13    14    1
   14    13    15    1
   15    13    16    1
   16    16    17    1
   17    16    18    1
   18    16    19    1
   19    19    20    1
   20    19    21    1
   21    19    22    1
   22     1    23    1
   23    23    24    1
   24    23    25    1
   25    23    26    1
@<TRIPOS>SUBSTRUCTURE
       1 MOL1            1 RESIDUE      1      MOL     
@<SCITEGIC>MOL_PROPERTY
VM2 Rank
SciTegic.value.IntegerValue
9

@<SCITEGIC>MOL_PROPERTY
Conf_Id
SciTegic.value.IntegerValue
546

@<SCITEGIC>MOL_PROPERTY
Probability
SciTegic.value.DoubleValue
2.32

@<SCITEGIC>MOL_PROPERTY
Sum Probability
SciTegic.value.DoubleValue
30.85

@<SCITEGIC>MOL_PROPERTY
Delta G
SciTegic.value.DoubleValue
0.632

@<SCITEGIC>MOL_PROPERTY
G
SciTegic.value.DoubleValue
76.098

@<SCITEGIC>MOL_PROPERTY
E
SciTegic.value.DoubleValue
43.619

@<SCITEGIC>MOL_PROPERTY
-TS
SciTegic.value.DoubleValue
32.480

@<SCITEGIC>MOL_PROPERTY
U+W
SciTegic.value.DoubleValue
22.157

@<SCITEGIC>MOL_PROPERTY
U
SciTegic.value.DoubleValue
71.479

@<SCITEGIC>MOL_PROPERTY
W
SciTegic.value.DoubleValue
-49.323

@<SCITEGIC>MOL_PROPERTY
W(PB)
SciTegic.value.DoubleValue
-51.599

@<SCITEGIC>MOL_PROPERTY
W(SA)
SciTegic.value.DoubleValue
2.276

@<SCITEGIC>MOL_PROPERTY
Valence
SciTegic.value.DoubleValue
2.085

@<SCITEGIC>MOL_PROPERTY
Coulomb
SciTegic.value.DoubleValue
68.999

@<SCITEGIC>MOL_PROPERTY
VdW
SciTegic.value.DoubleValue
0.395

@<SCITEGIC>MOL_PROPERTY
VdW6
SciTegic.value.DoubleValue
-6.753

@<SCITEGIC>MOL_PROPERTY
VdW12
SciTegic.value.DoubleValue
7.148

@<SCITEGIC>MOL_PROPERTY
Bond
SciTegic.value.DoubleValue
0.184

@<SCITEGIC>MOL_PROPERTY
Angle
SciTegic.value.DoubleValue
0.576

@<SCITEGIC>MOL_PROPERTY
Pdih
SciTegic.value.DoubleValue
1.325

@<SCITEGIC>MOL_PROPERTY
Idih
SciTegic.value.DoubleValue
0.000

@<SCITEGIC>MOL_PROPERTY
Tether
SciTegic.value.DoubleValue
0.000

@<TRIPOS>MOLECULE
guest-s12_vm2.mol2 : vm2 ligand conformer 10
          26          25           1
SMALL
USER_CHARGES
 
@<TRIPOS>ATOM
       1    N1      19.928093   18.743501   26.413459 N.4        1 MOL1        -0.4857
       2    H1      20.550615   17.922149   26.465528 H          1 MOL1         0.3650
       3    H2      18.971801   18.370121   26.518138 H          1 MOL1         0.3650
       4    C1      20.077749   19.428766   25.070026 C.3        1 MOL1         0.0209
       5    H3      21.102608   19.801152   24.995949 H          1 MOL1         0.0967
       6    H4      19.398269   20.284631   25.052674 H          1 MOL1         0.0967
       7    C2      19.775468   18.503219   23.877532 C.3        1 MOL1        -0.1378
       8    H5      20.449273   17.636537   23.907954 H          1 MOL1         0.0993
       9    H6      18.750634   18.118425   23.965168 H          1 MOL1         0.0993
      10    C3      19.940896   19.243241   22.531580 C.3        1 MOL1        -0.1338
      11    H7      20.964978   19.633027   22.460254 H          1 MOL1         0.0993
      12    H8      19.266729   20.110640   22.505456 H          1 MOL1         0.0993
      13    C4      19.642498   18.319182   21.326193 C.3        1 MOL1        -0.1338
      14    H9      20.348714   17.477411   21.320308 H          1 MOL1         0.0993
      15    H10     18.641921   17.881701   21.448207 H          1 MOL1         0.0993
      16    C5      19.696367   19.048031   19.961523 C.3        1 MOL1        -0.1313
      17    H11     18.975185   19.877288   19.954134 H          1 MOL1         0.0993
      18    H12     19.370555   18.351119   19.176636 H          1 MOL1         0.0993
      19    C6      21.103055   19.579190   19.602927 C.3        1 MOL1        -0.2328
      20    H13     21.423666   20.370120   20.292148 H          1 MOL1         0.1004
      21    H14     21.106808   20.003330   18.590493 H          1 MOL1         0.1004
      22    H15     21.848632   18.774032   19.631797 H          1 MOL1         0.1004
      23    C7      20.243873   19.724871   27.533762 C.3        1 MOL1        -0.0781
      24    H16     19.551819   20.568051   27.478307 H          1 MOL1         0.0978
      25    H17     20.132363   19.218781   28.495315 H          1 MOL1         0.0978
      26    H18     21.270412   20.080490   27.420993 H          1 MOL1         0.0978
@<TRIPOS>BOND
    1     1     2    1
    2     1     3    1
    3     1     4    1
    4     4     5    1
    5     4     6    1
    6     4     7    1
    7     7     8    1
    8     7     9    1
    9     7    10    1
   10    10    11    1
   11    10    12    1
   12    10    13    1
   13    13    14    1
   14    13    15    1
   15    13    16    1
   16    16    17    1
   17    16    18    1
   18    16    19    1
   19    19    20    1
   20    19    21    1
   21    19    22    1
   22     1    23    1
   23    23    24    1
   24    23    25    1
   25    23    26    1
@<TRIPOS>SUBSTRUCTURE
       1 MOL1            1 RESIDUE      1      MOL     
@<SCITEGIC>MOL_PROPERTY
VM2 Rank
SciTegic.value.IntegerValue
10

@<SCITEGIC>MOL_PROPERTY
Conf_Id
SciTegic.value.IntegerValue
1070

@<SCITEGIC>MOL_PROPERTY
Probability
SciTegic.value.DoubleValue
2.16

@<SCITEGIC>MOL_PROPERTY
Sum Probability
SciTegic.value.DoubleValue
33.02

@<SCITEGIC>MOL_PROPERTY
Delta G
SciTegic.value.DoubleValue
0.675

@<SCITEGIC>MOL_PROPERTY
G
SciTegic.value.DoubleValue
76.141

@<SCITEGIC>MOL_PROPERTY
E
SciTegic.value.DoubleValue
43.869

@<SCITEGIC>MOL_PROPERTY
-TS
SciTegic.value.DoubleValue
32.272

@<SCITEGIC>MOL_PROPERTY
U+W
SciTegic.value.DoubleValue
22.407

@<SCITEGIC>MOL_PROPERTY
U
SciTegic.value.DoubleValue
71.035

@<SCITEGIC>MOL_PROPERTY
W
SciTegic.value.DoubleValue
-48.628

@<SCITEGIC>MOL_PROPERTY
W(PB)
SciTegic.value.DoubleValue
-50.937

@<SCITEGIC>MOL_PROPERTY
W(SA)
SciTegic.value.DoubleValue
2.309

@<SCITEGIC>MOL_PROPERTY
Valence
SciTegic.value.DoubleValue
2.223

@<SCITEGIC>MOL_PROPERTY
Coulomb
SciTegic.value.DoubleValue
68.516

@<SCITEGIC>MOL_PROPERTY
VdW
SciTegic.value.DoubleValue
0.297

@<SCITEGIC>MOL_PROPERTY
VdW6
SciTegic.value.DoubleValue
-5.882

@<SCITEGIC>MOL_PROPERTY
VdW12
SciTegic.value.DoubleValue
6.178

@<SCITEGIC>MOL_PROPERTY
Bond
SciTegic.value.DoubleValue
0.162

@<SCITEGIC>MOL_PROPERTY
Angle
SciTegic.value.DoubleValue
0.596

@<SCITEGIC>MOL_PROPERTY
Pdih
SciTegic.value.DoubleValue
1.465

@<SCITEGIC>MOL_PROPERTY
Idih
SciTegic.value.DoubleValue
0.000

@<SCITEGIC>MOL_PROPERTY
Tether
SciTegic.value.DoubleValue
0.000

@<TRIPOS>MOLECULE
guest-s12_vm2.mol2 : vm2 ligand conformer 11
          26          25           1
SMALL
USER_CHARGES
 
@<TRIPOS>ATOM
       1    N1      20.019232   18.752930   26.416712 N.4        1 MOL1        -0.4857
       2    H1      21.021593   18.580147   26.590739 H          1 MOL1         0.3650
       3    H2      19.573790   17.822212   26.431059 H          1 MOL1         0.3650
       4    C1      19.828336   19.403212   25.061171 C.3        1 MOL1         0.0209
       5    H3      20.320072   20.378978   25.085175 H          1 MOL1         0.0967
       6    H4      18.757068   19.561006   24.912916 H          1 MOL1         0.0967
       7    C2      20.394307   18.566457   23.899461 C.3        1 MOL1        -0.1378
       8    H5      21.467078   18.396253   24.061413 H          1 MOL1         0.0993
       9    H6      19.909254   17.581223   23.888853 H          1 MOL1         0.0993
      10    C3      20.177336   19.267330   22.539944 C.3        1 MOL1        -0.1338
      11    H7      20.662423   20.253249   22.554827 H          1 MOL1         0.0993
      12    H8      19.103165   19.442592   22.394320 H          1 MOL1         0.0993
      13    C4      20.739939   18.431247   21.365071 C.3        1 MOL1        -0.1338
      14    H9      21.797196   18.204019   21.560016 H          1 MOL1         0.0993
      15    H10     20.220482   17.464247   21.315754 H          1 MOL1         0.0993
      16    C5      20.635720   19.143931   19.994789 C.3        1 MOL1        -0.1313
      17    H11     21.149604   18.532728   19.239646 H          1 MOL1         0.0993
      18    H12     21.173408   20.101707   20.031948 H          1 MOL1         0.0993
      19    C6      19.179405   19.382800   19.534814 C.3        1 MOL1        -0.2328
      20    H13     18.611489   18.443565   19.517270 H          1 MOL1         0.1004
      21    H14     19.161005   19.804589   18.521557 H          1 MOL1         0.1004
      22    H15     18.658355   20.087879   20.194174 H          1 MOL1         0.1004
      23    C7      19.433725   19.642093   27.505039 C.3        1 MOL1        -0.0781
      24    H16     19.942899   20.608290   27.492020 H          1 MOL1         0.0978
      25    H17     18.366906   19.783313   27.318165 H          1 MOL1         0.0978
      26    H18     19.577822   19.162263   28.475682 H          1 MOL1         0.0978
@<TRIPOS>BOND
    1     1     2    1
    2     1     3    1
    3     1     4    1
    4     4     5    1
    5     4     6    1
    6     4     7    1
    7     7     8    1
    8     7     9    1
    9     7    10    1
   10    10    11    1
   11    10    12    1
   12    10    13    1
   13    13    14    1
   14    13    15    1
   15    13    16    1
   16    16    17    1
   17    16    18    1
   18    16    19    1
   19    19    20    1
   20    19    21    1
   21    19    22    1
   22     1    23    1
   23    23    24    1
   24    23    25    1
   25    23    26    1
@<TRIPOS>SUBSTRUCTURE
       1 MOL1            1 RESIDUE      1      MOL     
@<SCITEGIC>MOL_PROPERTY
VM2 Rank
SciTegic.value.IntegerValue
11

@<SCITEGIC>MOL_PROPERTY
Conf_Id
SciTegic.value.IntegerValue
472

@<SCITEGIC>MOL_PROPERTY
Probability
SciTegic.value.DoubleValue
2.13

@<SCITEGIC>MOL_PROPERTY
Sum Probability
SciTegic.value.DoubleValue
35.15

@<SCITEGIC>MOL_PROPERTY
Delta G
SciTegic.value.DoubleValue
0.684

@<SCITEGIC>MOL_PROPERTY
G
SciTegic.value.DoubleValue
76.150

@<SCITEGIC>MOL_PROPERTY
E
SciTegic.value.DoubleValue
43.878

@<SCITEGIC>MOL_PROPERTY
-TS
SciTegic.value.DoubleValue
32.272

@<SCITEGIC>MOL_PROPERTY
U+W
SciTegic.value.DoubleValue
22.416

@<SCITEGIC>MOL_PROPERTY
U
SciTegic.value.DoubleValue
71.035

@<SCITEGIC>MOL_PROPERTY
W
SciTegic.value.DoubleValue
-48.619

@<SCITEGIC>MOL_PROPERTY
W(PB)
SciTegic.value.DoubleValue
-50.943

@<SCITEGIC>MOL_PROPERTY
W(SA)
SciTegic.value.DoubleValue
2.325

@<SCITEGIC>MOL_PROPERTY
Valence
SciTegic.value.DoubleValue
2.223

@<SCITEGIC>MOL_PROPERTY
Coulomb
SciTegic.value.DoubleValue
68.516

@<SCITEGIC>MOL_PROPERTY
VdW
SciTegic.value.DoubleValue
0.297

@<SCITEGIC>MOL_PROPERTY
VdW6
SciTegic.value.DoubleValue
-5.882

@<SCITEGIC>MOL_PROPERTY
VdW12
SciTegic.value.DoubleValue
6.178

@<SCITEGIC>MOL_PROPERTY
Bond
SciTegic.value.DoubleValue
0.162

@<SCITEGIC>MOL_PROPERTY
Angle
SciTegic.value.DoubleValue
0.596

@<SCITEGIC>MOL_PROPERTY
Pdih
SciTegic.value.DoubleValue
1.465

@<SCITEGIC>MOL_PROPERTY
Idih
SciTegic.value.DoubleValue
0.000

@<SCITEGIC>MOL_PROPERTY
Tether
SciTegic.value.DoubleValue
0.000

@<TRIPOS>MOLECULE
guest-s12_vm2.mol2 : vm2 ligand conformer 12
          26          25           1
SMALL
USER_CHARGES
 
@<TRIPOS>ATOM
       1    N1      20.443585   18.870031   26.355363 N.4        1 MOL1        -0.4857
       2    H1      20.577580   19.783097   26.816677 H          1 MOL1         0.3650
       3    H2      21.154300   18.251539   26.777587 H          1 MOL1         0.3650
       4    C1      20.698352   18.993108   24.862527 C.3        1 MOL1         0.0209
       5    H3      20.506365   18.017661   24.409426 H          1 MOL1         0.0967
       6    H4      21.758189   19.225940   24.731619 H          1 MOL1         0.0967
       7    C2      19.856288   20.077563   24.157120 C.3        1 MOL1        -0.1378
       8    H5      18.788291   19.839869   24.244980 H          1 MOL1         0.0993
       9    H6      20.007683   21.037338   24.668484 H          1 MOL1         0.0993
      10    C3      20.225643   20.240133   22.663785 C.3        1 MOL1        -0.1338
      11    H7      21.288008   20.507132   22.575893 H          1 MOL1         0.0993
      12    H8      19.658057   21.085388   22.250451 H          1 MOL1         0.0993
      13    C4      19.934172   18.972359   21.824993 C.3        1 MOL1        -0.1338
      14    H9      20.531802   18.129770   22.197783 H          1 MOL1         0.0993
      15    H10     18.878674   18.689795   21.941289 H          1 MOL1         0.0993
      16    C5      20.245608   19.190518   20.327481 C.3        1 MOL1        -0.1313
      17    H11     21.300465   19.473996   20.205349 H          1 MOL1         0.0993
      18    H12     19.646231   20.026937   19.941303 H          1 MOL1         0.0993
      19    C6      19.955604   17.925123   19.492250 C.3        1 MOL1        -0.2328
      20    H13     20.566687   17.078799   19.832111 H          1 MOL1         0.1004
      21    H14     20.182283   18.099771   18.432467 H          1 MOL1         0.1004
      22    H15     18.899231   17.635908   19.567297 H          1 MOL1         0.1004
      23    C7      19.048748   18.321164   26.633481 C.3        1 MOL1        -0.0781
      24    H16     18.943225   17.347691   26.149697 H          1 MOL1         0.0978
      25    H17     18.916091   18.213019   27.712273 H          1 MOL1         0.0978
      26    H18     18.302223   19.013819   26.239800 H          1 MOL1         0.0978
@<TRIPOS>BOND
    1     1     2    1
    2     1     3    1
    3     1     4    1
    4     4     5    1
    5     4     6    1
    6     4     7    1
    7     7     8    1
    8     7     9    1
    9     7    10    1
   10    10    11    1
   11    10    12    1
   12    10    13    1
   13    13    14    1
   14    13    15    1
   15    13    16    1
   16    16    17    1
   17    16    18    1
   18    16    19    1
   19    19    20    1
   20    19    21    1
   21    19    22    1
   22     1    23    1
   23    23    24    1
   24    23    25    1
   25    23    26    1
@<TRIPOS>SUBSTRUCTURE
       1 MOL1            1 RESIDUE      1      MOL     
@<SCITEGIC>MOL_PROPERTY
VM2 Rank
SciTegic.value.IntegerValue
12

@<SCITEGIC>MOL_PROPERTY
Conf_Id
SciTegic.value.IntegerValue
1545

@<SCITEGIC>MOL_PROPERTY
Probability
SciTegic.value.DoubleValue
1.93

@<SCITEGIC>MOL_PROPERTY
Sum Probability
SciTegic.value.DoubleValue
37.08

@<SCITEGIC>MOL_PROPERTY
Delta G
SciTegic.value.DoubleValue
0.741

@<SCITEGIC>MOL_PROPERTY
G
SciTegic.value.DoubleValue
76.208

@<SCITEGIC>MOL_PROPERTY
E
SciTegic.value.DoubleValue
43.782

@<SCITEGIC>MOL_PROPERTY
-TS
SciTegic.value.DoubleValue
32.426

@<SCITEGIC>MOL_PROPERTY
U+W
SciTegic.value.DoubleValue
22.320

@<SCITEGIC>MOL_PROPERTY
U
SciTegic.value.DoubleValue
71.511

@<SCITEGIC>MOL_PROPERTY
W
SciTegic.value.DoubleValue
-49.191

@<SCITEGIC>MOL_PROPERTY
W(PB)
SciTegic.value.DoubleValue
-51.480

@<SCITEGIC>MOL_PROPERTY
W(SA)
SciTegic.value.DoubleValue
2.288

@<SCITEGIC>MOL_PROPERTY
Valence
SciTegic.value.DoubleValue
2.291

@<SCITEGIC>MOL_PROPERTY
Coulomb
SciTegic.value.DoubleValue
68.784

@<SCITEGIC>MOL_PROPERTY
VdW
SciTegic.value.DoubleValue
0.437

@<SCITEGIC>MOL_PROPERTY
VdW6
SciTegic.value.DoubleValue
-6.615

@<SCITEGIC>MOL_PROPERTY
VdW12
SciTegic.value.DoubleValue
7.052

@<SCITEGIC>MOL_PROPERTY
Bond
SciTegic.value.DoubleValue
0.185

@<SCITEGIC>MOL_PROPERTY
Angle
SciTegic.value.DoubleValue
0.586

@<SCITEGIC>MOL_PROPERTY
Pdih
SciTegic.value.DoubleValue
1.520

@<SCITEGIC>MOL_PROPERTY
Idih
SciTegic.value.DoubleValue
0.000

@<SCITEGIC>MOL_PROPERTY
Tether
SciTegic.value.DoubleValue
0.000

@<TRIPOS>MOLECULE
guest-s12_vm2.mol2 : vm2 ligand conformer 13
          26          25           1
SMALL
USER_CHARGES
 
@<TRIPOS>ATOM
       1    N1      19.492705   18.773986   26.321595 N.4        1 MOL1        -0.4857
       2    H1      18.891985   18.022937   26.697069 H          1 MOL1         0.3650
       3    H2      19.146672   19.638553   26.765713 H          1 MOL1         0.3650
       4    C1      19.324452   18.854198   24.813657 C.3        1 MOL1         0.0209
       5    H3      18.251394   18.871745   24.606683 H          1 MOL1         0.0967
       6    H4      19.738704   17.939892   24.382266 H          1 MOL1         0.0967
       7    C2      19.980763   20.089803   24.161547 C.3        1 MOL1        -0.1378
       8    H5      19.605626   20.996428   24.654379 H          1 MOL1         0.0993
       9    H6      21.065869   20.069126   24.325722 H          1 MOL1         0.0993
      10    C3      19.691984   20.186264   22.644904 C.3        1 MOL1        -0.1338
      11    H7      20.107329   21.130598   22.266516 H          1 MOL1         0.0993
      12    H8      18.606540   20.236902   22.480941 H          1 MOL1         0.0993
      13    C4      20.288185   19.008025   21.837395 C.3        1 MOL1        -0.1338
      14    H9      21.368048   18.940615   22.029218 H          1 MOL1         0.0993
      15    H10     19.845851   18.060605   22.173296 H          1 MOL1         0.0993
      16    C5      20.045037   19.170455   20.320284 C.3        1 MOL1        -0.1313
      17    H11     20.491314   20.112227   19.971165 H          1 MOL1         0.0993
      18    H12     18.966028   19.239021   20.122702 H          1 MOL1         0.0993
      19    C6      20.638942   17.994156   19.516212 C.3        1 MOL1        -0.2328
      20    H13     21.723879   17.920648   19.666913 H          1 MOL1         0.1004
      21    H14     20.456621   18.127664   18.441986 H          1 MOL1         0.1004
      22    H15     20.186480   17.040673   19.818438 H          1 MOL1         0.1004
      23    C7      20.945931   18.513112   26.701405 C.3        1 MOL1        -0.0781
      24    H16     21.277838   17.583845   26.233291 H          1 MOL1         0.0978
      25    H17     21.564787   19.343815   26.356430 H          1 MOL1         0.0978
      26    H18     21.021034   18.426036   27.787620 H          1 MOL1         0.0978
@<TRIPOS>BOND
    1     1     2    1
    2     1     3    1
    3     1     4    1
    4     4     5    1
    5     4     6    1
    6     4     7    1
    7     7     8    1
    8     7     9    1
    9     7    10    1
   10    10    11    1
   11    10    12    1
   12    10    13    1
   13    13    14    1
   14    13    15    1
   15    13    16    1
   16    16    17    1
   17    16    18    1
   18    16    19    1
   19    19    20    1
   20    19    21    1
   21    19    22    1
   22     1    23    1
   23    23    24    1
   24    23    25    1
   25    23    26    1
@<TRIPOS>SUBSTRUCTURE
       1 MOL1            1 RESIDUE      1      MOL     
@<SCITEGIC>MOL_PROPERTY
VM2 Rank
SciTegic.value.IntegerValue
13

@<SCITEGIC>MOL_PROPERTY
Conf_Id
SciTegic.value.IntegerValue
781

@<SCITEGIC>MOL_PROPERTY
Probability
SciTegic.value.DoubleValue
1.93

@<SCITEGIC>MOL_PROPERTY
Sum Probability
SciTegic.value.DoubleValue
39.01

@<SCITEGIC>MOL_PROPERTY
Delta G
SciTegic.value.DoubleValue
0.742

@<SCITEGIC>MOL_PROPERTY
G
SciTegic.value.DoubleValue
76.209

@<SCITEGIC>MOL_PROPERTY
E
SciTegic.value.DoubleValue
43.783

@<SCITEGIC>MOL_PROPERTY
-TS
SciTegic.value.DoubleValue
32.426

@<SCITEGIC>MOL_PROPERTY
U+W
SciTegic.value.DoubleValue
22.321

@<SCITEGIC>MOL_PROPERTY
U
SciTegic.value.DoubleValue
71.511

@<SCITEGIC>MOL_PROPERTY
W
SciTegic.value.DoubleValue
-49.191

@<SCITEGIC>MOL_PROPERTY
W(PB)
SciTegic.value.DoubleValue
-51.480

@<SCITEGIC>MOL_PROPERTY
W(SA)
SciTegic.value.DoubleValue
2.289

@<SCITEGIC>MOL_PROPERTY
Valence
SciTegic.value.DoubleValue
2.291

@<SCITEGIC>MOL_PROPERTY
Coulomb
SciTegic.value.DoubleValue
68.784

@<SCITEGIC>MOL_PROPERTY
VdW
SciTegic.value.DoubleValue
0.437

@<SCITEGIC>MOL_PROPERTY
VdW6
SciTegic.value.DoubleValue
-6.615

@<SCITEGIC>MOL_PROPERTY
VdW12
SciTegic.value.DoubleValue
7.052

@<SCITEGIC>MOL_PROPERTY
Bond
SciTegic.value.DoubleValue
0.185

@<SCITEGIC>MOL_PROPERTY
Angle
SciTegic.value.DoubleValue
0.586

@<SCITEGIC>MOL_PROPERTY
Pdih
SciTegic.value.DoubleValue
1.520

@<SCITEGIC>MOL_PROPERTY
Idih
SciTegic.value.DoubleValue
0.000

@<SCITEGIC>MOL_PROPERTY
Tether
SciTegic.value.DoubleValue
0.000

@<TRIPOS>MOLECULE
guest-s12_vm2.mol2 : vm2 ligand conformer 14
          26          25           1
SMALL
USER_CHARGES
 
@<TRIPOS>ATOM
       1    N1      19.553568   18.550769   26.183618 N.4        1 MOL1        -0.4857
       2    H1      20.070815   17.658144   26.206673 H          1 MOL1         0.3650
       3    H2      18.585718   18.300766   25.927557 H          1 MOL1         0.3650
       4    C1      20.149329   19.473526   25.139344 C.3        1 MOL1         0.0209
       5    H3      21.172990   19.706668   25.443070 H          1 MOL1         0.0967
       6    H4      19.570081   20.400331   25.141166 H          1 MOL1         0.0967
       7    C2      20.154099   18.868658   23.723652 C.3        1 MOL1        -0.1378
       8    H5      20.723432   17.929671   23.730327 H          1 MOL1         0.0993
       9    H6      19.124025   18.621526   23.437764 H          1 MOL1         0.0993
      10    C3      20.772937   19.845812   22.696318 C.3        1 MOL1        -0.1338
      11    H7      21.771685   20.143938   23.044737 H          1 MOL1         0.0993
      12    H8      20.174578   20.766549   22.653500 H          1 MOL1         0.0993
      13    C4      20.907689   19.247693   21.274067 C.3        1 MOL1        -0.1338
      14    H9      21.458813   19.962208   20.647026 H          1 MOL1         0.0993
      15    H10     21.521009   18.336872   21.313887 H          1 MOL1         0.0993
      16    C5      19.549755   18.933298   20.602272 C.3        1 MOL1        -0.1313
      17    H11     18.915681   19.830908   20.608624 H          1 MOL1         0.0993
      18    H12     19.014569   18.161209   21.170759 H          1 MOL1         0.0993
      19    C6      19.732781   18.447106   19.148605 C.3        1 MOL1        -0.2328
      20    H13     20.338741   17.532415   19.111717 H          1 MOL1         0.1004
      21    H14     20.229048   19.210837   18.535721 H          1 MOL1         0.1004
      22    H15     18.760979   18.225986   18.688464 H          1 MOL1         0.1004
      23    C7      19.587844   19.223139   27.549124 C.3        1 MOL1        -0.0781
      24    H16     19.156227   18.548244   28.291667 H          1 MOL1         0.0978
      25    H17     20.623644   19.447874   27.812899 H          1 MOL1         0.0978
      26    H18     19.007186   20.147365   27.509059 H          1 MOL1         0.0978
@<TRIPOS>BOND
    1     1     2    1
    2     1     3    1
    3     1     4    1
    4     4     5    1
    5     4     6    1
    6     4     7    1
    7     7     8    1
    8     7     9    1
    9     7    10    1
   10    10    11    1
   11    10    12    1
   12    10    13    1
   13    13    14    1
   14    13    15    1
   15    13    16    1
   16    16    17    1
   17    16    18    1
   18    16    19    1
   19    19    20    1
   20    19    21    1
   21    19    22    1
   22     1    23    1
   23    23    24    1
   24    23    25    1
   25    23    26    1
@<TRIPOS>SUBSTRUCTURE
       1 MOL1            1 RESIDUE      1      MOL     
@<SCITEGIC>MOL_PROPERTY
VM2 Rank
SciTegic.value.IntegerValue
14

@<SCITEGIC>MOL_PROPERTY
Conf_Id
SciTegic.value.IntegerValue
951

@<SCITEGIC>MOL_PROPERTY
Probability
SciTegic.value.DoubleValue
1.88

@<SCITEGIC>MOL_PROPERTY
Sum Probability
SciTegic.value.DoubleValue
40.89

@<SCITEGIC>MOL_PROPERTY
Delta G
SciTegic.value.DoubleValue
0.758

@<SCITEGIC>MOL_PROPERTY
G
SciTegic.value.DoubleValue
76.224

@<SCITEGIC>MOL_PROPERTY
E
SciTegic.value.DoubleValue
43.964

@<SCITEGIC>MOL_PROPERTY
-TS
SciTegic.value.DoubleValue
32.261

@<SCITEGIC>MOL_PROPERTY
U+W
SciTegic.value.DoubleValue
22.502

@<SCITEGIC>MOL_PROPERTY
U
SciTegic.value.DoubleValue
71.349

@<SCITEGIC>MOL_PROPERTY
W
SciTegic.value.DoubleValue
-48.847

@<SCITEGIC>MOL_PROPERTY
W(PB)
SciTegic.value.DoubleValue
-51.158

@<SCITEGIC>MOL_PROPERTY
W(SA)
SciTegic.value.DoubleValue
2.311

@<SCITEGIC>MOL_PROPERTY
Valence
SciTegic.value.DoubleValue
2.261

@<SCITEGIC>MOL_PROPERTY
Coulomb
SciTegic.value.DoubleValue
68.807

@<SCITEGIC>MOL_PROPERTY
VdW
SciTegic.value.DoubleValue
0.280

@<SCITEGIC>MOL_PROPERTY
VdW6
SciTegic.value.DoubleValue
-5.916

@<SCITEGIC>MOL_PROPERTY
VdW12
SciTegic.value.DoubleValue
6.196

@<SCITEGIC>MOL_PROPERTY
Bond
SciTegic.value.DoubleValue
0.164

@<SCITEGIC>MOL_PROPERTY
Angle
SciTegic.value.DoubleValue
0.622

@<SCITEGIC>MOL_PROPERTY
Pdih
SciTegic.value.DoubleValue
1.475

@<SCITEGIC>MOL_PROPERTY
Idih
SciTegic.value.DoubleValue
0.000

@<SCITEGIC>MOL_PROPERTY
Tether
SciTegic.value.DoubleValue
0.000

@<TRIPOS>MOLECULE
guest-s12_vm2.mol2 : vm2 ligand conformer 15
          26          25           1
SMALL
USER_CHARGES
 
@<TRIPOS>ATOM
       1    N1      20.439756   18.641270   26.215078 N.4        1 MOL1        -0.4857
       2    H1      21.453626   18.593365   26.029128 H          1 MOL1         0.3650
       3    H2      20.112807   17.662538   26.208451 H          1 MOL1         0.3650
       4    C1      19.744683   19.432165   25.124995 C.3        1 MOL1         0.0209
       5    H3      20.123494   20.456730   25.160600 H          1 MOL1         0.0967
       6    H4      18.676342   19.451885   25.354661 H          1 MOL1         0.0967
       7    C2      19.961119   18.848728   23.716864 C.3        1 MOL1        -0.1378
       8    H5      21.037296   18.816528   23.505535 H          1 MOL1         0.0993
       9    H6      19.593905   17.814158   23.690504 H          1 MOL1         0.0993
      10    C3      19.231283   19.688121   22.641705 C.3        1 MOL1        -0.1338
      11    H7      19.632861   20.711012   22.634365 H          1 MOL1         0.0993
      12    H8      18.170990   19.775895   22.917109 H          1 MOL1         0.0993
      13    C4      19.320154   19.085346   21.217815 C.3        1 MOL1        -0.1338
      14    H9      18.902348   18.069092   21.221068 H          1 MOL1         0.0993
      15    H10     18.681279   19.678209   20.548633 H          1 MOL1         0.0993
      16    C5      20.757254   19.056780   20.645044 C.3        1 MOL1        -0.1313
      17    H11     21.396298   18.404712   21.255085 H          1 MOL1         0.0993
      18    H12     21.194771   20.063957   20.689434 H          1 MOL1         0.0993
      19    C6      20.778553   18.554170   19.185606 C.3        1 MOL1        -0.2328
      20    H13     21.804777   18.537407   18.796243 H          1 MOL1         0.1004
      21    H14     20.182306   19.206234   18.534073 H          1 MOL1         0.1004
      22    H15     20.374117   17.536161   19.112838 H          1 MOL1         0.1004
      23    C7      20.175198   19.283417   27.569892 C.3        1 MOL1        -0.0781
      24    H16     19.099502   19.292819   27.758983 H          1 MOL1         0.0978
      25    H17     20.681037   18.704293   28.345707 H          1 MOL1         0.0978
      26    H18     20.558909   20.306009   27.563746 H          1 MOL1         0.0978
@<TRIPOS>BOND
    1     1     2    1
    2     1     3    1
    3     1     4    1
    4     4     5    1
    5     4     6    1
    6     4     7    1
    7     7     8    1
    8     7     9    1
    9     7    10    1
   10    10    11    1
   11    10    12    1
   12    10    13    1
   13    13    14    1
   14    13    15    1
   15    13    16    1
   16    16    17    1
   17    16    18    1
   18    16    19    1
   19    19    20    1
   20    19    21    1
   21    19    22    1
   22     1    23    1
   23    23    24    1
   24    23    25    1
   25    23    26    1
@<TRIPOS>SUBSTRUCTURE
       1 MOL1            1 RESIDUE      1      MOL     
@<SCITEGIC>MOL_PROPERTY
VM2 Rank
SciTegic.value.IntegerValue
15

@<SCITEGIC>MOL_PROPERTY
Conf_Id
SciTegic.value.IntegerValue
489

@<SCITEGIC>MOL_PROPERTY
Probability
SciTegic.value.DoubleValue
1.86

@<SCITEGIC>MOL_PROPERTY
Sum Probability
SciTegic.value.DoubleValue
42.75

@<SCITEGIC>MOL_PROPERTY
Delta G
SciTegic.value.DoubleValue
0.766

@<SCITEGIC>MOL_PROPERTY
G
SciTegic.value.DoubleValue
76.232

@<SCITEGIC>MOL_PROPERTY
E
SciTegic.value.DoubleValue
43.972

@<SCITEGIC>MOL_PROPERTY
-TS
SciTegic.value.DoubleValue
32.261

@<SCITEGIC>MOL_PROPERTY
U+W
SciTegic.value.DoubleValue
22.510

@<SCITEGIC>MOL_PROPERTY
U
SciTegic.value.DoubleValue
71.348

@<SCITEGIC>MOL_PROPERTY
W
SciTegic.value.DoubleValue
-48.839

@<SCITEGIC>MOL_PROPERTY
W(PB)
SciTegic.value.DoubleValue
-51.152

@<SCITEGIC>MOL_PROPERTY
W(SA)
SciTegic.value.DoubleValue
2.313

@<SCITEGIC>MOL_PROPERTY
Valence
SciTegic.value.DoubleValue
2.262

@<SCITEGIC>MOL_PROPERTY
Coulomb
SciTegic.value.DoubleValue
68.807

@<SCITEGIC>MOL_PROPERTY
VdW
SciTegic.value.DoubleValue
0.280

@<SCITEGIC>MOL_PROPERTY
VdW6
SciTegic.value.DoubleValue
-5.915

@<SCITEGIC>MOL_PROPERTY
VdW12
SciTegic.value.DoubleValue
6.195

@<SCITEGIC>MOL_PROPERTY
Bond
SciTegic.value.DoubleValue
0.164

@<SCITEGIC>MOL_PROPERTY
Angle
SciTegic.value.DoubleValue
0.622

@<SCITEGIC>MOL_PROPERTY
Pdih
SciTegic.value.DoubleValue
1.475

@<SCITEGIC>MOL_PROPERTY
Idih
SciTegic.value.DoubleValue
0.000

@<SCITEGIC>MOL_PROPERTY
Tether
SciTegic.value.DoubleValue
0.000

@<TRIPOS>MOLECULE
guest-s12_vm2.mol2 : vm2 ligand conformer 16
          26          25           1
SMALL
USER_CHARGES
 
@<TRIPOS>ATOM
       1    N1      19.632631   18.306229   26.178823 N.4        1 MOL1        -0.4857
       2    H1      20.399217   17.616506   26.211596 H          1 MOL1         0.3650
       3    H2      18.785220   17.774857   26.434691 H          1 MOL1         0.3650
       4    C1      19.481123   18.857184   24.770735 C.3        1 MOL1         0.0209
       5    H3      18.694422   19.615536   24.788775 H          1 MOL1         0.0967
       6    H4      19.143708   18.033008   24.137890 H          1 MOL1         0.0967
       7    C2      20.773300   19.455395   24.174266 C.3        1 MOL1        -0.1378
       8    H5      21.117337   20.284528   24.805737 H          1 MOL1         0.0993
       9    H6      21.569533   18.699453   24.187635 H          1 MOL1         0.0993
      10    C3      20.578329   19.979401   22.731736 C.3        1 MOL1        -0.1338
      11    H7      21.505076   20.473832   22.409023 H          1 MOL1         0.0993
      12    H8      19.796459   20.751597   22.725212 H          1 MOL1         0.0993
      13    C4      20.219229   18.863442   21.720978 C.3        1 MOL1        -0.1338
      14    H9      20.984750   18.075923   21.755960 H          1 MOL1         0.0993
      15    H10     19.266850   18.394238   22.001583 H          1 MOL1         0.0993
      16    C5      20.108755   19.408564   20.279501 C.3        1 MOL1        -0.1313
      17    H11     21.059867   19.873423   19.984078 H          1 MOL1         0.0993
      18    H12     19.344626   20.197519   20.238732 H          1 MOL1         0.0993
      19    C6      19.749255   18.295230   19.272429 C.3        1 MOL1        -0.2328
      20    H13     18.784501   17.834098   19.521023 H          1 MOL1         0.1004
      21    H14     20.513297   17.506942   19.265789 H          1 MOL1         0.1004
      22    H15     19.675940   18.701472   18.255266 H          1 MOL1         0.1004
      23    C7      19.865379   19.424555   27.188531 C.3        1 MOL1        -0.0781
      24    H16     19.930321   18.993501   28.190061 H          1 MOL1         0.0978
      25    H17     20.798038   19.939557   26.949987 H          1 MOL1         0.0978
      26    H18     19.031100   20.127964   27.143455 H          1 MOL1         0.0978
@<TRIPOS>BOND
    1     1     2    1
    2     1     3    1
    3     1     4    1
    4     4     5    1
    5     4     6    1
    6     4     7    1
    7     7     8    1
    8     7     9    1
    9     7    10    1
   10    10    11    1
   11    10    12    1
   12    10    13    1
   13    13    14    1
   14    13    15    1
   15    13    16    1
   16    16    17    1
   17    16    18    1
   18    16    19    1
   19    19    20    1
   20    19    21    1
   21    19    22    1
   22     1    23    1
   23    23    24    1
   24    23    25    1
   25    23    26    1
@<TRIPOS>SUBSTRUCTURE
       1 MOL1            1 RESIDUE      1      MOL     
@<SCITEGIC>MOL_PROPERTY
VM2 Rank
SciTegic.value.IntegerValue
16

@<SCITEGIC>MOL_PROPERTY
Conf_Id
SciTegic.value.IntegerValue
1530

@<SCITEGIC>MOL_PROPERTY
Probability
SciTegic.value.DoubleValue
1.73

@<SCITEGIC>MOL_PROPERTY
Sum Probability
SciTegic.value.DoubleValue
44.47

@<SCITEGIC>MOL_PROPERTY
Delta G
SciTegic.value.DoubleValue
0.809

@<SCITEGIC>MOL_PROPERTY
G
SciTegic.value.DoubleValue
76.275

@<SCITEGIC>MOL_PROPERTY
E
SciTegic.value.DoubleValue
43.847

@<SCITEGIC>MOL_PROPERTY
-TS
SciTegic.value.DoubleValue
32.428

@<SCITEGIC>MOL_PROPERTY
U+W
SciTegic.value.DoubleValue
22.386

@<SCITEGIC>MOL_PROPERTY
U
SciTegic.value.DoubleValue
71.628

@<SCITEGIC>MOL_PROPERTY
W
SciTegic.value.DoubleValue
-49.242

@<SCITEGIC>MOL_PROPERTY
W(PB)
SciTegic.value.DoubleValue
-51.545

@<SCITEGIC>MOL_PROPERTY
W(SA)
SciTegic.value.DoubleValue
2.302

@<SCITEGIC>MOL_PROPERTY
Valence
SciTegic.value.DoubleValue
2.314

@<SCITEGIC>MOL_PROPERTY
Coulomb
SciTegic.value.DoubleValue
68.823

@<SCITEGIC>MOL_PROPERTY
VdW
SciTegic.value.DoubleValue
0.491

@<SCITEGIC>MOL_PROPERTY
VdW6
SciTegic.value.DoubleValue
-6.572

@<SCITEGIC>MOL_PROPERTY
VdW12
SciTegic.value.DoubleValue
7.063

@<SCITEGIC>MOL_PROPERTY
Bond
SciTegic.value.DoubleValue
0.188

@<SCITEGIC>MOL_PROPERTY
Angle
SciTegic.value.DoubleValue
0.606

@<SCITEGIC>MOL_PROPERTY
Pdih
SciTegic.value.DoubleValue
1.519

@<SCITEGIC>MOL_PROPERTY
Idih
SciTegic.value.DoubleValue
0.000

@<SCITEGIC>MOL_PROPERTY
Tether
SciTegic.value.DoubleValue
0.000

@<TRIPOS>MOLECULE
guest-s12_vm2.mol2 : vm2 ligand conformer 17
          26          25           1
SMALL
USER_CHARGES
 
@<TRIPOS>ATOM
       1    N1      20.412119   18.385796   26.206460 N.4        1 MOL1        -0.4857
       2    H1      21.329204   18.034230   26.524714 H          1 MOL1         0.3650
       3    H2      19.799771   17.555599   26.190674 H          1 MOL1         0.3650
       4    C1      20.547508   18.965748   24.808415 C.3        1 MOL1         0.0209
       5    H3      21.087572   18.230953   24.206737 H          1 MOL1         0.0967
       6    H4      21.161923   19.867007   24.875847 H          1 MOL1         0.0967
       7    C2      19.206186   19.295244   24.118745 C.3        1 MOL1        -0.1378
       8    H5      18.579909   18.394121   24.081709 H          1 MOL1         0.0993
       9    H6      18.658602   20.033347   24.718691 H          1 MOL1         0.0993
      10    C3      19.391878   19.858173   22.689719 C.3        1 MOL1        -0.1338
      11    H7      20.000169   20.772395   22.732488 H          1 MOL1         0.0993
      12    H8      18.409306   20.157544   22.299340 H          1 MOL1         0.0993
      13    C4      20.038907   18.845033   21.714606 C.3        1 MOL1        -0.1338
      14    H9      21.044367   18.575855   22.064621 H          1 MOL1         0.0993
      15    H10     19.447696   17.918897   21.701466 H          1 MOL1         0.0993
      16    C5      20.137772   19.411569   20.280566 C.3        1 MOL1        -0.1313
      17    H11     20.727614   20.338952   20.287850 H          1 MOL1         0.0993
      18    H12     19.135452   19.676711   19.915820 H          1 MOL1         0.0993
      19    C6      20.784632   18.401123   19.309218 C.3        1 MOL1        -0.2328
      20    H13     20.845547   18.821091   18.296824 H          1 MOL1         0.1004
      21    H14     20.198058   17.474758   19.254623 H          1 MOL1         0.1004
      22    H15     21.802794   18.142707   19.628219 H          1 MOL1         0.1004
      23    C7      19.888999   19.427314   27.189271 C.3        1 MOL1        -0.0781
      24    H16     19.842393   18.985086   28.186942 H          1 MOL1         0.0978
      25    H17     20.565622   20.284607   27.197413 H          1 MOL1         0.0978
      26    H18     18.890732   19.745599   26.882445 H          1 MOL1         0.0978
@<TRIPOS>BOND
    1     1     2    1
    2     1     3    1
    3     1     4    1
    4     4     5    1
    5     4     6    1
    6     4     7    1
    7     7     8    1
    8     7     9    1
    9     7    10    1
   10    10    11    1
   11    10    12    1
   12    10    13    1
   13    13    14    1
   14    13    15    1
   15    13    16    1
   16    16    17    1
   17    16    18    1
   18    16    19    1
   19    19    20    1
   20    19    21    1
   21    19    22    1
   22     1    23    1
   23    23    24    1
   24    23    25    1
   25    23    26    1
@<TRIPOS>SUBSTRUCTURE
       1 MOL1            1 RESIDUE      1      MOL     
@<SCITEGIC>MOL_PROPERTY
VM2 Rank
SciTegic.value.IntegerValue
17

@<SCITEGIC>MOL_PROPERTY
Conf_Id
SciTegic.value.IntegerValue
1630

@<SCITEGIC>MOL_PROPERTY
Probability
SciTegic.value.DoubleValue
1.63

@<SCITEGIC>MOL_PROPERTY
Sum Probability
SciTegic.value.DoubleValue
46.11

@<SCITEGIC>MOL_PROPERTY
Delta G
SciTegic.value.DoubleValue
0.843

@<SCITEGIC>MOL_PROPERTY
G
SciTegic.value.DoubleValue
76.309

@<SCITEGIC>MOL_PROPERTY
E
SciTegic.value.DoubleValue
43.882

@<SCITEGIC>MOL_PROPERTY
-TS
SciTegic.value.DoubleValue
32.428

@<SCITEGIC>MOL_PROPERTY
U+W
SciTegic.value.DoubleValue
22.420

@<SCITEGIC>MOL_PROPERTY
U
SciTegic.value.DoubleValue
71.628

@<SCITEGIC>MOL_PROPERTY
W
SciTegic.value.DoubleValue
-49.208

@<SCITEGIC>MOL_PROPERTY
W(PB)
SciTegic.value.DoubleValue
-51.516

@<SCITEGIC>MOL_PROPERTY
W(SA)
SciTegic.value.DoubleValue
2.308

@<SCITEGIC>MOL_PROPERTY
Valence
SciTegic.value.DoubleValue
2.314

@<SCITEGIC>MOL_PROPERTY
Coulomb
SciTegic.value.DoubleValue
68.823

@<SCITEGIC>MOL_PROPERTY
VdW
SciTegic.value.DoubleValue
0.491

@<SCITEGIC>MOL_PROPERTY
VdW6
SciTegic.value.DoubleValue
-6.572

@<SCITEGIC>MOL_PROPERTY
VdW12
SciTegic.value.DoubleValue
7.063

@<SCITEGIC>MOL_PROPERTY
Bond
SciTegic.value.DoubleValue
0.188

@<SCITEGIC>MOL_PROPERTY
Angle
SciTegic.value.DoubleValue
0.606

@<SCITEGIC>MOL_PROPERTY
Pdih
SciTegic.value.DoubleValue
1.519

@<SCITEGIC>MOL_PROPERTY
Idih
SciTegic.value.DoubleValue
0.000

@<SCITEGIC>MOL_PROPERTY
Tether
SciTegic.value.DoubleValue
0.000

@<TRIPOS>MOLECULE
guest-s12_vm2.mol2 : vm2 ligand conformer 18
          26          25           1
SMALL
USER_CHARGES
 
@<TRIPOS>ATOM
       1    N1      19.568014   18.575932   26.454275 N.4        1 MOL1        -0.4857
       2    H1      20.045932   17.661793   26.474867 H          1 MOL1         0.3650
       3    H2      18.720964   18.446477   27.030236 H          1 MOL1         0.3650
       4    C1      19.166365   18.926925   25.031362 C.3        1 MOL1         0.0209
       5    H3      18.701213   19.915754   25.047063 H          1 MOL1         0.0967
       6    H4      18.410543   18.201650   24.719312 H          1 MOL1         0.0967
       7    C2      20.326816   18.909219   24.015630 C.3        1 MOL1        -0.1378
       8    H5      21.079847   19.655584   24.299727 H          1 MOL1         0.0993
       9    H6      20.819257   17.928141   24.042294 H          1 MOL1         0.0993
      10    C3      19.826577   19.200689   22.583372 C.3        1 MOL1        -0.1338
      11    H7      19.332236   20.181847   22.561192 H          1 MOL1         0.0993
      12    H8      19.068295   18.455174   22.309645 H          1 MOL1         0.0993
      13    C4      20.982777   19.180079   21.554441 C.3        1 MOL1        -0.1338
      14    H9      21.765436   19.879392   21.879753 H          1 MOL1         0.0993
      15    H10     21.446510   18.184082   21.537493 H          1 MOL1         0.0993
      16    C5      20.541658   19.568857   20.122411 C.3        1 MOL1        -0.1313
      17    H11     21.433886   19.632535   19.483851 H          1 MOL1         0.0993
      18    H12     20.097576   20.574120   20.130161 H          1 MOL1         0.0993
      19    C6      19.548388   18.566580   19.491269 C.3        1 MOL1        -0.2328
      20    H13     19.340438   18.837334   18.448014 H          1 MOL1         0.1004
      21    H14     18.590495   18.556741   20.025805 H          1 MOL1         0.1004
      22    H15     19.957148   17.547824   19.498077 H          1 MOL1         0.1004
      23    C7      20.447405   19.661719   27.064239 C.3        1 MOL1        -0.0781
      24    H16     21.370138   19.746929   26.486874 H          1 MOL1         0.0978
      25    H17     19.909087   20.611832   27.045731 H          1 MOL1         0.0978
      26    H18     20.683831   19.392043   28.095971 H          1 MOL1         0.0978
@<TRIPOS>BOND
    1     1     2    1
    2     1     3    1
    3     1     4    1
    4     4     5    1
    5     4     6    1
    6     4     7    1
    7     7     8    1
    8     7     9    1
    9     7    10    1
   10    10    11    1
   11    10    12    1
   12    10    13    1
   13    13    14    1
   14    13    15    1
   15    13    16    1
   16    16    17    1
   17    16    18    1
   18    16    19    1
   19    19    20    1
   20    19    21    1
   21    19    22    1
   22     1    23    1
   23    23    24    1
   24    23    25    1
   25    23    26    1
@<TRIPOS>SUBSTRUCTURE
       1 MOL1            1 RESIDUE      1      MOL     
@<SCITEGIC>MOL_PROPERTY
VM2 Rank
SciTegic.value.IntegerValue
18

@<SCITEGIC>MOL_PROPERTY
Conf_Id
SciTegic.value.IntegerValue
816

@<SCITEGIC>MOL_PROPERTY
Probability
SciTegic.value.DoubleValue
1.47

@<SCITEGIC>MOL_PROPERTY
Sum Probability
SciTegic.value.DoubleValue
47.58

@<SCITEGIC>MOL_PROPERTY
Delta G
SciTegic.value.DoubleValue
0.904

@<SCITEGIC>MOL_PROPERTY
G
SciTegic.value.DoubleValue
76.370

@<SCITEGIC>MOL_PROPERTY
E
SciTegic.value.DoubleValue
43.927

@<SCITEGIC>MOL_PROPERTY
-TS
SciTegic.value.DoubleValue
32.443

@<SCITEGIC>MOL_PROPERTY
U+W
SciTegic.value.DoubleValue
22.465

@<SCITEGIC>MOL_PROPERTY
U
SciTegic.value.DoubleValue
71.429

@<SCITEGIC>MOL_PROPERTY
W
SciTegic.value.DoubleValue
-48.964

@<SCITEGIC>MOL_PROPERTY
W(PB)
SciTegic.value.DoubleValue
-51.236

@<SCITEGIC>MOL_PROPERTY
W(SA)
SciTegic.value.DoubleValue
2.272

@<SCITEGIC>MOL_PROPERTY
Valence
SciTegic.value.DoubleValue
2.501

@<SCITEGIC>MOL_PROPERTY
Coulomb
SciTegic.value.DoubleValue
68.364

@<SCITEGIC>MOL_PROPERTY
VdW
SciTegic.value.DoubleValue
0.564

@<SCITEGIC>MOL_PROPERTY
VdW6
SciTegic.value.DoubleValue
-6.585

@<SCITEGIC>MOL_PROPERTY
VdW12
SciTegic.value.DoubleValue
7.149

@<SCITEGIC>MOL_PROPERTY
Bond
SciTegic.value.DoubleValue
0.197

@<SCITEGIC>MOL_PROPERTY
Angle
SciTegic.value.DoubleValue
0.716

@<SCITEGIC>MOL_PROPERTY
Pdih
SciTegic.value.DoubleValue
1.588

@<SCITEGIC>MOL_PROPERTY
Idih
SciTegic.value.DoubleValue
0.000

@<SCITEGIC>MOL_PROPERTY
Tether
SciTegic.value.DoubleValue
0.000

@<TRIPOS>MOLECULE
guest-s12_vm2.mol2 : vm2 ligand conformer 19
          26          25           1
SMALL
USER_CHARGES
 
@<TRIPOS>ATOM
       1    N1      19.477466   19.168814   26.494101 N.4        1 MOL1        -0.4857
       2    H1      19.086100   18.221026   26.608186 H          1 MOL1         0.3650
       3    H2      18.899727   19.770362   27.102657 H          1 MOL1         0.3650
       4    C1      19.339518   19.624001   25.050857 C.3        1 MOL1         0.0209
       5    H3      19.799775   20.611417   24.963868 H          1 MOL1         0.0967
       6    H4      18.271310   19.728477   24.844247 H          1 MOL1         0.0967
       7    C2      19.958298   18.663686   24.014731 C.3        1 MOL1        -0.1378
       8    H5      21.037989   18.573090   24.190612 H          1 MOL1         0.0993
       9    H6      19.525706   17.662613   24.142798 H          1 MOL1         0.0993
      10    C3      19.711800   19.156848   22.571627 C.3        1 MOL1        -0.1338
      11    H7      20.137545   20.162753   22.459203 H          1 MOL1         0.0993
      12    H8      18.630942   19.246034   22.394689 H          1 MOL1         0.0993
      13    C4      20.330874   18.201189   21.523121 C.3        1 MOL1        -0.1338
      14    H9      21.419272   18.149870   21.664904 H          1 MOL1         0.0993
      15    H10     19.949165   17.185045   21.693924 H          1 MOL1         0.0993
      16    C5      20.018932   18.603392   20.061153 C.3        1 MOL1        -0.1313
      17    H11     18.931083   18.633870   19.907929 H          1 MOL1         0.0993
      18    H12     20.401324   17.820713   19.391024 H          1 MOL1         0.0993
      19    C6      20.640013   19.957878   19.649920 C.3        1 MOL1        -0.2328
      20    H13     20.468054   20.151108   18.583139 H          1 MOL1         0.1004
      21    H14     21.724294   19.963594   19.821083 H          1 MOL1         0.1004
      22    H15     20.198615   20.791113   20.210521 H          1 MOL1         0.1004
      23    C7      20.931100   19.214192   26.951490 C.3        1 MOL1        -0.0781
      24    H16     21.311670   20.231480   26.836875 H          1 MOL1         0.0978
      25    H17     20.984642   18.916673   28.001113 H          1 MOL1         0.0978
      26    H18     21.523098   18.526158   26.344697 H          1 MOL1         0.0978
@<TRIPOS>BOND
    1     1     2    1
    2     1     3    1
    3     1     4    1
    4     4     5    1
    5     4     6    1
    6     4     7    1
    7     7     8    1
    8     7     9    1
    9     7    10    1
   10    10    11    1
   11    10    12    1
   12    10    13    1
   13    13    14    1
   14    13    15    1
   15    13    16    1
   16    16    17    1
   17    16    18    1
   18    16    19    1
   19    19    20    1
   20    19    21    1
   21    19    22    1
   22     1    23    1
   23    23    24    1
   24    23    25    1
   25    23    26    1
@<TRIPOS>SUBSTRUCTURE
       1 MOL1            1 RESIDUE      1      MOL     
@<SCITEGIC>MOL_PROPERTY
VM2 Rank
SciTegic.value.IntegerValue
19

@<SCITEGIC>MOL_PROPERTY
Conf_Id
SciTegic.value.IntegerValue
1216

@<SCITEGIC>MOL_PROPERTY
Probability
SciTegic.value.DoubleValue
1.41

@<SCITEGIC>MOL_PROPERTY
Sum Probability
SciTegic.value.DoubleValue
48.99

@<SCITEGIC>MOL_PROPERTY
Delta G
SciTegic.value.DoubleValue
0.929

@<SCITEGIC>MOL_PROPERTY
G
SciTegic.value.DoubleValue
76.395

@<SCITEGIC>MOL_PROPERTY
E
SciTegic.value.DoubleValue
43.952

@<SCITEGIC>MOL_PROPERTY
-TS
SciTegic.value.DoubleValue
32.443

@<SCITEGIC>MOL_PROPERTY
U+W
SciTegic.value.DoubleValue
22.491

@<SCITEGIC>MOL_PROPERTY
U
SciTegic.value.DoubleValue
71.422

@<SCITEGIC>MOL_PROPERTY
W
SciTegic.value.DoubleValue
-48.931

@<SCITEGIC>MOL_PROPERTY
W(PB)
SciTegic.value.DoubleValue
-51.230

@<SCITEGIC>MOL_PROPERTY
W(SA)
SciTegic.value.DoubleValue
2.299

@<SCITEGIC>MOL_PROPERTY
Valence
SciTegic.value.DoubleValue
2.501

@<SCITEGIC>MOL_PROPERTY
Coulomb
SciTegic.value.DoubleValue
68.359

@<SCITEGIC>MOL_PROPERTY
VdW
SciTegic.value.DoubleValue
0.562

@<SCITEGIC>MOL_PROPERTY
VdW6
SciTegic.value.DoubleValue
-6.587

@<SCITEGIC>MOL_PROPERTY
VdW12
SciTegic.value.DoubleValue
7.149

@<SCITEGIC>MOL_PROPERTY
Bond
SciTegic.value.DoubleValue
0.197

@<SCITEGIC>MOL_PROPERTY
Angle
SciTegic.value.DoubleValue
0.717

@<SCITEGIC>MOL_PROPERTY
Pdih
SciTegic.value.DoubleValue
1.587

@<SCITEGIC>MOL_PROPERTY
Idih
SciTegic.value.DoubleValue
0.000

@<SCITEGIC>MOL_PROPERTY
Tether
SciTegic.value.DoubleValue
0.000

@<TRIPOS>MOLECULE
guest-s12_vm2.mol2 : vm2 ligand conformer 20
          26          25           1
SMALL
USER_CHARGES
 
@<TRIPOS>ATOM
       1    N1      20.367414   19.260060   26.525655 N.4        1 MOL1        -0.4857
       2    H1      20.767094   19.961836   27.168888 H          1 MOL1         0.3650
       3    H2      20.933802   18.410488   26.673704 H          1 MOL1         0.3650
       4    C1      20.511066   19.744139   25.092406 C.3        1 MOL1         0.0209
       5    H3      21.547700   20.064534   24.960468 H          1 MOL1         0.0967
       6    H4      19.867406   20.618314   24.966260 H          1 MOL1         0.0967
       7    C2      20.174081   18.685783   24.022370 C.3        1 MOL1        -0.1378
       8    H5      20.790685   17.792371   24.187595 H          1 MOL1         0.0993
       9    H6      19.125601   18.376795   24.122820 H          1 MOL1         0.0993
      10    C3      20.415886   19.229107   22.596590 C.3        1 MOL1        -0.1338
      11    H7      21.465845   19.537035   22.495194 H          1 MOL1         0.0993
      12    H8      19.803833   20.128482   22.447411 H          1 MOL1         0.0993
      13    C4      20.078634   18.175296   21.514161 C.3        1 MOL1        -0.1338
      14    H9      20.645855   17.256629   21.718457 H          1 MOL1         0.0993
      15    H10     19.016146   17.902991   21.579845 H          1 MOL1         0.0993
      16    C5      20.403822   18.643069   20.074761 C.3        1 MOL1        -0.1313
      17    H11     20.236288   17.803884   19.385135 H          1 MOL1         0.0993
      18    H12     21.470775   18.895083   19.997795 H          1 MOL1         0.0993
      19    C6      19.550754   19.846011   19.611412 C.3        1 MOL1        -0.2328
      20    H13     19.773219   20.747464   20.195601 H          1 MOL1         0.1004
      21    H14     18.478678   19.629979   19.706176 H          1 MOL1         0.1004
      22    H15     19.754106   20.077921   18.557943 H          1 MOL1         0.1004
      23    C7      18.906342   19.006536   26.879644 C.3        1 MOL1        -0.0781
      24    H16     18.336452   19.926352   26.731290 H          1 MOL1         0.0978
      25    H17     18.510155   18.217153   26.237802 H          1 MOL1         0.0978
      26    H18     18.840747   18.696817   27.925045 H          1 MOL1         0.0978
@<TRIPOS>BOND
    1     1     2    1
    2     1     3    1
    3     1     4    1
    4     4     5    1
    5     4     6    1
    6     4     7    1
    7     7     8    1
    8     7     9    1
    9     7    10    1
   10    10    11    1
   11    10    12    1
   12    10    13    1
   13    13    14    1
   14    13    15    1
   15    13    16    1
   16    16    17    1
   17    16    18    1
   18    16    19    1
   19    19    20    1
   20    19    21    1
   21    19    22    1
   22     1    23    1
   23    23    24    1
   24    23    25    1
   25    23    26    1
@<TRIPOS>SUBSTRUCTURE
       1 MOL1            1 RESIDUE      1      MOL     
@<SCITEGIC>MOL_PROPERTY
VM2 Rank
SciTegic.value.IntegerValue
20

@<SCITEGIC>MOL_PROPERTY
Conf_Id
SciTegic.value.IntegerValue
1367

@<SCITEGIC>MOL_PROPERTY
Probability
SciTegic.value.DoubleValue
1.41

@<SCITEGIC>MOL_PROPERTY
Sum Probability
SciTegic.value.DoubleValue
50.40

@<SCITEGIC>MOL_PROPERTY
Delta G
SciTegic.value.DoubleValue
0.931

@<SCITEGIC>MOL_PROPERTY
G
SciTegic.value.DoubleValue
76.398

@<SCITEGIC>MOL_PROPERTY
E
SciTegic.value.DoubleValue
43.955

@<SCITEGIC>MOL_PROPERTY
-TS
SciTegic.value.DoubleValue
32.443

@<SCITEGIC>MOL_PROPERTY
U+W
SciTegic.value.DoubleValue
22.493

@<SCITEGIC>MOL_PROPERTY
U
SciTegic.value.DoubleValue
71.422

@<SCITEGIC>MOL_PROPERTY
W
SciTegic.value.DoubleValue
-48.929

@<SCITEGIC>MOL_PROPERTY
W(PB)
SciTegic.value.DoubleValue
-51.221

@<SCITEGIC>MOL_PROPERTY
W(SA)
SciTegic.value.DoubleValue
2.292

@<SCITEGIC>MOL_PROPERTY
Valence
SciTegic.value.DoubleValue
2.501

@<SCITEGIC>MOL_PROPERTY
Coulomb
SciTegic.value.DoubleValue
68.359

@<SCITEGIC>MOL_PROPERTY
VdW
SciTegic.value.DoubleValue
0.562

@<SCITEGIC>MOL_PROPERTY
VdW6
SciTegic.value.DoubleValue
-6.587

@<SCITEGIC>MOL_PROPERTY
VdW12
SciTegic.value.DoubleValue
7.149

@<SCITEGIC>MOL_PROPERTY
Bond
SciTegic.value.DoubleValue
0.197

@<SCITEGIC>MOL_PROPERTY
Angle
SciTegic.value.DoubleValue
0.717

@<SCITEGIC>MOL_PROPERTY
Pdih
SciTegic.value.DoubleValue
1.587

@<SCITEGIC>MOL_PROPERTY
Idih
SciTegic.value.DoubleValue
0.000

@<SCITEGIC>MOL_PROPERTY
Tether
SciTegic.value.DoubleValue
0.000

@<TRIPOS>MOLECULE
guest-s12_vm2.mol2 : vm2 ligand conformer 21
          26          25           1
SMALL
USER_CHARGES
 
@<TRIPOS>ATOM
       1    N1      20.401905   18.661132   26.483773 N.4        1 MOL1        -0.4857
       2    H1      21.215158   18.701579   27.118570 H          1 MOL1         0.3650
       3    H2      20.118641   17.669063   26.477276 H          1 MOL1         0.3650
       4    C1      20.822880   19.096505   25.090061 C.3        1 MOL1         0.0209
       5    H3      21.729720   18.541373   24.836818 H          1 MOL1         0.0967
       6    H4      21.076170   20.158830   25.131362 H          1 MOL1         0.0967
       7    C2      19.764014   18.851906   23.995691 C.3        1 MOL1        -0.1378
       8    H5      19.479372   17.791387   23.994836 H          1 MOL1         0.0993
       9    H6      18.857673   19.428632   24.220989 H          1 MOL1         0.0993
      10    C3      20.294092   19.248666   22.599927 C.3        1 MOL1        -0.1338
      11    H7      21.204593   18.673657   22.385301 H          1 MOL1         0.0993
      12    H8      20.580379   20.309583   22.605390 H          1 MOL1         0.0993
      13    C4      19.240810   19.002310   21.492755 C.3        1 MOL1        -0.1338
      14    H9      18.990006   17.933353   21.450644 H          1 MOL1         0.0993
      15    H10     18.312289   19.526949   21.757380 H          1 MOL1         0.0993
      16    C5      19.693555   19.482146   20.092319 C.3        1 MOL1        -0.1313
      17    H11     19.924030   20.556256   20.123818 H          1 MOL1         0.0993
      18    H12     18.853761   19.368972   19.392446 H          1 MOL1         0.0993
      19    C6      20.910301   18.705336   19.539526 C.3        1 MOL1        -0.2328
      20    H13     21.810666   18.885212   20.139835 H          1 MOL1         0.1004
      21    H14     21.131852   19.019790   18.511438 H          1 MOL1         0.1004
      22    H15     20.716032   17.625036   19.525118 H          1 MOL1         0.1004
      23    C7      19.280443   19.541999   27.022949 C.3        1 MOL1        -0.0781
      24    H16     18.402271   19.442804   26.381836 H          1 MOL1         0.0978
      25    H17     19.031906   19.222620   28.037503 H          1 MOL1         0.0978
      26    H18     19.615225   20.581523   27.035387 H          1 MOL1         0.0978
@<TRIPOS>BOND
    1     1     2    1
    2     1     3    1
    3     1     4    1
    4     4     5    1
    5     4     6    1
    6     4     7    1
    7     7     8    1
    8     7     9    1
    9     7    10    1
   10    10    11    1
   11    10    12    1
   12    10    13    1
   13    13    14    1
   14    13    15    1
   15    13    16    1
   16    16    17    1
   17    16    18    1
   18    16    19    1
   19    19    20    1
   20    19    21    1
   21    19    22    1
   22     1    23    1
   23    23    24    1
   24    23    25    1
   25    23    26    1
@<TRIPOS>SUBSTRUCTURE
       1 MOL1            1 RESIDUE      1      MOL     
@<SCITEGIC>MOL_PROPERTY
VM2 Rank
SciTegic.value.IntegerValue
21

@<SCITEGIC>MOL_PROPERTY
Conf_Id
SciTegic.value.IntegerValue
1317

@<SCITEGIC>MOL_PROPERTY
Probability
SciTegic.value.DoubleValue
1.35

@<SCITEGIC>MOL_PROPERTY
Sum Probability
SciTegic.value.DoubleValue
51.74

@<SCITEGIC>MOL_PROPERTY
Delta G
SciTegic.value.DoubleValue
0.958

@<SCITEGIC>MOL_PROPERTY
G
SciTegic.value.DoubleValue
76.424

@<SCITEGIC>MOL_PROPERTY
E
SciTegic.value.DoubleValue
43.981

@<SCITEGIC>MOL_PROPERTY
-TS
SciTegic.value.DoubleValue
32.443

@<SCITEGIC>MOL_PROPERTY
U+W
SciTegic.value.DoubleValue
22.519

@<SCITEGIC>MOL_PROPERTY
U
SciTegic.value.DoubleValue
71.429

@<SCITEGIC>MOL_PROPERTY
W
SciTegic.value.DoubleValue
-48.910

@<SCITEGIC>MOL_PROPERTY
W(PB)
SciTegic.value.DoubleValue
-51.184

@<SCITEGIC>MOL_PROPERTY
W(SA)
SciTegic.value.DoubleValue
2.273

@<SCITEGIC>MOL_PROPERTY
Valence
SciTegic.value.DoubleValue
2.501

@<SCITEGIC>MOL_PROPERTY
Coulomb
SciTegic.value.DoubleValue
68.364

@<SCITEGIC>MOL_PROPERTY
VdW
SciTegic.value.DoubleValue
0.564

@<SCITEGIC>MOL_PROPERTY
VdW6
SciTegic.value.DoubleValue
-6.585

@<SCITEGIC>MOL_PROPERTY
VdW12
SciTegic.value.DoubleValue
7.149

@<SCITEGIC>MOL_PROPERTY
Bond
SciTegic.value.DoubleValue
0.197

@<SCITEGIC>MOL_PROPERTY
Angle
SciTegic.value.DoubleValue
0.717

@<SCITEGIC>MOL_PROPERTY
Pdih
SciTegic.value.DoubleValue
1.587

@<SCITEGIC>MOL_PROPERTY
Idih
SciTegic.value.DoubleValue
0.000

@<SCITEGIC>MOL_PROPERTY
Tether
SciTegic.value.DoubleValue
0.000

@<TRIPOS>MOLECULE
guest-s12_vm2.mol2 : vm2 ligand conformer 22
          26          25           1
SMALL
USER_CHARGES
 
@<TRIPOS>ATOM
       1    N1      20.041567   18.796947   26.429930 N.4        1 MOL1        -0.4857
       2    H1      20.450396   17.849799   26.414993 H          1 MOL1         0.3650
       3    H2      19.459485   18.822084   27.282292 H          1 MOL1         0.3650
       4    C1      19.162973   19.009374   25.208344 C.3        1 MOL1         0.0209
       5    H3      18.783120   20.033607   25.240791 H          1 MOL1         0.0967
       6    H4      18.312117   18.329273   25.298684 H          1 MOL1         0.0967
       7    C2      19.867447   18.753717   23.860376 C.3        1 MOL1        -0.1378
       8    H5      20.705286   19.452599   23.750433 H          1 MOL1         0.0993
       9    H6      20.288270   17.739607   23.856618 H          1 MOL1         0.0993
      10    C3      18.886563   18.914831   22.675022 C.3        1 MOL1        -0.1338
      11    H7      18.502035   19.943954   22.649752 H          1 MOL1         0.0993
      12    H8      18.016043   18.265112   22.841693 H          1 MOL1         0.0993
      13    C4      19.508533   18.559127   21.301919 C.3        1 MOL1        -0.1338
      14    H9      19.877292   17.524248   21.321373 H          1 MOL1         0.0993
      15    H10     18.714822   18.588397   20.542570 H          1 MOL1         0.0993
      16    C5      20.649782   19.511621   20.872354 C.3        1 MOL1        -0.1313
      17    H11     21.489886   19.439209   21.575701 H          1 MOL1         0.0993
      18    H12     20.296709   20.551893   20.903414 H          1 MOL1         0.0993
      19    C6      21.158094   19.186599   19.451440 C.3        1 MOL1        -0.2328
      20    H13     21.968537   19.868955   19.164049 H          1 MOL1         0.1004
      21    H14     20.354126   19.288614   18.710886 H          1 MOL1         0.1004
      22    H15     21.545807   18.161022   19.395963 H          1 MOL1         0.1004
      23    C7      21.133040   19.857785   26.517615 C.3        1 MOL1        -0.0781
      24    H16     20.670442   20.846619   26.550130 H          1 MOL1         0.0978
      25    H17     21.717678   19.694331   27.425677 H          1 MOL1         0.0978
      26    H18     21.783465   19.781073   25.644069 H          1 MOL1         0.0978
@<TRIPOS>BOND
    1     1     2    1
    2     1     3    1
    3     1     4    1
    4     4     5    1
    5     4     6    1
    6     4     7    1
    7     7     8    1
    8     7     9    1
    9     7    10    1
   10    10    11    1
   11    10    12    1
   12    10    13    1
   13    13    14    1
   14    13    15    1
   15    13    16    1
   16    16    17    1
   17    16    18    1
   18    16    19    1
   19    19    20    1
   20    19    21    1
   21    19    22    1
   22     1    23    1
   23    23    24    1
   24    23    25    1
   25    23    26    1
@<TRIPOS>SUBSTRUCTURE
       1 MOL1            1 RESIDUE      1      MOL     
@<SCITEGIC>MOL_PROPERTY
VM2 Rank
SciTegic.value.IntegerValue
22

@<SCITEGIC>MOL_PROPERTY
Conf_Id
SciTegic.value.IntegerValue
1257

@<SCITEGIC>MOL_PROPERTY
Probability
SciTegic.value.DoubleValue
1.30

@<SCITEGIC>MOL_PROPERTY
Sum Probability
SciTegic.value.DoubleValue
53.04

@<SCITEGIC>MOL_PROPERTY
Delta G
SciTegic.value.DoubleValue
0.978

@<SCITEGIC>MOL_PROPERTY
G
SciTegic.value.DoubleValue
76.445

@<SCITEGIC>MOL_PROPERTY
E
SciTegic.value.DoubleValue
44.013

@<SCITEGIC>MOL_PROPERTY
-TS
SciTegic.value.DoubleValue
32.432

@<SCITEGIC>MOL_PROPERTY
U+W
SciTegic.value.DoubleValue
22.551

@<SCITEGIC>MOL_PROPERTY
U
SciTegic.value.DoubleValue
71.707

@<SCITEGIC>MOL_PROPERTY
W
SciTegic.value.DoubleValue
-49.156

@<SCITEGIC>MOL_PROPERTY
W(PB)
SciTegic.value.DoubleValue
-51.437

@<SCITEGIC>MOL_PROPERTY
W(SA)
SciTegic.value.DoubleValue
2.281

@<SCITEGIC>MOL_PROPERTY
Valence
SciTegic.value.DoubleValue
2.540

@<SCITEGIC>MOL_PROPERTY
Coulomb
SciTegic.value.DoubleValue
68.632

@<SCITEGIC>MOL_PROPERTY
VdW
SciTegic.value.DoubleValue
0.535

@<SCITEGIC>MOL_PROPERTY
VdW6
SciTegic.value.DoubleValue
-6.648

@<SCITEGIC>MOL_PROPERTY
VdW12
SciTegic.value.DoubleValue
7.183

@<SCITEGIC>MOL_PROPERTY
Bond
SciTegic.value.DoubleValue
0.201

@<SCITEGIC>MOL_PROPERTY
Angle
SciTegic.value.DoubleValue
0.741

@<SCITEGIC>MOL_PROPERTY
Pdih
SciTegic.value.DoubleValue
1.598

@<SCITEGIC>MOL_PROPERTY
Idih
SciTegic.value.DoubleValue
0.000

@<SCITEGIC>MOL_PROPERTY
Tether
SciTegic.value.DoubleValue
0.000

@<TRIPOS>MOLECULE
guest-s12_vm2.mol2 : vm2 ligand conformer 23
          26          25           1
SMALL
USER_CHARGES
 
@<TRIPOS>ATOM
       1    N1      19.381412   18.768697   26.319764 N.4        1 MOL1        -0.4857
       2    H1      18.843710   17.929522   26.053160 H          1 MOL1         0.3650
       3    H2      18.852004   19.186807   27.101359 H          1 MOL1         0.3650
       4    C1      19.434685   19.749307   25.160073 C.3        1 MOL1         0.0209
       5    H3      20.042202   20.603505   25.469350 H          1 MOL1         0.0967
       6    H4      18.415116   20.103287   24.987308 H          1 MOL1         0.0967
       7    C2      19.988972   19.159364   23.847302 C.3        1 MOL1        -0.1378
       8    H5      21.025006   18.829523   23.997355 H          1 MOL1         0.0993
       9    H6      19.401806   18.272052   23.580061 H          1 MOL1         0.0993
      10    C3      19.939081   20.196797   22.700849 C.3        1 MOL1        -0.1338
      11    H7      20.461424   21.108606   23.022574 H          1 MOL1         0.0993
      12    H8      18.897097   20.489785   22.511095 H          1 MOL1         0.0993
      13    C4      20.586191   19.698921   21.384757 C.3        1 MOL1        -0.1338
      14    H9      20.609058   20.533876   20.670775 H          1 MOL1         0.0993
      15    H10     21.633812   19.424215   21.570135 H          1 MOL1         0.0993
      16    C5      19.840605   18.506522   20.739472 C.3        1 MOL1        -0.1313
      17    H11     18.780721   18.762174   20.601351 H          1 MOL1         0.0993
      18    H12     19.873637   17.633321   21.404428 H          1 MOL1         0.0993
      19    C6      20.455143   18.120852   19.376892 C.3        1 MOL1        -0.2328
      20    H13     20.403173   18.957934   18.668524 H          1 MOL1         0.1004
      21    H14     19.916714   17.272447   18.934935 H          1 MOL1         0.1004
      22    H15     21.508272   17.830943   19.486791 H          1 MOL1         0.1004
      23    C7      20.781911   18.389539   26.787892 C.3        1 MOL1        -0.0781
      24    H16     21.312231   17.889473   25.975031 H          1 MOL1         0.0978
      25    H17     21.319507   19.294095   27.080493 H          1 MOL1         0.0978
      26    H18     20.702102   17.715161   27.643424 H          1 MOL1         0.0978
@<TRIPOS>BOND
    1     1     2    1
    2     1     3    1
    3     1     4    1
    4     4     5    1
    5     4     6    1
    6     4     7    1
    7     7     8    1
    8     7     9    1
    9     7    10    1
   10    10    11    1
   11    10    12    1
   12    10    13    1
   13    13    14    1
   14    13    15    1
   15    13    16    1
   16    16    17    1
   17    16    18    1
   18    16    19    1
   19    19    20    1
   20    19    21    1
   21    19    22    1
   22     1    23    1
   23    23    24    1
   24    23    25    1
   25    23    26    1
@<TRIPOS>SUBSTRUCTURE
       1 MOL1            1 RESIDUE      1      MOL     
@<SCITEGIC>MOL_PROPERTY
VM2 Rank
SciTegic.value.IntegerValue
23

@<SCITEGIC>MOL_PROPERTY
Conf_Id
SciTegic.value.IntegerValue
827

@<SCITEGIC>MOL_PROPERTY
Probability
SciTegic.value.DoubleValue
1.28

@<SCITEGIC>MOL_PROPERTY
Sum Probability
SciTegic.value.DoubleValue
54.32

@<SCITEGIC>MOL_PROPERTY
Delta G
SciTegic.value.DoubleValue
0.989

@<SCITEGIC>MOL_PROPERTY
G
SciTegic.value.DoubleValue
76.456

@<SCITEGIC>MOL_PROPERTY
E
SciTegic.value.DoubleValue
44.023

@<SCITEGIC>MOL_PROPERTY
-TS
SciTegic.value.DoubleValue
32.433

@<SCITEGIC>MOL_PROPERTY
U+W
SciTegic.value.DoubleValue
22.561

@<SCITEGIC>MOL_PROPERTY
U
SciTegic.value.DoubleValue
71.722

@<SCITEGIC>MOL_PROPERTY
W
SciTegic.value.DoubleValue
-49.162

@<SCITEGIC>MOL_PROPERTY
W(PB)
SciTegic.value.DoubleValue
-51.478

@<SCITEGIC>MOL_PROPERTY
W(SA)
SciTegic.value.DoubleValue
2.316

@<SCITEGIC>MOL_PROPERTY
Valence
SciTegic.value.DoubleValue
2.540

@<SCITEGIC>MOL_PROPERTY
Coulomb
SciTegic.value.DoubleValue
68.643

@<SCITEGIC>MOL_PROPERTY
VdW
SciTegic.value.DoubleValue
0.540

@<SCITEGIC>MOL_PROPERTY
VdW6
SciTegic.value.DoubleValue
-6.633

@<SCITEGIC>MOL_PROPERTY
VdW12
SciTegic.value.DoubleValue
7.173

@<SCITEGIC>MOL_PROPERTY
Bond
SciTegic.value.DoubleValue
0.200

@<SCITEGIC>MOL_PROPERTY
Angle
SciTegic.value.DoubleValue
0.745

@<SCITEGIC>MOL_PROPERTY
Pdih
SciTegic.value.DoubleValue
1.594

@<SCITEGIC>MOL_PROPERTY
Idih
SciTegic.value.DoubleValue
0.000

@<SCITEGIC>MOL_PROPERTY
Tether
SciTegic.value.DoubleValue
0.000

@<TRIPOS>MOLECULE
guest-s12_vm2.mol2 : vm2 ligand conformer 24
          26          25           1
SMALL
USER_CHARGES
 
@<TRIPOS>ATOM
       1    N1      20.553805   18.886805   26.361260 N.4        1 MOL1        -0.4857
       2    H1      20.933197   19.396432   27.175091 H          1 MOL1         0.3650
       3    H2      21.265281   18.173541   26.138840 H          1 MOL1         0.3650
       4    C1      20.387541   19.845385   25.193873 C.3        1 MOL1         0.0209
       5    H3      21.325651   20.396691   25.090517 H          1 MOL1         0.0967
       6    H4      19.601811   20.559132   25.453835 H          1 MOL1         0.0967
       7    C2      20.055333   19.166165   23.849655 C.3        1 MOL1        -0.1378
       8    H5      20.824687   18.415430   23.630575 H          1 MOL1         0.0993
       9    H6      19.097790   18.635602   23.928971 H          1 MOL1         0.0993
      10    C3      19.978021   20.200793   22.702193 C.3        1 MOL1        -0.1338
      11    H7      20.951516   20.696682   22.583952 H          1 MOL1         0.0993
      12    H8      19.263344   20.988079   22.979972 H          1 MOL1         0.0993
      13    C4      19.536993   19.593295   21.347510 C.3        1 MOL1        -0.1338
      14    H9      18.554596   19.114344   21.460827 H          1 MOL1         0.0993
      15    H10     19.398666   20.411961   20.627722 H          1 MOL1         0.0993
      16    C5      20.548362   18.577605   20.764741 C.3        1 MOL1        -0.1313
      17    H11     20.642912   17.710572   21.431867 H          1 MOL1         0.0993
      18    H12     21.543277   19.039895   20.699778 H          1 MOL1         0.0993
      19    C6      20.120267   18.087127   19.365032 C.3        1 MOL1        -0.2328
      20    H13     19.140727   17.592862   19.402545 H          1 MOL1         0.1004
      21    H14     20.846376   17.365861   18.968089 H          1 MOL1         0.1004
      22    H15     20.054526   18.922836   18.656188 H          1 MOL1         0.1004
      23    C7      19.227677   18.232826   26.732736 C.3        1 MOL1        -0.0781
      24    H16     18.865948   17.642894   25.888236 H          1 MOL1         0.0978
      25    H17     19.380135   17.581817   27.596469 H          1 MOL1         0.0978
      26    H18     18.501438   19.009996   26.980583 H          1 MOL1         0.0978
@<TRIPOS>BOND
    1     1     2    1
    2     1     3    1
    3     1     4    1
    4     4     5    1
    5     4     6    1
    6     4     7    1
    7     7     8    1
    8     7     9    1
    9     7    10    1
   10    10    11    1
   11    10    12    1
   12    10    13    1
   13    13    14    1
   14    13    15    1
   15    13    16    1
   16    16    17    1
   17    16    18    1
   18    16    19    1
   19    19    20    1
   20    19    21    1
   21    19    22    1
   22     1    23    1
   23    23    24    1
   24    23    25    1
   25    23    26    1
@<TRIPOS>SUBSTRUCTURE
       1 MOL1            1 RESIDUE      1      MOL     
@<SCITEGIC>MOL_PROPERTY
VM2 Rank
SciTegic.value.IntegerValue
24

@<SCITEGIC>MOL_PROPERTY
Conf_Id
SciTegic.value.IntegerValue
441

@<SCITEGIC>MOL_PROPERTY
Probability
SciTegic.value.DoubleValue
1.25

@<SCITEGIC>MOL_PROPERTY
Sum Probability
SciTegic.value.DoubleValue
55.57

@<SCITEGIC>MOL_PROPERTY
Delta G
SciTegic.value.DoubleValue
1.001

@<SCITEGIC>MOL_PROPERTY
G
SciTegic.value.DoubleValue
76.467

@<SCITEGIC>MOL_PROPERTY
E
SciTegic.value.DoubleValue
44.034

@<SCITEGIC>MOL_PROPERTY
-TS
SciTegic.value.DoubleValue
32.433

@<SCITEGIC>MOL_PROPERTY
U+W
SciTegic.value.DoubleValue
22.573

@<SCITEGIC>MOL_PROPERTY
U
SciTegic.value.DoubleValue
71.723

@<SCITEGIC>MOL_PROPERTY
W
SciTegic.value.DoubleValue
-49.150

@<SCITEGIC>MOL_PROPERTY
W(PB)
SciTegic.value.DoubleValue
-51.448

@<SCITEGIC>MOL_PROPERTY
W(SA)
SciTegic.value.DoubleValue
2.298

@<SCITEGIC>MOL_PROPERTY
Valence
SciTegic.value.DoubleValue
2.539

@<SCITEGIC>MOL_PROPERTY
Coulomb
SciTegic.value.DoubleValue
68.643

@<SCITEGIC>MOL_PROPERTY
VdW
SciTegic.value.DoubleValue
0.540

@<SCITEGIC>MOL_PROPERTY
VdW6
SciTegic.value.DoubleValue
-6.633

@<SCITEGIC>MOL_PROPERTY
VdW12
SciTegic.value.DoubleValue
7.173

@<SCITEGIC>MOL_PROPERTY
Bond
SciTegic.value.DoubleValue
0.200

@<SCITEGIC>MOL_PROPERTY
Angle
SciTegic.value.DoubleValue
0.745

@<SCITEGIC>MOL_PROPERTY
Pdih
SciTegic.value.DoubleValue
1.595

@<SCITEGIC>MOL_PROPERTY
Idih
SciTegic.value.DoubleValue
0.000

@<SCITEGIC>MOL_PROPERTY
Tether
SciTegic.value.DoubleValue
0.000

@<TRIPOS>MOLECULE
guest-s12_vm2.mol2 : vm2 ligand conformer 25
          26          25           1
SMALL
USER_CHARGES
 
@<TRIPOS>ATOM
       1    N1      19.896281   18.782136   26.424792 N.4        1 MOL1        -0.4857
       2    H1      20.400090   18.918445   27.315616 H          1 MOL1         0.3650
       3    H2      19.689499   17.772010   26.388144 H          1 MOL1         0.3650
       4    C1      20.797139   19.176476   25.266226 C.3        1 MOL1         0.0209
       5    H3      21.759467   18.681830   25.420836 H          1 MOL1         0.0967
       6    H4      20.958840   20.256099   25.317799 H          1 MOL1         0.0967
       7    C2      20.255089   18.793261   23.874110 C.3        1 MOL1        -0.1378
       8    H5      20.049436   17.715041   23.848151 H          1 MOL1         0.0993
       9    H6      19.302991   19.308973   23.700774 H          1 MOL1         0.0993
      10    C3      21.263642   19.157991   22.759235 C.3        1 MOL1        -0.1338
      11    H7      22.233740   18.696606   22.991079 H          1 MOL1         0.0993
      12    H8      21.432854   20.243777   22.753635 H          1 MOL1         0.0993
      13    C4      20.824190   18.693764   21.348505 C.3        1 MOL1        -0.1338
      14    H9      21.646717   18.888569   20.646406 H          1 MOL1         0.0993
      15    H10     20.672055   17.605559   21.349404 H          1 MOL1         0.0993
      16    C5      19.546722   19.398696   20.833372 C.3        1 MOL1        -0.1313
      17    H11     19.678869   20.488641   20.881816 H          1 MOL1         0.0993
      18    H12     18.691512   19.152584   21.476614 H          1 MOL1         0.0993
      19    C6      19.215498   18.987978   19.382641 C.3        1 MOL1        -0.2328
      20    H13     19.048293   17.905587   19.307295 H          1 MOL1         0.1004
      21    H14     20.032003   19.256085   18.699536 H          1 MOL1         0.1004
      22    H15     18.305851   19.494248   19.034424 H          1 MOL1         0.1004
      23    C7      18.609439   19.599698   26.428119 C.3        1 MOL1        -0.0781
      24    H16     18.859097   20.661397   26.485674 H          1 MOL1         0.0978
      25    H17     18.050742   19.399150   25.511790 H          1 MOL1         0.0978
      26    H18     18.007827   19.315052   27.294222 H          1 MOL1         0.0978
@<TRIPOS>BOND
    1     1     2    1
    2     1     3    1
    3     1     4    1
    4     4     5    1
    5     4     6    1
    6     4     7    1
    7     7     8    1
    8     7     9    1
    9     7    10    1
   10    10    11    1
   11    10    12    1
   12    10    13    1
   13    13    14    1
   14    13    15    1
   15    13    16    1
   16    16    17    1
   17    16    18    1
   18    16    19    1
   19    19    20    1
   20    19    21    1
   21    19    22    1
   22     1    23    1
   23    23    24    1
   24    23    25    1
   25    23    26    1
@<TRIPOS>SUBSTRUCTURE
       1 MOL1            1 RESIDUE      1      MOL     
@<SCITEGIC>MOL_PROPERTY
VM2 Rank
SciTegic.value.IntegerValue
25

@<SCITEGIC>MOL_PROPERTY
Conf_Id
SciTegic.value.IntegerValue
1088

@<SCITEGIC>MOL_PROPERTY
Probability
SciTegic.value.DoubleValue
1.21

@<SCITEGIC>MOL_PROPERTY
Sum Probability
SciTegic.value.DoubleValue
56.78

@<SCITEGIC>MOL_PROPERTY
Delta G
SciTegic.value.DoubleValue
1.023

@<SCITEGIC>MOL_PROPERTY
G
SciTegic.value.DoubleValue
76.490

@<SCITEGIC>MOL_PROPERTY
E
SciTegic.value.DoubleValue
44.058

@<SCITEGIC>MOL_PROPERTY
-TS
SciTegic.value.DoubleValue
32.432

@<SCITEGIC>MOL_PROPERTY
U+W
SciTegic.value.DoubleValue
22.596

@<SCITEGIC>MOL_PROPERTY
U
SciTegic.value.DoubleValue
71.707

@<SCITEGIC>MOL_PROPERTY
W
SciTegic.value.DoubleValue
-49.110

@<SCITEGIC>MOL_PROPERTY
W(PB)
SciTegic.value.DoubleValue
-51.411

@<SCITEGIC>MOL_PROPERTY
W(SA)
SciTegic.value.DoubleValue
2.301

@<SCITEGIC>MOL_PROPERTY
Valence
SciTegic.value.DoubleValue
2.540

@<SCITEGIC>MOL_PROPERTY
Coulomb
SciTegic.value.DoubleValue
68.632

@<SCITEGIC>MOL_PROPERTY
VdW
SciTegic.value.DoubleValue
0.535

@<SCITEGIC>MOL_PROPERTY
VdW6
SciTegic.value.DoubleValue
-6.648

@<SCITEGIC>MOL_PROPERTY
VdW12
SciTegic.value.DoubleValue
7.184

@<SCITEGIC>MOL_PROPERTY
Bond
SciTegic.value.DoubleValue
0.201

@<SCITEGIC>MOL_PROPERTY
Angle
SciTegic.value.DoubleValue
0.741

@<SCITEGIC>MOL_PROPERTY
Pdih
SciTegic.value.DoubleValue
1.598

@<SCITEGIC>MOL_PROPERTY
Idih
SciTegic.value.DoubleValue
0.000

@<SCITEGIC>MOL_PROPERTY
Tether
SciTegic.value.DoubleValue
0.000

@<TRIPOS>MOLECULE
guest-s12_vm2.mol2 : vm2 ligand conformer 26
          26          25           1
SMALL
USER_CHARGES
 
@<TRIPOS>ATOM
       1    N1      19.294175   18.852617   25.664594 N.4        1 MOL1        -0.4857
       2    H1      19.235661   17.822612   25.684039 H          1 MOL1         0.3650
       3    H2      18.631250   19.153639   24.934540 H          1 MOL1         0.3650
       4    C1      20.701033   19.288389   25.302840 C.3        1 MOL1         0.0209
       5    H3      21.366103   18.949737   26.101349 H          1 MOL1         0.0967
       6    H4      20.721233   20.380919   25.282528 H          1 MOL1         0.0967
       7    C2      21.200484   18.735184   23.953501 C.3        1 MOL1        -0.1378
       8    H5      22.254899   19.017211   23.832823 H          1 MOL1         0.0993
       9    H6      21.170530   17.637606   23.973187 H          1 MOL1         0.0993
      10    C3      20.386275   19.267216   22.750019 C.3        1 MOL1        -0.1338
      11    H7      20.400646   20.365986   22.755920 H          1 MOL1         0.0993
      12    H8      19.337942   18.960214   22.852010 H          1 MOL1         0.0993
      13    C4      20.949611   18.750809   21.404020 C.3        1 MOL1        -0.1338
      14    H9      22.016523   19.005646   21.339498 H          1 MOL1         0.0993
      15    H10     20.892083   17.653918   21.374376 H          1 MOL1         0.0993
      16    C5      20.229332   19.339479   20.166591 C.3        1 MOL1        -0.1313
      17    H11     20.756274   19.007148   19.261177 H          1 MOL1         0.0993
      18    H12     20.303641   20.435896   20.179664 H          1 MOL1         0.0993
      19    C6      18.745241   18.920158   20.060641 C.3        1 MOL1        -0.2328
      20    H13     18.309689   19.283989   19.121036 H          1 MOL1         0.1004
      21    H14     18.148606   19.335535   20.882090 H          1 MOL1         0.1004
      22    H15     18.641166   17.827504   20.077281 H          1 MOL1         0.1004
      23    C7      18.901849   19.436149   27.014795 C.3        1 MOL1        -0.0781
      24    H16     18.940716   20.526293   26.959879 H          1 MOL1         0.0978
      25    H17     17.887693   19.115115   27.262881 H          1 MOL1         0.0978
      26    H18     19.598469   19.078880   27.776384 H          1 MOL1         0.0978
@<TRIPOS>BOND
    1     1     2    1
    2     1     3    1
    3     1     4    1
    4     4     5    1
    5     4     6    1
    6     4     7    1
    7     7     8    1
    8     7     9    1
    9     7    10    1
   10    10    11    1
   11    10    12    1
   12    10    13    1
   13    13    14    1
   14    13    15    1
   15    13    16    1
   16    16    17    1
   17    16    18    1
   18    16    19    1
   19    19    20    1
   20    19    21    1
   21    19    22    1
   22     1    23    1
   23    23    24    1
   24    23    25    1
   25    23    26    1
@<TRIPOS>SUBSTRUCTURE
       1 MOL1            1 RESIDUE      1      MOL     
@<SCITEGIC>MOL_PROPERTY
VM2 Rank
SciTegic.value.IntegerValue
26

@<SCITEGIC>MOL_PROPERTY
Conf_Id
SciTegic.value.IntegerValue
463

@<SCITEGIC>MOL_PROPERTY
Probability
SciTegic.value.DoubleValue
1.11

@<SCITEGIC>MOL_PROPERTY
Sum Probability
SciTegic.value.DoubleValue
57.89

@<SCITEGIC>MOL_PROPERTY
Delta G
SciTegic.value.DoubleValue
1.072

@<SCITEGIC>MOL_PROPERTY
G
SciTegic.value.DoubleValue
76.539

@<SCITEGIC>MOL_PROPERTY
E
SciTegic.value.DoubleValue
44.179

@<SCITEGIC>MOL_PROPERTY
-TS
SciTegic.value.DoubleValue
32.360

@<SCITEGIC>MOL_PROPERTY
U+W
SciTegic.value.DoubleValue
22.717

@<SCITEGIC>MOL_PROPERTY
U
SciTegic.value.DoubleValue
71.970

@<SCITEGIC>MOL_PROPERTY
W
SciTegic.value.DoubleValue
-49.253

@<SCITEGIC>MOL_PROPERTY
W(PB)
SciTegic.value.DoubleValue
-51.560

@<SCITEGIC>MOL_PROPERTY
W(SA)
SciTegic.value.DoubleValue
2.307

@<SCITEGIC>MOL_PROPERTY
Valence
SciTegic.value.DoubleValue
2.341

@<SCITEGIC>MOL_PROPERTY
Coulomb
SciTegic.value.DoubleValue
69.301

@<SCITEGIC>MOL_PROPERTY
VdW
SciTegic.value.DoubleValue
0.327

@<SCITEGIC>MOL_PROPERTY
VdW6
SciTegic.value.DoubleValue
-6.486

@<SCITEGIC>MOL_PROPERTY
VdW12
SciTegic.value.DoubleValue
6.813

@<SCITEGIC>MOL_PROPERTY
Bond
SciTegic.value.DoubleValue
0.179

@<SCITEGIC>MOL_PROPERTY
Angle
SciTegic.value.DoubleValue
0.655

@<SCITEGIC>MOL_PROPERTY
Pdih
SciTegic.value.DoubleValue
1.507

@<SCITEGIC>MOL_PROPERTY
Idih
SciTegic.value.DoubleValue
0.000

@<SCITEGIC>MOL_PROPERTY
Tether
SciTegic.value.DoubleValue
0.000

@<TRIPOS>MOLECULE
guest-s12_vm2.mol2 : vm2 ligand conformer 27
          26          25           1
SMALL
USER_CHARGES
 
@<TRIPOS>ATOM
       1    N1      20.357461   19.588285   25.807742 N.4        1 MOL1        -0.4857
       2    H1      20.506583   20.349980   25.128975 H          1 MOL1         0.3650
       3    H2      21.292684   19.191344   25.988018 H          1 MOL1         0.3650
       4    C1      19.447858   18.530781   25.212594 C.3        1 MOL1         0.0209
       5    H3      18.473279   18.989416   25.027413 H          1 MOL1         0.0967
       6    H4      19.318889   17.746835   25.963207 H          1 MOL1         0.0967
       7    C2      19.983461   17.906555   23.908926 C.3        1 MOL1        -0.1378
       8    H5      20.965192   17.451725   24.096726 H          1 MOL1         0.0993
       9    H6      19.311439   17.089687   23.613866 H          1 MOL1         0.0993
      10    C3      20.083543   18.929868   22.752643 C.3        1 MOL1        -0.1338
      11    H7      20.785847   19.730183   23.020887 H          1 MOL1         0.0993
      12    H8      19.102492   19.400510   22.604974 H          1 MOL1         0.0993
      13    C4      20.550835   18.262829   21.436466 C.3        1 MOL1        -0.1338
      14    H9      21.495800   17.732454   21.618642 H          1 MOL1         0.0993
      15    H10     19.822941   17.499510   21.128470 H          1 MOL1         0.0993
      16    C5      20.766836   19.267073   20.278302 C.3        1 MOL1        -0.1313
      17    H11     21.193817   18.729030   19.420350 H          1 MOL1         0.0993
      18    H12     21.513495   20.018222   20.571693 H          1 MOL1         0.0993
      19    C6      19.468332   19.973724   19.826636 C.3        1 MOL1        -0.2328
      20    H13     19.067429   20.623500   20.614327 H          1 MOL1         0.1004
      21    H14     18.694849   19.243463   19.555638 H          1 MOL1         0.1004
      22    H15     19.659059   20.602000   18.946966 H          1 MOL1         0.1004
      23    C7      19.749675   20.130885   27.093691 C.3        1 MOL1        -0.0781
      24    H16     19.630588   19.312877   27.807565 H          1 MOL1         0.0978
      25    H17     20.413896   20.890944   27.511116 H          1 MOL1         0.0978
      26    H18     18.776003   20.573320   26.871982 H          1 MOL1         0.0978
@<TRIPOS>BOND
    1     1     2    1
    2     1     3    1
    3     1     4    1
    4     4     5    1
    5     4     6    1
    6     4     7    1
    7     7     8    1
    8     7     9    1
    9     7    10    1
   10    10    11    1
   11    10    12    1
   12    10    13    1
   13    13    14    1
   14    13    15    1
   15    13    16    1
   16    16    17    1
   17    16    18    1
   18    16    19    1
   19    19    20    1
   20    19    21    1
   21    19    22    1
   22     1    23    1
   23    23    24    1
   24    23    25    1
   25    23    26    1
@<TRIPOS>SUBSTRUCTURE
       1 MOL1            1 RESIDUE      1      MOL     
@<SCITEGIC>MOL_PROPERTY
VM2 Rank
SciTegic.value.IntegerValue
27

@<SCITEGIC>MOL_PROPERTY
Conf_Id
SciTegic.value.IntegerValue
976

@<SCITEGIC>MOL_PROPERTY
Probability
SciTegic.value.DoubleValue
1.10

@<SCITEGIC>MOL_PROPERTY
Sum Probability
SciTegic.value.DoubleValue
58.99

@<SCITEGIC>MOL_PROPERTY
Delta G
SciTegic.value.DoubleValue
1.076

@<SCITEGIC>MOL_PROPERTY
G
SciTegic.value.DoubleValue
76.543

@<SCITEGIC>MOL_PROPERTY
E
SciTegic.value.DoubleValue
44.176

@<SCITEGIC>MOL_PROPERTY
-TS
SciTegic.value.DoubleValue
32.367

@<SCITEGIC>MOL_PROPERTY
U+W
SciTegic.value.DoubleValue
22.714

@<SCITEGIC>MOL_PROPERTY
U
SciTegic.value.DoubleValue
71.833

@<SCITEGIC>MOL_PROPERTY
W
SciTegic.value.DoubleValue
-49.119

@<SCITEGIC>MOL_PROPERTY
W(PB)
SciTegic.value.DoubleValue
-51.436

@<SCITEGIC>MOL_PROPERTY
W(SA)
SciTegic.value.DoubleValue
2.317

@<SCITEGIC>MOL_PROPERTY
Valence
SciTegic.value.DoubleValue
2.344

@<SCITEGIC>MOL_PROPERTY
Coulomb
SciTegic.value.DoubleValue
69.159

@<SCITEGIC>MOL_PROPERTY
VdW
SciTegic.value.DoubleValue
0.330

@<SCITEGIC>MOL_PROPERTY
VdW6
SciTegic.value.DoubleValue
-6.476

@<SCITEGIC>MOL_PROPERTY
VdW12
SciTegic.value.DoubleValue
6.806

@<SCITEGIC>MOL_PROPERTY
Bond
SciTegic.value.DoubleValue
0.178

@<SCITEGIC>MOL_PROPERTY
Angle
SciTegic.value.DoubleValue
0.658

@<SCITEGIC>MOL_PROPERTY
Pdih
SciTegic.value.DoubleValue
1.508

@<SCITEGIC>MOL_PROPERTY
Idih
SciTegic.value.DoubleValue
0.000

@<SCITEGIC>MOL_PROPERTY
Tether
SciTegic.value.DoubleValue
0.000

@<TRIPOS>MOLECULE
guest-s12_vm2.mol2 : vm2 ligand conformer 28
          26          25           1
SMALL
USER_CHARGES
 
@<TRIPOS>ATOM
       1    N1      20.668757   18.993367   25.713193 N.4        1 MOL1        -0.4857
       2    H1      21.306426   19.427781   25.029289 H          1 MOL1         0.3650
       3    H2      20.933084   17.996419   25.743788 H          1 MOL1         0.3650
       4    C1      19.231637   19.137997   25.250821 C.3        1 MOL1         0.0209
       5    H3      18.992197   20.203948   25.221455 H          1 MOL1         0.0967
       6    H4      18.594686   18.665937   26.003200 H          1 MOL1         0.0967
       7    C2      18.950113   18.504997   23.873773 C.3        1 MOL1        -0.1378
       8    H5      19.199959   17.436041   23.903298 H          1 MOL1         0.0993
       9    H6      17.871543   18.568833   23.677548 H          1 MOL1         0.0993
      10    C3      19.722141   19.199358   22.726514 C.3        1 MOL1        -0.1338
      11    H7      20.801126   19.109870   22.903814 H          1 MOL1         0.0993
      12    H8      19.485574   20.272468   22.723631 H          1 MOL1         0.0993
      13    C4      19.370435   18.589504   21.348066 C.3        1 MOL1        -0.1338
      14    H9      19.650287   17.527091   21.330331 H          1 MOL1         0.0993
      15    H10     18.281234   18.624022   21.207151 H          1 MOL1         0.0993
      16    C5      20.041824   19.320427   20.159977 C.3        1 MOL1        -0.1313
      17    H11     19.746925   20.379131   20.160070 H          1 MOL1         0.0993
      18    H12     19.657540   18.895108   19.222260 H          1 MOL1         0.0993
      19    C6      21.583715   19.210178   20.161159 C.3        1 MOL1        -0.2328
      20    H13     22.001516   19.661333   19.251854 H          1 MOL1         0.1004
      21    H14     21.904848   18.160948   20.192663 H          1 MOL1         0.1004
      22    H15     22.025192   19.731430   21.019462 H          1 MOL1         0.1004
      23    C7      20.839379   19.634171   27.083497 C.3        1 MOL1        -0.0781
      24    H16     20.584389   20.694219   27.018524 H          1 MOL1         0.0978
      25    H17     20.178102   19.137504   27.796919 H          1 MOL1         0.0978
      26    H18     21.877674   19.523397   27.404115 H          1 MOL1         0.0978
@<TRIPOS>BOND
    1     1     2    1
    2     1     3    1
    3     1     4    1
    4     4     5    1
    5     4     6    1
    6     4     7    1
    7     7     8    1
    8     7     9    1
    9     7    10    1
   10    10    11    1
   11    10    12    1
   12    10    13    1
   13    13    14    1
   14    13    15    1
   15    13    16    1
   16    16    17    1
   17    16    18    1
   18    16    19    1
   19    19    20    1
   20    19    21    1
   21    19    22    1
   22     1    23    1
   23    23    24    1
   24    23    25    1
   25    23    26    1
@<TRIPOS>SUBSTRUCTURE
       1 MOL1            1 RESIDUE      1      MOL     
@<SCITEGIC>MOL_PROPERTY
VM2 Rank
SciTegic.value.IntegerValue
28

@<SCITEGIC>MOL_PROPERTY
Conf_Id
SciTegic.value.IntegerValue
1459

@<SCITEGIC>MOL_PROPERTY
Probability
SciTegic.value.DoubleValue
1.09

@<SCITEGIC>MOL_PROPERTY
Sum Probability
SciTegic.value.DoubleValue
60.08

@<SCITEGIC>MOL_PROPERTY
Delta G
SciTegic.value.DoubleValue
1.084

@<SCITEGIC>MOL_PROPERTY
G
SciTegic.value.DoubleValue
76.551

@<SCITEGIC>MOL_PROPERTY
E
SciTegic.value.DoubleValue
44.191

@<SCITEGIC>MOL_PROPERTY
-TS
SciTegic.value.DoubleValue
32.360

@<SCITEGIC>MOL_PROPERTY
U+W
SciTegic.value.DoubleValue
22.729

@<SCITEGIC>MOL_PROPERTY
U
SciTegic.value.DoubleValue
71.970

@<SCITEGIC>MOL_PROPERTY
W
SciTegic.value.DoubleValue
-49.241

@<SCITEGIC>MOL_PROPERTY
W(PB)
SciTegic.value.DoubleValue
-51.540

@<SCITEGIC>MOL_PROPERTY
W(SA)
SciTegic.value.DoubleValue
2.299

@<SCITEGIC>MOL_PROPERTY
Valence
SciTegic.value.DoubleValue
2.341

@<SCITEGIC>MOL_PROPERTY
Coulomb
SciTegic.value.DoubleValue
69.301

@<SCITEGIC>MOL_PROPERTY
VdW
SciTegic.value.DoubleValue
0.327

@<SCITEGIC>MOL_PROPERTY
VdW6
SciTegic.value.DoubleValue
-6.486

@<SCITEGIC>MOL_PROPERTY
VdW12
SciTegic.value.DoubleValue
6.813

@<SCITEGIC>MOL_PROPERTY
Bond
SciTegic.value.DoubleValue
0.179

@<SCITEGIC>MOL_PROPERTY
Angle
SciTegic.value.DoubleValue
0.655

@<SCITEGIC>MOL_PROPERTY
Pdih
SciTegic.value.DoubleValue
1.507

@<SCITEGIC>MOL_PROPERTY
Idih
SciTegic.value.DoubleValue
0.000

@<SCITEGIC>MOL_PROPERTY
Tether
SciTegic.value.DoubleValue
0.000

@<TRIPOS>MOLECULE
guest-s12_vm2.mol2 : vm2 ligand conformer 29
          26          25           1
SMALL
USER_CHARGES
 
@<TRIPOS>ATOM
       1    N1      19.892304   18.939747   26.262036 N.4        1 MOL1        -0.4857
       2    H1      20.601907   18.294978   26.643555 H          1 MOL1         0.3650
       3    H2      18.988066   18.459241   26.389579 H          1 MOL1         0.3650
       4    C1      20.149362   19.188216   24.789424 C.3        1 MOL1         0.0209
       5    H3      21.117308   19.687234   24.697346 H          1 MOL1         0.0967
       6    H4      19.374984   19.868156   24.426458 H          1 MOL1         0.0967
       7    C2      20.148656   17.899261   23.945204 C.3        1 MOL1        -0.1378
       8    H5      20.901863   17.207316   24.344951 H          1 MOL1         0.0993
       9    H6      19.177315   17.395909   24.040459 H          1 MOL1         0.0993
      10    C3      20.452721   18.164990   22.451912 C.3        1 MOL1        -0.1338
      11    H7      20.517654   17.201360   21.928057 H          1 MOL1         0.0993
      12    H8      21.441614   18.634499   22.365156 H          1 MOL1         0.0993
      13    C4      19.381551   19.048758   21.763728 C.3        1 MOL1        -0.1338
      14    H9      18.387856   18.617406   21.947715 H          1 MOL1         0.0993
      15    H10     19.372390   20.050792   22.213197 H          1 MOL1         0.0993
      16    C5      19.584254   19.180164   20.234776 C.3        1 MOL1        -0.1313
      17    H11     18.733068   19.732154   19.812076 H          1 MOL1         0.0993
      18    H12     19.565440   18.184465   19.769965 H          1 MOL1         0.0993
      19    C6      20.891800   19.909072   19.849563 C.3        1 MOL1        -0.2328
      20    H13     20.944624   20.054667   18.762854 H          1 MOL1         0.1004
      21    H14     21.777084   19.334121   20.148172 H          1 MOL1         0.1004
      22    H15     20.947364   20.897710   20.323376 H          1 MOL1         0.1004
      23    C7      19.907351   20.259793   27.020357 C.3        1 MOL1        -0.0781
      24    H16     19.127207   20.912000   26.621666 H          1 MOL1         0.0978
      25    H17     19.721195   20.066712   28.079229 H          1 MOL1         0.0978
      26    H18     20.884003   20.733208   26.897925 H          1 MOL1         0.0978
@<TRIPOS>BOND
    1     1     2    1
    2     1     3    1
    3     1     4    1
    4     4     5    1
    5     4     6    1
    6     4     7    1
    7     7     8    1
    8     7     9    1
    9     7    10    1
   10    10    11    1
   11    10    12    1
   12    10    13    1
   13    13    14    1
   14    13    15    1
   15    13    16    1
   16    16    17    1
   17    16    18    1
   18    16    19    1
   19    19    20    1
   20    19    21    1
   21    19    22    1
   22     1    23    1
   23    23    24    1
   24    23    25    1
   25    23    26    1
@<TRIPOS>SUBSTRUCTURE
       1 MOL1            1 RESIDUE      1      MOL     
@<SCITEGIC>MOL_PROPERTY
VM2 Rank
SciTegic.value.IntegerValue
29

@<SCITEGIC>MOL_PROPERTY
Conf_Id
SciTegic.value.IntegerValue
1490

@<SCITEGIC>MOL_PROPERTY
Probability
SciTegic.value.DoubleValue
1.08

@<SCITEGIC>MOL_PROPERTY
Sum Probability
SciTegic.value.DoubleValue
61.16

@<SCITEGIC>MOL_PROPERTY
Delta G
SciTegic.value.DoubleValue
1.087

@<SCITEGIC>MOL_PROPERTY
G
SciTegic.value.DoubleValue
76.553

@<SCITEGIC>MOL_PROPERTY
E
SciTegic.value.DoubleValue
44.175

@<SCITEGIC>MOL_PROPERTY
-TS
SciTegic.value.DoubleValue
32.379

@<SCITEGIC>MOL_PROPERTY
U+W
SciTegic.value.DoubleValue
22.713

@<SCITEGIC>MOL_PROPERTY
U
SciTegic.value.DoubleValue
71.734

@<SCITEGIC>MOL_PROPERTY
W
SciTegic.value.DoubleValue
-49.021

@<SCITEGIC>MOL_PROPERTY
W(PB)
SciTegic.value.DoubleValue
-51.333

@<SCITEGIC>MOL_PROPERTY
W(SA)
SciTegic.value.DoubleValue
2.311

@<SCITEGIC>MOL_PROPERTY
Valence
SciTegic.value.DoubleValue
2.508

@<SCITEGIC>MOL_PROPERTY
Coulomb
SciTegic.value.DoubleValue
68.926

@<SCITEGIC>MOL_PROPERTY
VdW
SciTegic.value.DoubleValue
0.300

@<SCITEGIC>MOL_PROPERTY
VdW6
SciTegic.value.DoubleValue
-6.530

@<SCITEGIC>MOL_PROPERTY
VdW12
SciTegic.value.DoubleValue
6.830

@<SCITEGIC>MOL_PROPERTY
Bond
SciTegic.value.DoubleValue
0.185

@<SCITEGIC>MOL_PROPERTY
Angle
SciTegic.value.DoubleValue
0.693

@<SCITEGIC>MOL_PROPERTY
Pdih
SciTegic.value.DoubleValue
1.631

@<SCITEGIC>MOL_PROPERTY
Idih
SciTegic.value.DoubleValue
0.000

@<SCITEGIC>MOL_PROPERTY
Tether
SciTegic.value.DoubleValue
0.000

@<TRIPOS>MOLECULE
guest-s12_vm2.mol2 : vm2 ligand conformer 30
          26          25           1
SMALL
USER_CHARGES
 
@<TRIPOS>ATOM
       1    N1      19.470909   19.497043   25.776464 N.4        1 MOL1        -0.4857
       2    H1      18.625663   18.916937   25.893698 H          1 MOL1         0.3650
       3    H2      19.217867   20.217421   25.083524 H          1 MOL1         0.3650
       4    C1      20.615879   18.650932   25.253939 C.3        1 MOL1         0.0209
       5    H3      20.848754   17.904158   26.017300 H          1 MOL1         0.0967
       6    H4      21.487353   19.299477   25.134100 H          1 MOL1         0.0967
       7    C2      20.310874   17.940317   23.920494 C.3        1 MOL1        -0.1378
       8    H5      21.153892   17.279298   23.678992 H          1 MOL1         0.0993
       9    H6      19.431446   17.294041   24.042421 H          1 MOL1         0.0993
      10    C3      20.085933   18.930256   22.752759 C.3        1 MOL1        -0.1338
      11    H7      20.958716   19.591525   22.670648 H          1 MOL1         0.0993
      12    H8      19.218635   19.569170   22.965540 H          1 MOL1         0.0993
      13    C4      19.857090   18.191671   21.411957 C.3        1 MOL1        -0.1338
      14    H9      20.744526   17.594253   21.161167 H          1 MOL1         0.0993
      15    H10     19.029104   17.479199   21.531396 H          1 MOL1         0.0993
      16    C5      19.523292   19.139395   20.234289 C.3        1 MOL1        -0.1313
      17    H11     18.621191   19.721413   20.469389 H          1 MOL1         0.0993
      18    H12     19.275259   18.532014   19.352556 H          1 MOL1         0.0993
      19    C6      20.679807   20.097865   19.869216 C.3        1 MOL1        -0.2328
      20    H13     21.602254   19.541554   19.658012 H          1 MOL1         0.1004
      21    H14     20.884743   20.809766   20.678281 H          1 MOL1         0.1004
      22    H15     20.427453   20.680706   18.973928 H          1 MOL1         0.1004
      23    C7      19.864217   20.142520   27.097884 C.3        1 MOL1        -0.0781
      24    H16     20.740673   20.775266   26.941688 H          1 MOL1         0.0978
      25    H17     19.031803   20.748611   27.462387 H          1 MOL1         0.0978
      26    H18     20.096894   19.360643   27.824153 H          1 MOL1         0.0978
@<TRIPOS>BOND
    1     1     2    1
    2     1     3    1
    3     1     4    1
    4     4     5    1
    5     4     6    1
    6     4     7    1
    7     7     8    1
    8     7     9    1
    9     7    10    1
   10    10    11    1
   11    10    12    1
   12    10    13    1
   13    13    14    1
   14    13    15    1
   15    13    16    1
   16    16    17    1
   17    16    18    1
   18    16    19    1
   19    19    20    1
   20    19    21    1
   21    19    22    1
   22     1    23    1
   23    23    24    1
   24    23    25    1
   25    23    26    1
@<TRIPOS>SUBSTRUCTURE
       1 MOL1            1 RESIDUE      1      MOL     
@<SCITEGIC>MOL_PROPERTY
VM2 Rank
SciTegic.value.IntegerValue
30

@<SCITEGIC>MOL_PROPERTY
Conf_Id
SciTegic.value.IntegerValue
975

@<SCITEGIC>MOL_PROPERTY
Probability
SciTegic.value.DoubleValue
1.04

@<SCITEGIC>MOL_PROPERTY
Sum Probability
SciTegic.value.DoubleValue
62.20

@<SCITEGIC>MOL_PROPERTY
Delta G
SciTegic.value.DoubleValue
1.111

@<SCITEGIC>MOL_PROPERTY
G
SciTegic.value.DoubleValue
76.577

@<SCITEGIC>MOL_PROPERTY
E
SciTegic.value.DoubleValue
44.211

@<SCITEGIC>MOL_PROPERTY
-TS
SciTegic.value.DoubleValue
32.367

@<SCITEGIC>MOL_PROPERTY
U+W
SciTegic.value.DoubleValue
22.749

@<SCITEGIC>MOL_PROPERTY
U
SciTegic.value.DoubleValue
71.833

@<SCITEGIC>MOL_PROPERTY
W
SciTegic.value.DoubleValue
-49.084

@<SCITEGIC>MOL_PROPERTY
W(PB)
SciTegic.value.DoubleValue
-51.405

@<SCITEGIC>MOL_PROPERTY
W(SA)
SciTegic.value.DoubleValue
2.321

@<SCITEGIC>MOL_PROPERTY
Valence
SciTegic.value.DoubleValue
2.344

@<SCITEGIC>MOL_PROPERTY
Coulomb
SciTegic.value.DoubleValue
69.159

@<SCITEGIC>MOL_PROPERTY
VdW
SciTegic.value.DoubleValue
0.330

@<SCITEGIC>MOL_PROPERTY
VdW6
SciTegic.value.DoubleValue
-6.475

@<SCITEGIC>MOL_PROPERTY
VdW12
SciTegic.value.DoubleValue
6.805

@<SCITEGIC>MOL_PROPERTY
Bond
SciTegic.value.DoubleValue
0.178

@<SCITEGIC>MOL_PROPERTY
Angle
SciTegic.value.DoubleValue
0.658

@<SCITEGIC>MOL_PROPERTY
Pdih
SciTegic.value.DoubleValue
1.508

@<SCITEGIC>MOL_PROPERTY
Idih
SciTegic.value.DoubleValue
0.000

@<SCITEGIC>MOL_PROPERTY
Tether
SciTegic.value.DoubleValue
0.000

@<TRIPOS>MOLECULE
guest-s12_vm2.mol2 : vm2 ligand conformer 31
          26          25           1
SMALL
USER_CHARGES
 
@<TRIPOS>ATOM
       1    N1      20.425434   19.610853   25.809303 N.4        1 MOL1        -0.4857
       2    H1      20.076545   20.465964   25.350751 H          1 MOL1         0.3650
       3    H2      21.436759   19.581276   25.606910 H          1 MOL1         0.3650
       4    C1      19.740422   18.390477   25.225145 C.3        1 MOL1         0.0209
       5    H3      18.673536   18.462108   25.451106 H          1 MOL1         0.0967
       6    H4      20.139444   17.511282   25.737408 H          1 MOL1         0.0967
       7    C2      19.939057   18.230576   23.705044 C.3        1 MOL1        -0.1378
       8    H5      21.012452   18.157839   23.489289 H          1 MOL1         0.0993
       9    H6      19.490086   17.277687   23.394910 H          1 MOL1         0.0993
      10    C3      19.299299   19.387068   22.896487 C.3        1 MOL1        -0.1338
      11    H7      19.801390   20.335147   23.131187 H          1 MOL1         0.0993
      12    H8      18.252649   19.505045   23.210077 H          1 MOL1         0.0993
      13    C4      19.329579   19.159333   21.365006 C.3        1 MOL1        -0.1338
      14    H9      18.807307   18.223930   21.120892 H          1 MOL1         0.0993
      15    H10     18.759426   19.964812   20.881707 H          1 MOL1         0.0993
      16    C5      20.758399   19.129117   20.772061 C.3        1 MOL1        -0.1313
      17    H11     21.323177   18.283167   21.185819 H          1 MOL1         0.0993
      18    H12     21.298299   20.042835   21.057349 H          1 MOL1         0.0993
      19    C6      20.733821   19.009468   19.233211 C.3        1 MOL1        -0.2328
      20    H13     21.754465   18.986578   18.829752 H          1 MOL1         0.1004
      21    H14     20.211540   19.861396   18.778649 H          1 MOL1         0.1004
      22    H15     20.226015   18.088954   18.916995 H          1 MOL1         0.1004
      23    C7      20.181988   19.673108   27.310741 C.3        1 MOL1        -0.0781
      24    H16     20.587242   18.772793   27.777791 H          1 MOL1         0.0978
      25    H17     20.679703   20.555956   27.718147 H          1 MOL1         0.0978
      26    H18     19.107785   19.735767   27.498092 H          1 MOL1         0.0978
@<TRIPOS>BOND
    1     1     2    1
    2     1     3    1
    3     1     4    1
    4     4     5    1
    5     4     6    1
    6     4     7    1
    7     7     8    1
    8     7     9    1
    9     7    10    1
   10    10    11    1
   11    10    12    1
   12    10    13    1
   13    13    14    1
   14    13    15    1
   15    13    16    1
   16    16    17    1
   17    16    18    1
   18    16    19    1
   19    19    20    1
   20    19    21    1
   21    19    22    1
   22     1    23    1
   23    23    24    1
   24    23    25    1
   25    23    26    1
@<TRIPOS>SUBSTRUCTURE
       1 MOL1            1 RESIDUE      1      MOL     
@<SCITEGIC>MOL_PROPERTY
VM2 Rank
SciTegic.value.IntegerValue
31

@<SCITEGIC>MOL_PROPERTY
Conf_Id
SciTegic.value.IntegerValue
1492

@<SCITEGIC>MOL_PROPERTY
Probability
SciTegic.value.DoubleValue
1.03

@<SCITEGIC>MOL_PROPERTY
Sum Probability
SciTegic.value.DoubleValue
63.23

@<SCITEGIC>MOL_PROPERTY
Delta G
SciTegic.value.DoubleValue
1.119

@<SCITEGIC>MOL_PROPERTY
G
SciTegic.value.DoubleValue
76.585

@<SCITEGIC>MOL_PROPERTY
E
SciTegic.value.DoubleValue
44.220

@<SCITEGIC>MOL_PROPERTY
-TS
SciTegic.value.DoubleValue
32.365

@<SCITEGIC>MOL_PROPERTY
U+W
SciTegic.value.DoubleValue
22.758

@<SCITEGIC>MOL_PROPERTY
U
SciTegic.value.DoubleValue
71.994

@<SCITEGIC>MOL_PROPERTY
W
SciTegic.value.DoubleValue
-49.236

@<SCITEGIC>MOL_PROPERTY
W(PB)
SciTegic.value.DoubleValue
-51.536

@<SCITEGIC>MOL_PROPERTY
W(SA)
SciTegic.value.DoubleValue
2.300

@<SCITEGIC>MOL_PROPERTY
Valence
SciTegic.value.DoubleValue
2.376

@<SCITEGIC>MOL_PROPERTY
Coulomb
SciTegic.value.DoubleValue
69.315

@<SCITEGIC>MOL_PROPERTY
VdW
SciTegic.value.DoubleValue
0.303

@<SCITEGIC>MOL_PROPERTY
VdW6
SciTegic.value.DoubleValue
-6.508

@<SCITEGIC>MOL_PROPERTY
VdW12
SciTegic.value.DoubleValue
6.810

@<SCITEGIC>MOL_PROPERTY
Bond
SciTegic.value.DoubleValue
0.182

@<SCITEGIC>MOL_PROPERTY
Angle
SciTegic.value.DoubleValue
0.660

@<SCITEGIC>MOL_PROPERTY
Pdih
SciTegic.value.DoubleValue
1.534

@<SCITEGIC>MOL_PROPERTY
Idih
SciTegic.value.DoubleValue
0.000

@<SCITEGIC>MOL_PROPERTY
Tether
SciTegic.value.DoubleValue
0.000

@<TRIPOS>MOLECULE
guest-s12_vm2.mol2 : vm2 ligand conformer 32
          26          25           1
SMALL
USER_CHARGES
 
@<TRIPOS>ATOM
       1    N1      20.025095   18.953421   26.266738 N.4        1 MOL1        -0.4857
       2    H1      20.997071   18.666341   26.460765 H          1 MOL1         0.3650
       3    H2      19.436815   18.174877   26.602324 H          1 MOL1         0.3650
       4    C1      19.826559   19.154852   24.777982 C.3        1 MOL1         0.0209
       5    H3      20.469416   19.981082   24.465248 H          1 MOL1         0.0967
       6    H4      18.786043   19.446554   24.614716 H          1 MOL1         0.0967
       7    C2      20.149367   17.899295   23.945231 C.3        1 MOL1        -0.1378
       8    H5      21.193870   17.604054   24.111923 H          1 MOL1         0.0993
       9    H6      19.527084   17.065351   24.296241 H          1 MOL1         0.0993
      10    C3      19.902828   18.108183   22.432428 C.3        1 MOL1        -0.1338
      11    H7      18.847483   18.366603   22.273235 H          1 MOL1         0.0993
      12    H8      20.072785   17.155401   21.912287 H          1 MOL1         0.0993
      13    C4      20.816590   19.196929   21.814593 C.3        1 MOL1        -0.1338
      14    H9      20.589574   20.176454   22.256380 H          1 MOL1         0.0993
      15    H10     21.862032   18.976120   22.070800 H          1 MOL1         0.0993
      16    C5      20.698884   19.295314   20.274293 C.3        1 MOL1        -0.1313
      17    H11     20.953050   18.327829   19.819108 H          1 MOL1         0.0993
      18    H12     21.446931   20.012493   19.908280 H          1 MOL1         0.0993
      19    C6      19.300326   19.744752   19.793233 C.3        1 MOL1        -0.2328
      20    H13     19.011048   20.697718   20.254930 H          1 MOL1         0.1004
      21    H14     18.532372   18.999003   20.033169 H          1 MOL1         0.1004
      22    H15     19.295134   19.884475   18.704484 H          1 MOL1         0.1004
      23    C7      19.688351   20.237255   27.012501 C.3        1 MOL1        -0.0781
      24    H16     18.646759   20.502624   26.818527 H          1 MOL1         0.0978
      25    H17     19.835312   20.078594   28.083189 H          1 MOL1         0.0978
      26    H18     20.345225   21.037554   26.664663 H          1 MOL1         0.0978
@<TRIPOS>BOND
    1     1     2    1
    2     1     3    1
    3     1     4    1
    4     4     5    1
    5     4     6    1
    6     4     7    1
    7     7     8    1
    8     7     9    1
    9     7    10    1
   10    10    11    1
   11    10    12    1
   12    10    13    1
   13    13    14    1
   14    13    15    1
   15    13    16    1
   16    16    17    1
   17    16    18    1
   18    16    19    1
   19    19    20    1
   20    19    21    1
   21    19    22    1
   22     1    23    1
   23    23    24    1
   24    23    25    1
   25    23    26    1
@<TRIPOS>SUBSTRUCTURE
       1 MOL1            1 RESIDUE      1      MOL     
@<SCITEGIC>MOL_PROPERTY
VM2 Rank
SciTegic.value.IntegerValue
32

@<SCITEGIC>MOL_PROPERTY
Conf_Id
SciTegic.value.IntegerValue
978

@<SCITEGIC>MOL_PROPERTY
Probability
SciTegic.value.DoubleValue
1.02

@<SCITEGIC>MOL_PROPERTY
Sum Probability
SciTegic.value.DoubleValue
64.25

@<SCITEGIC>MOL_PROPERTY
Delta G
SciTegic.value.DoubleValue
1.121

@<SCITEGIC>MOL_PROPERTY
G
SciTegic.value.DoubleValue
76.588

@<SCITEGIC>MOL_PROPERTY
E
SciTegic.value.DoubleValue
44.209

@<SCITEGIC>MOL_PROPERTY
-TS
SciTegic.value.DoubleValue
32.379

@<SCITEGIC>MOL_PROPERTY
U+W
SciTegic.value.DoubleValue
22.747

@<SCITEGIC>MOL_PROPERTY
U
SciTegic.value.DoubleValue
71.734

@<SCITEGIC>MOL_PROPERTY
W
SciTegic.value.DoubleValue
-48.987

@<SCITEGIC>MOL_PROPERTY
W(PB)
SciTegic.value.DoubleValue
-51.298

@<SCITEGIC>MOL_PROPERTY
W(SA)
SciTegic.value.DoubleValue
2.311

@<SCITEGIC>MOL_PROPERTY
Valence
SciTegic.value.DoubleValue
2.508

@<SCITEGIC>MOL_PROPERTY
Coulomb
SciTegic.value.DoubleValue
68.926

@<SCITEGIC>MOL_PROPERTY
VdW
SciTegic.value.DoubleValue
0.300

@<SCITEGIC>MOL_PROPERTY
VdW6
SciTegic.value.DoubleValue
-6.530

@<SCITEGIC>MOL_PROPERTY
VdW12
SciTegic.value.DoubleValue
6.830

@<SCITEGIC>MOL_PROPERTY
Bond
SciTegic.value.DoubleValue
0.185

@<SCITEGIC>MOL_PROPERTY
Angle
SciTegic.value.DoubleValue
0.693

@<SCITEGIC>MOL_PROPERTY
Pdih
SciTegic.value.DoubleValue
1.631

@<SCITEGIC>MOL_PROPERTY
Idih
SciTegic.value.DoubleValue
0.000

@<SCITEGIC>MOL_PROPERTY
Tether
SciTegic.value.DoubleValue
0.000

@<TRIPOS>MOLECULE
guest-s12_vm2.mol2 : vm2 ligand conformer 33
          26          25           1
SMALL
USER_CHARGES
 
@<TRIPOS>ATOM
       1    N1      19.787080   19.695606   25.554999 N.4        1 MOL1        -0.4857
       2    H1      18.877238   19.611784   26.034366 H          1 MOL1         0.3650
       3    H2      19.626243   20.339693   24.766086 H          1 MOL1         0.3650
       4    C1      20.229697   18.341570   25.035960 C.3        1 MOL1         0.0209
       5    H3      20.376362   17.687729   25.899417 H          1 MOL1         0.0967
       6    H4      21.194799   18.470093   24.540266 H          1 MOL1         0.0967
       7    C2      19.226630   17.687836   24.063020 C.3        1 MOL1        -0.1378
       8    H5      19.605125   16.695964   23.782370 H          1 MOL1         0.0993
       9    H6      18.277343   17.515307   24.587323 H          1 MOL1         0.0993
      10    C3      18.960799   18.514646   22.779663 C.3        1 MOL1        -0.1338
      11    H7      18.489512   19.471359   23.041668 H          1 MOL1         0.0993
      12    H8      18.229537   17.974756   22.162206 H          1 MOL1         0.0993
      13    C4      20.238208   18.771720   21.944245 C.3        1 MOL1        -0.1338
      14    H9      20.962027   19.352208   22.531713 H          1 MOL1         0.0993
      15    H10     20.718962   17.813124   21.704683 H          1 MOL1         0.0993
      16    C5      19.925153   19.530759   20.635495 C.3        1 MOL1        -0.1313
      17    H11     19.442082   20.489976   20.868914 H          1 MOL1         0.0993
      18    H12     19.209032   18.953841   20.033562 H          1 MOL1         0.0993
      19    C6      21.200333   19.788880   19.804749 C.3        1 MOL1        -0.2328
      20    H13     21.922707   20.394342   20.367585 H          1 MOL1         0.1004
      21    H14     20.957874   20.327843   18.879682 H          1 MOL1         0.1004
      22    H15     21.688183   18.845539   19.526704 H          1 MOL1         0.1004
      23    C7      20.840100   20.258984   26.498869 C.3        1 MOL1        -0.0781
      24    H16     20.509219   21.233822   26.863991 H          1 MOL1         0.0978
      25    H17     20.970719   19.574947   27.340267 H          1 MOL1         0.0978
      26    H18     21.784002   20.367665   25.960218 H          1 MOL1         0.0978
@<TRIPOS>BOND
    1     1     2    1
    2     1     3    1
    3     1     4    1
    4     4     5    1
    5     4     6    1
    6     4     7    1
    7     7     8    1
    8     7     9    1
    9     7    10    1
   10    10    11    1
   11    10    12    1
   12    10    13    1
   13    13    14    1
   14    13    15    1
   15    13    16    1
   16    16    17    1
   17    16    18    1
   18    16    19    1
   19    19    20    1
   20    19    21    1
   21    19    22    1
   22     1    23    1
   23    23    24    1
   24    23    25    1
   25    23    26    1
@<TRIPOS>SUBSTRUCTURE
       1 MOL1            1 RESIDUE      1      MOL     
@<SCITEGIC>MOL_PROPERTY
VM2 Rank
SciTegic.value.IntegerValue
33

@<SCITEGIC>MOL_PROPERTY
Conf_Id
SciTegic.value.IntegerValue
129

@<SCITEGIC>MOL_PROPERTY
Probability
SciTegic.value.DoubleValue
0.98

@<SCITEGIC>MOL_PROPERTY
Sum Probability
SciTegic.value.DoubleValue
65.23

@<SCITEGIC>MOL_PROPERTY
Delta G
SciTegic.value.DoubleValue
1.145

@<SCITEGIC>MOL_PROPERTY
G
SciTegic.value.DoubleValue
76.612

@<SCITEGIC>MOL_PROPERTY
E
SciTegic.value.DoubleValue
44.169

@<SCITEGIC>MOL_PROPERTY
-TS
SciTegic.value.DoubleValue
32.443

@<SCITEGIC>MOL_PROPERTY
U+W
SciTegic.value.DoubleValue
22.707

@<SCITEGIC>MOL_PROPERTY
U
SciTegic.value.DoubleValue
71.905

@<SCITEGIC>MOL_PROPERTY
W
SciTegic.value.DoubleValue
-49.198

@<SCITEGIC>MOL_PROPERTY
W(PB)
SciTegic.value.DoubleValue
-51.490

@<SCITEGIC>MOL_PROPERTY
W(SA)
SciTegic.value.DoubleValue
2.292

@<SCITEGIC>MOL_PROPERTY
Valence
SciTegic.value.DoubleValue
2.125

@<SCITEGIC>MOL_PROPERTY
Coulomb
SciTegic.value.DoubleValue
69.686

@<SCITEGIC>MOL_PROPERTY
VdW
SciTegic.value.DoubleValue
0.094

@<SCITEGIC>MOL_PROPERTY
VdW6
SciTegic.value.DoubleValue
-6.766

@<SCITEGIC>MOL_PROPERTY
VdW12
SciTegic.value.DoubleValue
6.860

@<SCITEGIC>MOL_PROPERTY
Bond
SciTegic.value.DoubleValue
0.169

@<SCITEGIC>MOL_PROPERTY
Angle
SciTegic.value.DoubleValue
0.621

@<SCITEGIC>MOL_PROPERTY
Pdih
SciTegic.value.DoubleValue
1.336

@<SCITEGIC>MOL_PROPERTY
Idih
SciTegic.value.DoubleValue
0.000

@<SCITEGIC>MOL_PROPERTY
Tether
SciTegic.value.DoubleValue
0.000

@<TRIPOS>MOLECULE
guest-s12_vm2.mol2 : vm2 ligand conformer 34
          26          25           1
SMALL
USER_CHARGES
 
@<TRIPOS>ATOM
       1    N1      20.424351   18.802508   25.941268 N.4        1 MOL1        -0.4857
       2    H1      21.189863   18.142158   25.734983 H          1 MOL1         0.3650
       3    H2      19.748308   18.270051   26.510703 H          1 MOL1         0.3650
       4    C1      19.772661   19.266971   24.654493 C.3        1 MOL1         0.0209
       5    H3      20.521383   19.820954   24.083122 H          1 MOL1         0.0967
       6    H4      18.962278   19.951800   24.916542 H          1 MOL1         0.0967
       7    C2      19.218399   18.110904   23.800196 C.3        1 MOL1        -0.1378
       8    H5      20.029097   17.415866   23.547143 H          1 MOL1         0.0993
       9    H6      18.497095   17.537082   24.397086 H          1 MOL1         0.0993
      10    C3      18.518174   18.602673   22.508710 C.3        1 MOL1        -0.1338
      11    H7      17.626994   19.182452   22.786494 H          1 MOL1         0.0993
      12    H8      18.148867   17.731878   21.949568 H          1 MOL1         0.0993
      13    C4      19.402901   19.468723   21.574575 C.3        1 MOL1        -0.1338
      14    H9      18.796578   19.775569   20.711085 H          1 MOL1         0.0993
      15    H10     19.692003   20.397336   22.084816 H          1 MOL1         0.0993
      16    C5      20.667893   18.737770   21.065601 C.3        1 MOL1        -0.1313
      17    H11     20.382388   17.788146   20.591821 H          1 MOL1         0.0993
      18    H12     21.326370   18.488248   21.908284 H          1 MOL1         0.0993
      19    C6      21.454699   19.598320   20.054095 C.3        1 MOL1        -0.2328
      20    H13     22.349434   19.066217   19.705786 H          1 MOL1         0.1004
      21    H14     21.780386   20.542986   20.508762 H          1 MOL1         0.1004
      22    H15     20.841089   19.835568   19.175245 H          1 MOL1         0.1004
      23    C7      20.948922   20.002132   26.718061 C.3        1 MOL1        -0.0781
      24    H16     20.116827   20.669365   26.953370 H          1 MOL1         0.0978
      25    H17     21.415426   19.654141   27.642405 H          1 MOL1         0.0978
      26    H18     21.685968   20.530073   26.108972 H          1 MOL1         0.0978
@<TRIPOS>BOND
    1     1     2    1
    2     1     3    1
    3     1     4    1
    4     4     5    1
    5     4     6    1
    6     4     7    1
    7     7     8    1
    8     7     9    1
    9     7    10    1
   10    10    11    1
   11    10    12    1
   12    10    13    1
   13    13    14    1
   14    13    15    1
   15    13    16    1
   16    16    17    1
   17    16    18    1
   18    16    19    1
   19    19    20    1
   20    19    21    1
   21    19    22    1
   22     1    23    1
   23    23    24    1
   24    23    25    1
   25    23    26    1
@<TRIPOS>SUBSTRUCTURE
       1 MOL1            1 RESIDUE      1      MOL     
@<SCITEGIC>MOL_PROPERTY
VM2 Rank
SciTegic.value.IntegerValue
34

@<SCITEGIC>MOL_PROPERTY
Conf_Id
SciTegic.value.IntegerValue
1489

@<SCITEGIC>MOL_PROPERTY
Probability
SciTegic.value.DoubleValue
0.97

@<SCITEGIC>MOL_PROPERTY
Sum Probability
SciTegic.value.DoubleValue
66.21

@<SCITEGIC>MOL_PROPERTY
Delta G
SciTegic.value.DoubleValue
1.151

@<SCITEGIC>MOL_PROPERTY
G
SciTegic.value.DoubleValue
76.617

@<SCITEGIC>MOL_PROPERTY
E
SciTegic.value.DoubleValue
44.120

@<SCITEGIC>MOL_PROPERTY
-TS
SciTegic.value.DoubleValue
32.497

@<SCITEGIC>MOL_PROPERTY
U+W
SciTegic.value.DoubleValue
22.659

@<SCITEGIC>MOL_PROPERTY
U
SciTegic.value.DoubleValue
72.035

@<SCITEGIC>MOL_PROPERTY
W
SciTegic.value.DoubleValue
-49.377

@<SCITEGIC>MOL_PROPERTY
W(PB)
SciTegic.value.DoubleValue
-51.686

@<SCITEGIC>MOL_PROPERTY
W(SA)
SciTegic.value.DoubleValue
2.310

@<SCITEGIC>MOL_PROPERTY
Valence
SciTegic.value.DoubleValue
2.479

@<SCITEGIC>MOL_PROPERTY
Coulomb
SciTegic.value.DoubleValue
69.414

@<SCITEGIC>MOL_PROPERTY
VdW
SciTegic.value.DoubleValue
0.142

@<SCITEGIC>MOL_PROPERTY
VdW6
SciTegic.value.DoubleValue
-6.882

@<SCITEGIC>MOL_PROPERTY
VdW12
SciTegic.value.DoubleValue
7.024

@<SCITEGIC>MOL_PROPERTY
Bond
SciTegic.value.DoubleValue
0.193

@<SCITEGIC>MOL_PROPERTY
Angle
SciTegic.value.DoubleValue
0.854

@<SCITEGIC>MOL_PROPERTY
Pdih
SciTegic.value.DoubleValue
1.433

@<SCITEGIC>MOL_PROPERTY
Idih
SciTegic.value.DoubleValue
0.000

@<SCITEGIC>MOL_PROPERTY
Tether
SciTegic.value.DoubleValue
0.000

@<TRIPOS>MOLECULE
guest-s12_vm2.mol2 : vm2 ligand conformer 35
          26          25           1
SMALL
USER_CHARGES
 
@<TRIPOS>ATOM
       1    N1      20.023431   19.719952   25.563436 N.4        1 MOL1        -0.4857
       2    H1      20.104441   20.389036   24.783137 H          1 MOL1         0.3650
       3    H2      20.895407   19.819859   26.105936 H          1 MOL1         0.3650
       4    C1      19.903582   18.307939   25.024383 C.3        1 MOL1         0.0209
       5    H3      18.969667   18.240628   24.461420 H          1 MOL1         0.0967
       6    H4      19.833204   17.631658   25.880108 H          1 MOL1         0.0967
       7    C2      21.084455   17.879526   24.128772 C.3        1 MOL1        -0.1378
       8    H5      22.009908   17.900378   24.719458 H          1 MOL1         0.0993
       9    H6      20.936738   16.833379   23.829458 H          1 MOL1         0.0993
      10    C3      21.265256   18.752444   22.861250 C.3        1 MOL1        -0.1338
      11    H7      22.132611   18.377486   22.300376 H          1 MOL1         0.0993
      12    H8      21.512051   19.783232   23.148698 H          1 MOL1         0.0993
      13    C4      20.023906   18.749692   21.936679 C.3        1 MOL1        -0.1338
      14    H9      19.766581   17.714959   21.671104 H          1 MOL1         0.0993
      15    H10     19.157688   19.166270   22.467835 H          1 MOL1         0.0993
      16    C5      20.266447   19.565881   20.647503 C.3        1 MOL1        -0.1313
      17    H11     21.125395   19.151282   20.101333 H          1 MOL1         0.0993
      18    H12     20.526395   20.601729   20.907097 H          1 MOL1         0.0993
      19    C6      19.026696   19.564616   19.727790 C.3        1 MOL1        -0.2328
      20    H13     19.218309   20.148249   18.818024 H          1 MOL1         0.1004
      21    H14     18.158544   20.006132   20.234317 H          1 MOL1         0.1004
      22    H15     18.761990   18.543653   19.423216 H          1 MOL1         0.1004
      23    C7      18.814227   20.049949   26.427188 C.3        1 MOL1        -0.0781
      24    H16     18.767174   19.347495   27.262211 H          1 MOL1         0.0978
      25    H17     18.913078   21.069056   26.807651 H          1 MOL1         0.0978
      26    H18     17.908075   19.967926   25.822978 H          1 MOL1         0.0978
@<TRIPOS>BOND
    1     1     2    1
    2     1     3    1
    3     1     4    1
    4     4     5    1
    5     4     6    1
    6     4     7    1
    7     7     8    1
    8     7     9    1
    9     7    10    1
   10    10    11    1
   11    10    12    1
   12    10    13    1
   13    13    14    1
   14    13    15    1
   15    13    16    1
   16    16    17    1
   17    16    18    1
   18    16    19    1
   19    19    20    1
   20    19    21    1
   21    19    22    1
   22     1    23    1
   23    23    24    1
   24    23    25    1
   25    23    26    1
@<TRIPOS>SUBSTRUCTURE
       1 MOL1            1 RESIDUE      1      MOL     
@<SCITEGIC>MOL_PROPERTY
VM2 Rank
SciTegic.value.IntegerValue
35

@<SCITEGIC>MOL_PROPERTY
Conf_Id
SciTegic.value.IntegerValue
1341

@<SCITEGIC>MOL_PROPERTY
Probability
SciTegic.value.DoubleValue
0.95

@<SCITEGIC>MOL_PROPERTY
Sum Probability
SciTegic.value.DoubleValue
67.16

@<SCITEGIC>MOL_PROPERTY
Delta G
SciTegic.value.DoubleValue
1.164

@<SCITEGIC>MOL_PROPERTY
G
SciTegic.value.DoubleValue
76.631

@<SCITEGIC>MOL_PROPERTY
E
SciTegic.value.DoubleValue
44.187

@<SCITEGIC>MOL_PROPERTY
-TS
SciTegic.value.DoubleValue
32.443

@<SCITEGIC>MOL_PROPERTY
U+W
SciTegic.value.DoubleValue
22.726

@<SCITEGIC>MOL_PROPERTY
U
SciTegic.value.DoubleValue
71.905

@<SCITEGIC>MOL_PROPERTY
W
SciTegic.value.DoubleValue
-49.180

@<SCITEGIC>MOL_PROPERTY
W(PB)
SciTegic.value.DoubleValue
-51.495

@<SCITEGIC>MOL_PROPERTY
W(SA)
SciTegic.value.DoubleValue
2.315

@<SCITEGIC>MOL_PROPERTY
Valence
SciTegic.value.DoubleValue
2.125

@<SCITEGIC>MOL_PROPERTY
Coulomb
SciTegic.value.DoubleValue
69.686

@<SCITEGIC>MOL_PROPERTY
VdW
SciTegic.value.DoubleValue
0.094

@<SCITEGIC>MOL_PROPERTY
VdW6
SciTegic.value.DoubleValue
-6.766

@<SCITEGIC>MOL_PROPERTY
VdW12
SciTegic.value.DoubleValue
6.860

@<SCITEGIC>MOL_PROPERTY
Bond
SciTegic.value.DoubleValue
0.169

@<SCITEGIC>MOL_PROPERTY
Angle
SciTegic.value.DoubleValue
0.621

@<SCITEGIC>MOL_PROPERTY
Pdih
SciTegic.value.DoubleValue
1.336

@<SCITEGIC>MOL_PROPERTY
Idih
SciTegic.value.DoubleValue
0.000

@<SCITEGIC>MOL_PROPERTY
Tether
SciTegic.value.DoubleValue
0.000

@<TRIPOS>MOLECULE
guest-s12_vm2.mol2 : vm2 ligand conformer 36
          26          25           1
SMALL
USER_CHARGES
 
@<TRIPOS>ATOM
       1    N1      19.399959   19.505525   25.773070 N.4        1 MOL1        -0.4857
       2    H1      18.432380   19.272751   25.500632 H          1 MOL1         0.3650
       3    H2      19.599206   20.416956   25.333978 H          1 MOL1         0.3650
       4    C1      20.357580   18.453870   25.246969 C.3        1 MOL1         0.0209
       5    H3      20.110516   17.508298   25.736324 H          1 MOL1         0.0967
       6    H4      21.369242   18.738946   25.546483 H          1 MOL1         0.0967
       7    C2      20.302345   18.267972   23.717878 C.3        1 MOL1        -0.1378
       8    H5      20.955986   17.428343   23.446710 H          1 MOL1         0.0993
       9    H6      19.283841   17.980403   23.428096 H          1 MOL1         0.0993
      10    C3      20.748928   19.536078   22.947815 C.3        1 MOL1        -0.1338
      11    H7      21.725223   19.861900   23.333075 H          1 MOL1         0.0993
      12    H8      20.049579   20.360715   23.139953 H          1 MOL1         0.0993
      13    C4      20.872861   19.317962   21.419654 C.3        1 MOL1        -0.1338
      14    H9      21.299873   20.225938   20.971672 H          1 MOL1         0.0993
      15    H10     21.590082   18.509967   21.219458 H          1 MOL1         0.0993
      16    C5      19.525091   19.002313   20.728343 C.3        1 MOL1        -0.1313
      17    H11     18.792152   19.785166   20.968558 H          1 MOL1         0.0993
      18    H12     19.116453   18.056276   21.107592 H          1 MOL1         0.0993
      19    C6      19.681170   18.901274   19.195891 C.3        1 MOL1        -0.2328
      20    H13     20.049876   19.844848   18.772912 H          1 MOL1         0.1004
      21    H14     18.717303   18.674288   18.722122 H          1 MOL1         0.1004
      22    H15     20.386373   18.105523   18.922629 H          1 MOL1         0.1004
      23    C7      19.520067   19.605005   27.287380 C.3        1 MOL1        -0.0781
      24    H16     18.826237   20.365449   27.652680 H          1 MOL1         0.0978
      25    H17     19.274373   18.637802   27.731324 H          1 MOL1         0.0978
      26    H18     20.543391   19.883069   27.548974 H          1 MOL1         0.0978
@<TRIPOS>BOND
    1     1     2    1
    2     1     3    1
    3     1     4    1
    4     4     5    1
    5     4     6    1
    6     4     7    1
    7     7     8    1
    8     7     9    1
    9     7    10    1
   10    10    11    1
   11    10    12    1
   12    10    13    1
   13    13    14    1
   14    13    15    1
   15    13    16    1
   16    16    17    1
   17    16    18    1
   18    16    19    1
   19    19    20    1
   20    19    21    1
   21    19    22    1
   22     1    23    1
   23    23    24    1
   24    23    25    1
   25    23    26    1
@<TRIPOS>SUBSTRUCTURE
       1 MOL1            1 RESIDUE      1      MOL     
@<SCITEGIC>MOL_PROPERTY
VM2 Rank
SciTegic.value.IntegerValue
36

@<SCITEGIC>MOL_PROPERTY
Conf_Id
SciTegic.value.IntegerValue
248

@<SCITEGIC>MOL_PROPERTY
Probability
SciTegic.value.DoubleValue
0.90

@<SCITEGIC>MOL_PROPERTY
Sum Probability
SciTegic.value.DoubleValue
68.06

@<SCITEGIC>MOL_PROPERTY
Delta G
SciTegic.value.DoubleValue
1.197

@<SCITEGIC>MOL_PROPERTY
G
SciTegic.value.DoubleValue
76.664

@<SCITEGIC>MOL_PROPERTY
E
SciTegic.value.DoubleValue
44.298

@<SCITEGIC>MOL_PROPERTY
-TS
SciTegic.value.DoubleValue
32.365

@<SCITEGIC>MOL_PROPERTY
U+W
SciTegic.value.DoubleValue
22.837

@<SCITEGIC>MOL_PROPERTY
U
SciTegic.value.DoubleValue
71.994

@<SCITEGIC>MOL_PROPERTY
W
SciTegic.value.DoubleValue
-49.157

@<SCITEGIC>MOL_PROPERTY
W(PB)
SciTegic.value.DoubleValue
-51.476

@<SCITEGIC>MOL_PROPERTY
W(SA)
SciTegic.value.DoubleValue
2.318

@<SCITEGIC>MOL_PROPERTY
Valence
SciTegic.value.DoubleValue
2.376

@<SCITEGIC>MOL_PROPERTY
Coulomb
SciTegic.value.DoubleValue
69.315

@<SCITEGIC>MOL_PROPERTY
VdW
SciTegic.value.DoubleValue
0.303

@<SCITEGIC>MOL_PROPERTY
VdW6
SciTegic.value.DoubleValue
-6.508

@<SCITEGIC>MOL_PROPERTY
VdW12
SciTegic.value.DoubleValue
6.811

@<SCITEGIC>MOL_PROPERTY
Bond
SciTegic.value.DoubleValue
0.182

@<SCITEGIC>MOL_PROPERTY
Angle
SciTegic.value.DoubleValue
0.660

@<SCITEGIC>MOL_PROPERTY
Pdih
SciTegic.value.DoubleValue
1.534

@<SCITEGIC>MOL_PROPERTY
Idih
SciTegic.value.DoubleValue
0.000

@<SCITEGIC>MOL_PROPERTY
Tether
SciTegic.value.DoubleValue
0.000

@<TRIPOS>MOLECULE
guest-s12_vm2.mol2 : vm2 ligand conformer 37
          26          25           1
SMALL
USER_CHARGES
 
@<TRIPOS>ATOM
       1    N1      19.730816   18.729307   26.026802 N.4        1 MOL1        -0.4857
       2    H1      20.116348   17.772655   26.056527 H          1 MOL1         0.3650
       3    H2      18.785463   18.633860   25.626445 H          1 MOL1         0.3650
       4    C1      20.587622   19.609660   25.137381 C.3        1 MOL1         0.0209
       5    H3      21.574867   19.682409   25.600711 H          1 MOL1         0.0967
       6    H4      20.143809   20.608280   25.122067 H          1 MOL1         0.0967
       7    C2      20.738831   19.086857   23.695047 C.3        1 MOL1        -0.1378
       8    H5      21.467476   19.724915   23.179986 H          1 MOL1         0.0993
       9    H6      21.165328   18.075190   23.714910 H          1 MOL1         0.0993
      10    C3      19.399026   19.084941   22.916334 C.3        1 MOL1        -0.1338
      11    H7      18.991852   20.104893   22.877792 H          1 MOL1         0.0993
      12    H8      18.661757   18.479320   23.459620 H          1 MOL1         0.0993
      13    C4      19.519251   18.520538   21.478978 C.3        1 MOL1        -0.1338
      14    H9      19.920018   17.498136   21.516692 H          1 MOL1         0.0993
      15    H10     18.509869   18.439272   21.052346 H          1 MOL1         0.0993
      16    C5      20.391047   19.388712   20.540547 C.3        1 MOL1        -0.1313
      17    H11     21.427289   19.417110   20.902402 H          1 MOL1         0.0993
      18    H12     20.023336   20.424353   20.544652 H          1 MOL1         0.0993
      19    C6      20.381872   18.849007   19.094273 C.3        1 MOL1        -0.2328
      20    H13     19.365085   18.844244   18.680376 H          1 MOL1         0.1004
      21    H14     20.772506   17.823864   19.053101 H          1 MOL1         0.1004
      22    H15     21.006954   19.473912   18.443281 H          1 MOL1         0.1004
      23    C7      19.659535   19.320979   27.427638 C.3        1 MOL1        -0.0781
      24    H16     19.040098   18.678114   28.057040 H          1 MOL1         0.0978
      25    H17     20.667794   19.382781   27.843007 H          1 MOL1         0.0978
      26    H18     19.219546   20.319210   27.373910 H          1 MOL1         0.0978
@<TRIPOS>BOND
    1     1     2    1
    2     1     3    1
    3     1     4    1
    4     4     5    1
    5     4     6    1
    6     4     7    1
    7     7     8    1
    8     7     9    1
    9     7    10    1
   10    10    11    1
   11    10    12    1
   12    10    13    1
   13    13    14    1
   14    13    15    1
   15    13    16    1
   16    16    17    1
   17    16    18    1
   18    16    19    1
   19    19    20    1
   20    19    21    1
   21    19    22    1
   22     1    23    1
   23    23    24    1
   24    23    25    1
   25    23    26    1
@<TRIPOS>SUBSTRUCTURE
       1 MOL1            1 RESIDUE      1      MOL     
@<SCITEGIC>MOL_PROPERTY
VM2 Rank
SciTegic.value.IntegerValue
37

@<SCITEGIC>MOL_PROPERTY
Conf_Id
SciTegic.value.IntegerValue
952

@<SCITEGIC>MOL_PROPERTY
Probability
SciTegic.value.DoubleValue
0.90

@<SCITEGIC>MOL_PROPERTY
Sum Probability
SciTegic.value.DoubleValue
68.95

@<SCITEGIC>MOL_PROPERTY
Delta G
SciTegic.value.DoubleValue
1.200

@<SCITEGIC>MOL_PROPERTY
G
SciTegic.value.DoubleValue
76.667

@<SCITEGIC>MOL_PROPERTY
E
SciTegic.value.DoubleValue
44.336

@<SCITEGIC>MOL_PROPERTY
-TS
SciTegic.value.DoubleValue
32.330

@<SCITEGIC>MOL_PROPERTY
U+W
SciTegic.value.DoubleValue
22.875

@<SCITEGIC>MOL_PROPERTY
U
SciTegic.value.DoubleValue
71.903

@<SCITEGIC>MOL_PROPERTY
W
SciTegic.value.DoubleValue
-49.029

@<SCITEGIC>MOL_PROPERTY
W(PB)
SciTegic.value.DoubleValue
-51.326

@<SCITEGIC>MOL_PROPERTY
W(SA)
SciTegic.value.DoubleValue
2.298

@<SCITEGIC>MOL_PROPERTY
Valence
SciTegic.value.DoubleValue
2.410

@<SCITEGIC>MOL_PROPERTY
Coulomb
SciTegic.value.DoubleValue
69.133

@<SCITEGIC>MOL_PROPERTY
VdW
SciTegic.value.DoubleValue
0.360

@<SCITEGIC>MOL_PROPERTY
VdW6
SciTegic.value.DoubleValue
-6.461

@<SCITEGIC>MOL_PROPERTY
VdW12
SciTegic.value.DoubleValue
6.821

@<SCITEGIC>MOL_PROPERTY
Bond
SciTegic.value.DoubleValue
0.187

@<SCITEGIC>MOL_PROPERTY
Angle
SciTegic.value.DoubleValue
0.708

@<SCITEGIC>MOL_PROPERTY
Pdih
SciTegic.value.DoubleValue
1.514

@<SCITEGIC>MOL_PROPERTY
Idih
SciTegic.value.DoubleValue
0.000

@<SCITEGIC>MOL_PROPERTY
Tether
SciTegic.value.DoubleValue
0.000

@<TRIPOS>MOLECULE
guest-s12_vm2.mol2 : vm2 ligand conformer 38
          26          25           1
SMALL
USER_CHARGES
 
@<TRIPOS>ATOM
       1    N1      19.555966   18.713286   25.910476 N.4        1 MOL1        -0.4857
       2    H1      20.284646   18.325518   26.529719 H          1 MOL1         0.3650
       3    H2      18.957149   17.912474   25.656034 H          1 MOL1         0.3650
       4    C1      20.187968   19.309629   24.669042 C.3        1 MOL1         0.0209
       5    H3      20.821734   20.143138   24.982064 H          1 MOL1         0.0967
       6    H4      19.384072   19.703711   24.042625 H          1 MOL1         0.0967
       7    C2      21.024199   18.296511   23.864161 C.3        1 MOL1        -0.1378
       8    H5      21.803500   17.877160   24.514285 H          1 MOL1         0.0993
       9    H6      20.391537   17.452940   23.560067 H          1 MOL1         0.0993
      10    C3      21.698504   18.929523   22.621302 C.3        1 MOL1        -0.1338
      11    H7      22.275215   18.155948   22.095665 H          1 MOL1         0.0993
      12    H8      22.431645   19.676262   22.956557 H          1 MOL1         0.0993
      13    C4      20.723852   19.604451   21.621343 C.3        1 MOL1        -0.1338
      14    H9      20.217211   20.451324   22.103389 H          1 MOL1         0.0993
      15    H10     21.314077   20.034204   20.800158 H          1 MOL1         0.0993
      16    C5      19.672443   18.635449   21.030472 C.3        1 MOL1        -0.1313
      17    H11     19.021201   18.251235   21.826858 H          1 MOL1         0.0993
      18    H12     20.177304   17.767105   20.584536 H          1 MOL1         0.0993
      19    C6      18.799790   19.325525   19.960413 C.3        1 MOL1        -0.2328
      20    H13     18.058387   18.625277   19.554235 H          1 MOL1         0.1004
      21    H14     19.412231   19.688892   19.124912 H          1 MOL1         0.1004
      22    H15     18.258012   20.180976   20.384523 H          1 MOL1         0.1004
      23    C7      18.745278   19.775625   26.639792 C.3        1 MOL1        -0.0781
      24    H16     17.960674   20.146786   25.976780 H          1 MOL1         0.0978
      25    H17     18.295858   19.333546   27.531825 H          1 MOL1         0.0978
      26    H18     19.405674   20.596554   26.927728 H          1 MOL1         0.0978
@<TRIPOS>BOND
    1     1     2    1
    2     1     3    1
    3     1     4    1
    4     4     5    1
    5     4     6    1
    6     4     7    1
    7     7     8    1
    8     7     9    1
    9     7    10    1
   10    10    11    1
   11    10    12    1
   12    10    13    1
   13    13    14    1
   14    13    15    1
   15    13    16    1
   16    16    17    1
   17    16    18    1
   18    16    19    1
   19    19    20    1
   20    19    21    1
   21    19    22    1
   22     1    23    1
   23    23    24    1
   24    23    25    1
   25    23    26    1
@<TRIPOS>SUBSTRUCTURE
       1 MOL1            1 RESIDUE      1      MOL     
@<SCITEGIC>MOL_PROPERTY
VM2 Rank
SciTegic.value.IntegerValue
38

@<SCITEGIC>MOL_PROPERTY
Conf_Id
SciTegic.value.IntegerValue
1232

@<SCITEGIC>MOL_PROPERTY
Probability
SciTegic.value.DoubleValue
0.89

@<SCITEGIC>MOL_PROPERTY
Sum Probability
SciTegic.value.DoubleValue
69.84

@<SCITEGIC>MOL_PROPERTY
Delta G
SciTegic.value.DoubleValue
1.206

@<SCITEGIC>MOL_PROPERTY
G
SciTegic.value.DoubleValue
76.672

@<SCITEGIC>MOL_PROPERTY
E
SciTegic.value.DoubleValue
44.175

@<SCITEGIC>MOL_PROPERTY
-TS
SciTegic.value.DoubleValue
32.497

@<SCITEGIC>MOL_PROPERTY
U+W
SciTegic.value.DoubleValue
22.714

@<SCITEGIC>MOL_PROPERTY
U
SciTegic.value.DoubleValue
72.035

@<SCITEGIC>MOL_PROPERTY
W
SciTegic.value.DoubleValue
-49.322

@<SCITEGIC>MOL_PROPERTY
W(PB)
SciTegic.value.DoubleValue
-51.621

@<SCITEGIC>MOL_PROPERTY
W(SA)
SciTegic.value.DoubleValue
2.300

@<SCITEGIC>MOL_PROPERTY
Valence
SciTegic.value.DoubleValue
2.479

@<SCITEGIC>MOL_PROPERTY
Coulomb
SciTegic.value.DoubleValue
69.414

@<SCITEGIC>MOL_PROPERTY
VdW
SciTegic.value.DoubleValue
0.142

@<SCITEGIC>MOL_PROPERTY
VdW6
SciTegic.value.DoubleValue
-6.883

@<SCITEGIC>MOL_PROPERTY
VdW12
SciTegic.value.DoubleValue
7.025

@<SCITEGIC>MOL_PROPERTY
Bond
SciTegic.value.DoubleValue
0.193

@<SCITEGIC>MOL_PROPERTY
Angle
SciTegic.value.DoubleValue
0.854

@<SCITEGIC>MOL_PROPERTY
Pdih
SciTegic.value.DoubleValue
1.432

@<SCITEGIC>MOL_PROPERTY
Idih
SciTegic.value.DoubleValue
0.000

@<SCITEGIC>MOL_PROPERTY
Tether
SciTegic.value.DoubleValue
0.000

@<TRIPOS>MOLECULE
guest-s12_vm2.mol2 : vm2 ligand conformer 39
          26          25           1
SMALL
USER_CHARGES
 
@<TRIPOS>ATOM
       1    N1      20.818208   19.196040   25.873963 N.4        1 MOL1        -0.4857
       2    H1      21.432689   19.631344   25.169952 H          1 MOL1         0.3650
       3    H2      21.454876   18.856792   26.612500 H          1 MOL1         0.3650
       4    C1      20.074862   18.018496   25.262563 C.3        1 MOL1         0.0209
       5    H3      19.431169   17.595437   26.037922 H          1 MOL1         0.0967
       6    H4      20.820347   17.264652   24.996885 H          1 MOL1         0.0967
       7    C2      19.228982   18.349270   24.013372 C.3        1 MOL1        -0.1378
       8    H5      18.722480   17.431365   23.686857 H          1 MOL1         0.0993
       9    H6      18.436684   19.061211   24.278403 H          1 MOL1         0.0993
      10    C3      20.076528   18.909107   22.846333 C.3        1 MOL1        -0.1338
      11    H7      20.884879   18.201825   22.618445 H          1 MOL1         0.0993
      12    H8      20.550310   19.852228   23.149502 H          1 MOL1         0.0993
      13    C4      19.218710   19.154495   21.581657 C.3        1 MOL1        -0.1338
      14    H9      18.785911   18.205226   21.236849 H          1 MOL1         0.0993
      15    H10     18.371254   19.803197   21.843249 H          1 MOL1         0.0993
      16    C5      20.003385   19.815410   20.422387 C.3        1 MOL1        -0.1313
      17    H11     20.417233   20.777799   20.754562 H          1 MOL1         0.0993
      18    H12     19.301574   20.047635   19.609119 H          1 MOL1         0.0993
      19    C6      21.137881   18.927177   19.862554 C.3        1 MOL1        -0.2328
      20    H13     21.599951   19.400970   18.986807 H          1 MOL1         0.1004
      21    H14     20.754698   17.947050   19.550278 H          1 MOL1         0.1004
      22    H15     21.928860   18.766750   20.605519 H          1 MOL1         0.1004
      23    C7      19.849444   20.220006   26.454171 C.3        1 MOL1        -0.0781
      24    H16     19.223386   20.618797   25.653425 H          1 MOL1         0.0978
      25    H17     19.224512   19.735733   27.207646 H          1 MOL1         0.0978
      26    H18     20.419223   21.030919   26.913314 H          1 MOL1         0.0978
@<TRIPOS>BOND
    1     1     2    1
    2     1     3    1
    3     1     4    1
    4     4     5    1
    5     4     6    1
    6     4     7    1
    7     7     8    1
    8     7     9    1
    9     7    10    1
   10    10    11    1
   11    10    12    1
   12    10    13    1
   13    13    14    1
   14    13    15    1
   15    13    16    1
   16    16    17    1
   17    16    18    1
   18    16    19    1
   19    19    20    1
   20    19    21    1
   21    19    22    1
   22     1    23    1
   23    23    24    1
   24    23    25    1
   25    23    26    1
@<TRIPOS>SUBSTRUCTURE
       1 MOL1            1 RESIDUE      1      MOL     
@<SCITEGIC>MOL_PROPERTY
VM2 Rank
SciTegic.value.IntegerValue
39

@<SCITEGIC>MOL_PROPERTY
Conf_Id
SciTegic.value.IntegerValue
1036

@<SCITEGIC>MOL_PROPERTY
Probability
SciTegic.value.DoubleValue
0.87

@<SCITEGIC>MOL_PROPERTY
Sum Probability
SciTegic.value.DoubleValue
70.71

@<SCITEGIC>MOL_PROPERTY
Delta G
SciTegic.value.DoubleValue
1.216

@<SCITEGIC>MOL_PROPERTY
G
SciTegic.value.DoubleValue
76.682

@<SCITEGIC>MOL_PROPERTY
E
SciTegic.value.DoubleValue
44.091

@<SCITEGIC>MOL_PROPERTY
-TS
SciTegic.value.DoubleValue
32.591

@<SCITEGIC>MOL_PROPERTY
U+W
SciTegic.value.DoubleValue
22.629

@<SCITEGIC>MOL_PROPERTY
U
SciTegic.value.DoubleValue
72.184

@<SCITEGIC>MOL_PROPERTY
W
SciTegic.value.DoubleValue
-49.554

@<SCITEGIC>MOL_PROPERTY
W(PB)
SciTegic.value.DoubleValue
-51.790

@<SCITEGIC>MOL_PROPERTY
W(SA)
SciTegic.value.DoubleValue
2.236

@<SCITEGIC>MOL_PROPERTY
Valence
SciTegic.value.DoubleValue
2.592

@<SCITEGIC>MOL_PROPERTY
Coulomb
SciTegic.value.DoubleValue
69.072

@<SCITEGIC>MOL_PROPERTY
VdW
SciTegic.value.DoubleValue
0.519

@<SCITEGIC>MOL_PROPERTY
VdW6
SciTegic.value.DoubleValue
-7.380

@<SCITEGIC>MOL_PROPERTY
VdW12
SciTegic.value.DoubleValue
7.899

@<SCITEGIC>MOL_PROPERTY
Bond
SciTegic.value.DoubleValue
0.219

@<SCITEGIC>MOL_PROPERTY
Angle
SciTegic.value.DoubleValue
0.818

@<SCITEGIC>MOL_PROPERTY
Pdih
SciTegic.value.DoubleValue
1.555

@<SCITEGIC>MOL_PROPERTY
Idih
SciTegic.value.DoubleValue
0.000

@<SCITEGIC>MOL_PROPERTY
Tether
SciTegic.value.DoubleValue
0.000

@<TRIPOS>MOLECULE
guest-s12_vm2.mol2 : vm2 ligand conformer 40
          26          25           1
SMALL
USER_CHARGES
 
@<TRIPOS>ATOM
       1    N1      20.030482   18.753320   26.305873 N.4        1 MOL1        -0.4857
       2    H1      20.820523   18.091954   26.362789 H          1 MOL1         0.3650
       3    H2      19.200763   18.215805   26.601630 H          1 MOL1         0.3650
       4    C1      19.857635   19.240205   24.881259 C.3        1 MOL1         0.0209
       5    H3      20.757216   19.797135   24.609112 H          1 MOL1         0.0967
       6    H4      19.007702   19.926993   24.862441 H          1 MOL1         0.0967
       7    C2      19.624137   18.099167   23.872260 C.3        1 MOL1        -0.1378
       8    H5      20.478008   17.408850   23.890380 H          1 MOL1         0.0993
       9    H6      18.745071   17.519917   24.184736 H          1 MOL1         0.0993
      10    C3      19.399641   18.610728   22.429444 C.3        1 MOL1        -0.1338
      11    H7      18.537788   19.292141   22.412358 H          1 MOL1         0.0993
      12    H8      19.130837   17.753124   21.799168 H          1 MOL1         0.0993
      13    C4      20.642146   19.322971   21.836256 C.3        1 MOL1        -0.1338
      14    H9      20.924923   20.166065   22.480277 H          1 MOL1         0.0993
      15    H10     21.498472   18.634531   21.834820 H          1 MOL1         0.0993
      16    C5      20.415502   19.866906   20.404600 C.3        1 MOL1        -0.1313
      17    H11     21.296170   20.453608   20.107762 H          1 MOL1         0.0993
      18    H12     19.566876   20.565226   20.402013 H          1 MOL1         0.0993
      19    C6      20.180514   18.758391   19.353069 C.3        1 MOL1        -0.2328
      20    H13     19.240752   18.222297   19.533825 H          1 MOL1         0.1004
      21    H14     21.000264   18.028342   19.358465 H          1 MOL1         0.1004
      22    H15     20.123680   19.190830   18.345745 H          1 MOL1         0.1004
      23    C7      20.257944   19.938312   27.234239 C.3        1 MOL1        -0.0781
      24    H16     20.380615   19.573939   28.256652 H          1 MOL1         0.0978
      25    H17     21.158684   20.471425   26.922129 H          1 MOL1         0.0978
      26    H18     19.395456   20.606387   27.181787 H          1 MOL1         0.0978
@<TRIPOS>BOND
    1     1     2    1
    2     1     3    1
    3     1     4    1
    4     4     5    1
    5     4     6    1
    6     4     7    1
    7     7     8    1
    8     7     9    1
    9     7    10    1
   10    10    11    1
   11    10    12    1
   12    10    13    1
   13    13    14    1
   14    13    15    1
   15    13    16    1
   16    16    17    1
   17    16    18    1
   18    16    19    1
   19    19    20    1
   20    19    21    1
   21    19    22    1
   22     1    23    1
   23    23    24    1
   24    23    25    1
   25    23    26    1
@<TRIPOS>SUBSTRUCTURE
       1 MOL1            1 RESIDUE      1      MOL     
@<SCITEGIC>MOL_PROPERTY
VM2 Rank
SciTegic.value.IntegerValue
40

@<SCITEGIC>MOL_PROPERTY
Conf_Id
SciTegic.value.IntegerValue
247

@<SCITEGIC>MOL_PROPERTY
Probability
SciTegic.value.DoubleValue
0.87

@<SCITEGIC>MOL_PROPERTY
Sum Probability
SciTegic.value.DoubleValue
71.59

@<SCITEGIC>MOL_PROPERTY
Delta G
SciTegic.value.DoubleValue
1.216

@<SCITEGIC>MOL_PROPERTY
G
SciTegic.value.DoubleValue
76.683

@<SCITEGIC>MOL_PROPERTY
E
SciTegic.value.DoubleValue
44.337

@<SCITEGIC>MOL_PROPERTY
-TS
SciTegic.value.DoubleValue
32.346

@<SCITEGIC>MOL_PROPERTY
U+W
SciTegic.value.DoubleValue
22.875

@<SCITEGIC>MOL_PROPERTY
U
SciTegic.value.DoubleValue
71.810

@<SCITEGIC>MOL_PROPERTY
W
SciTegic.value.DoubleValue
-48.935

@<SCITEGIC>MOL_PROPERTY
W(PB)
SciTegic.value.DoubleValue
-51.227

@<SCITEGIC>MOL_PROPERTY
W(SA)
SciTegic.value.DoubleValue
2.291

@<SCITEGIC>MOL_PROPERTY
Valence
SciTegic.value.DoubleValue
2.568

@<SCITEGIC>MOL_PROPERTY
Coulomb
SciTegic.value.DoubleValue
68.877

@<SCITEGIC>MOL_PROPERTY
VdW
SciTegic.value.DoubleValue
0.364

@<SCITEGIC>MOL_PROPERTY
VdW6
SciTegic.value.DoubleValue
-6.470

@<SCITEGIC>MOL_PROPERTY
VdW12
SciTegic.value.DoubleValue
6.834

@<SCITEGIC>MOL_PROPERTY
Bond
SciTegic.value.DoubleValue
0.191

@<SCITEGIC>MOL_PROPERTY
Angle
SciTegic.value.DoubleValue
0.752

@<SCITEGIC>MOL_PROPERTY
Pdih
SciTegic.value.DoubleValue
1.625

@<SCITEGIC>MOL_PROPERTY
Idih
SciTegic.value.DoubleValue
0.000

@<SCITEGIC>MOL_PROPERTY
Tether
SciTegic.value.DoubleValue
0.000

@<TRIPOS>MOLECULE
guest-s12_vm2.mol2 : vm2 ligand conformer 41
          26          25           1
SMALL
USER_CHARGES
 
@<TRIPOS>ATOM
       1    N1      19.924600   18.742422   26.302088 N.4        1 MOL1        -0.4857
       2    H1      20.823109   18.381799   26.659106 H          1 MOL1         0.3650
       3    H2      19.282738   17.934471   26.308161 H          1 MOL1         0.3650
       4    C1      20.094774   19.264522   24.889674 C.3        1 MOL1         0.0209
       5    H3      20.787271   20.109255   24.925620 H          1 MOL1         0.0967
       6    H4      19.122420   19.629780   24.551152 H          1 MOL1         0.0967
       7    C2      20.624576   18.201698   23.907695 C.3        1 MOL1        -0.1378
       8    H5      21.578629   17.810210   24.285120 H          1 MOL1         0.0993
       9    H6      19.929042   17.352674   23.870898 H          1 MOL1         0.0993
      10    C3      20.841330   18.758471   22.480517 C.3        1 MOL1        -0.1338
      11    H7      21.321633   17.977591   21.876758 H          1 MOL1         0.0993
      12    H8      21.546437   19.600347   22.518941 H          1 MOL1         0.0993
      13    C4      19.525007   19.208688   21.796720 C.3        1 MOL1        -0.1338
      14    H9      18.827969   18.361216   21.740382 H          1 MOL1         0.0993
      15    H10     19.033110   19.972527   22.413260 H          1 MOL1         0.0993
      16    C5      19.736470   19.797349   20.380517 C.3        1 MOL1        -0.1313
      17    H11     20.424372   20.652886   20.432201 H          1 MOL1         0.0993
      18    H12     18.778287   20.195881   20.018626 H          1 MOL1         0.0993
      19    C6      20.263716   18.766748   19.356011 C.3        1 MOL1        -0.2328
      20    H13     19.610266   17.885939   19.309416 H          1 MOL1         0.1004
      21    H14     21.277523   18.430588   19.605839 H          1 MOL1         0.1004
      22    H15     20.302121   19.208847   18.352015 H          1 MOL1         0.1004
      23    C7      19.397526   19.850102   27.203778 C.3        1 MOL1        -0.0781
      24    H16     18.431714   20.192205   26.825457 H          1 MOL1         0.0978
      25    H17     19.279697   19.461018   28.217619 H          1 MOL1         0.0978
      26    H18     20.108516   20.679224   27.207245 H          1 MOL1         0.0978
@<TRIPOS>BOND
    1     1     2    1
    2     1     3    1
    3     1     4    1
    4     4     5    1
    5     4     6    1
    6     4     7    1
    7     7     8    1
    8     7     9    1
    9     7    10    1
   10    10    11    1
   11    10    12    1
   12    10    13    1
   13    13    14    1
   14    13    15    1
   15    13    16    1
   16    16    17    1
   17    16    18    1
   18    16    19    1
   19    19    20    1
   20    19    21    1
   21    19    22    1
   22     1    23    1
   23    23    24    1
   24    23    25    1
   25    23    26    1
@<TRIPOS>SUBSTRUCTURE
       1 MOL1            1 RESIDUE      1      MOL     
@<SCITEGIC>MOL_PROPERTY
VM2 Rank
SciTegic.value.IntegerValue
41

@<SCITEGIC>MOL_PROPERTY
Conf_Id
SciTegic.value.IntegerValue
1093

@<SCITEGIC>MOL_PROPERTY
Probability
SciTegic.value.DoubleValue
0.86

@<SCITEGIC>MOL_PROPERTY
Sum Probability
SciTegic.value.DoubleValue
72.45

@<SCITEGIC>MOL_PROPERTY
Delta G
SciTegic.value.DoubleValue
1.222

@<SCITEGIC>MOL_PROPERTY
G
SciTegic.value.DoubleValue
76.688

@<SCITEGIC>MOL_PROPERTY
E
SciTegic.value.DoubleValue
44.342

@<SCITEGIC>MOL_PROPERTY
-TS
SciTegic.value.DoubleValue
32.346

@<SCITEGIC>MOL_PROPERTY
U+W
SciTegic.value.DoubleValue
22.880

@<SCITEGIC>MOL_PROPERTY
U
SciTegic.value.DoubleValue
71.810

@<SCITEGIC>MOL_PROPERTY
W
SciTegic.value.DoubleValue
-48.930

@<SCITEGIC>MOL_PROPERTY
W(PB)
SciTegic.value.DoubleValue
-51.256

@<SCITEGIC>MOL_PROPERTY
W(SA)
SciTegic.value.DoubleValue
2.326

@<SCITEGIC>MOL_PROPERTY
Valence
SciTegic.value.DoubleValue
2.569

@<SCITEGIC>MOL_PROPERTY
Coulomb
SciTegic.value.DoubleValue
68.877

@<SCITEGIC>MOL_PROPERTY
VdW
SciTegic.value.DoubleValue
0.364

@<SCITEGIC>MOL_PROPERTY
VdW6
SciTegic.value.DoubleValue
-6.470

@<SCITEGIC>MOL_PROPERTY
VdW12
SciTegic.value.DoubleValue
6.834

@<SCITEGIC>MOL_PROPERTY
Bond
SciTegic.value.DoubleValue
0.191

@<SCITEGIC>MOL_PROPERTY
Angle
SciTegic.value.DoubleValue
0.752

@<SCITEGIC>MOL_PROPERTY
Pdih
SciTegic.value.DoubleValue
1.626

@<SCITEGIC>MOL_PROPERTY
Idih
SciTegic.value.DoubleValue
0.000

@<SCITEGIC>MOL_PROPERTY
Tether
SciTegic.value.DoubleValue
0.000

@<TRIPOS>MOLECULE
guest-s12_vm2.mol2 : vm2 ligand conformer 42
          26          25           1
SMALL
USER_CHARGES
 
@<TRIPOS>ATOM
       1    N1      20.241766   18.781678   26.044915 N.4        1 MOL1        -0.4857
       2    H1      21.212537   18.882217   25.712371 H          1 MOL1         0.3650
       3    H2      20.056547   17.766640   26.054555 H          1 MOL1         0.3650
       4    C1      19.289021   19.476806   25.091353 C.3        1 MOL1         0.0209
       5    H3      19.521675   20.544628   25.099875 H          1 MOL1         0.0967
       6    H4      18.277505   19.345128   25.483932 H          1 MOL1         0.0967
       7    C2      19.347990   18.944428   23.645805 C.3        1 MOL1        -0.1378
       8    H5      19.134361   17.867340   23.643085 H          1 MOL1         0.0993
       9    H6      18.543370   19.425727   23.076363 H          1 MOL1         0.0993
      10    C3      20.711752   19.218742   22.962884 C.3        1 MOL1        -0.1338
      11    H7      21.516229   18.770523   23.560729 H          1 MOL1         0.0993
      12    H8      20.906271   20.300151   22.945779 H          1 MOL1         0.0993
      13    C4      20.808923   18.652158   21.524644 C.3        1 MOL1        -0.1338
      14    H9      21.841301   18.779353   21.170400 H          1 MOL1         0.0993
      15    H10     20.621083   17.569670   21.541357 H          1 MOL1         0.0993
      16    C5      19.847817   19.333374   20.521337 C.3        1 MOL1        -0.1313
      17    H11     19.997793   20.421850   20.543918 H          1 MOL1         0.0993
      18    H12     18.804407   19.149481   20.809468 H          1 MOL1         0.0993
      19    C6      20.067004   18.817148   19.083096 C.3        1 MOL1        -0.2328
      20    H13     19.375865   19.307797   18.385518 H          1 MOL1         0.1004
      21    H14     19.895116   17.734599   19.021864 H          1 MOL1         0.1004
      22    H15     21.090285   19.020645   18.741520 H          1 MOL1         0.1004
      23    C7      20.093726   19.365667   27.442965 C.3        1 MOL1        -0.0781
      24    H16     19.067279   19.219305   27.786361 H          1 MOL1         0.0978
      25    H17     20.784826   18.856989   28.118798 H          1 MOL1         0.0978
      26    H18     20.325353   20.432619   27.412871 H          1 MOL1         0.0978
@<TRIPOS>BOND
    1     1     2    1
    2     1     3    1
    3     1     4    1
    4     4     5    1
    5     4     6    1
    6     4     7    1
    7     7     8    1
    8     7     9    1
    9     7    10    1
   10    10    11    1
   11    10    12    1
   12    10    13    1
   13    13    14    1
   14    13    15    1
   15    13    16    1
   16    16    17    1
   17    16    18    1
   18    16    19    1
   19    19    20    1
   20    19    21    1
   21    19    22    1
   22     1    23    1
   23    23    24    1
   24    23    25    1
   25    23    26    1
@<TRIPOS>SUBSTRUCTURE
       1 MOL1            1 RESIDUE      1      MOL     
@<SCITEGIC>MOL_PROPERTY
VM2 Rank
SciTegic.value.IntegerValue
42

@<SCITEGIC>MOL_PROPERTY
Conf_Id
SciTegic.value.IntegerValue
422

@<SCITEGIC>MOL_PROPERTY
Probability
SciTegic.value.DoubleValue
0.82

@<SCITEGIC>MOL_PROPERTY
Sum Probability
SciTegic.value.DoubleValue
73.27

@<SCITEGIC>MOL_PROPERTY
Delta G
SciTegic.value.DoubleValue
1.252

@<SCITEGIC>MOL_PROPERTY
G
SciTegic.value.DoubleValue
76.719

@<SCITEGIC>MOL_PROPERTY
E
SciTegic.value.DoubleValue
44.389

@<SCITEGIC>MOL_PROPERTY
-TS
SciTegic.value.DoubleValue
32.330

@<SCITEGIC>MOL_PROPERTY
U+W
SciTegic.value.DoubleValue
22.927

@<SCITEGIC>MOL_PROPERTY
U
SciTegic.value.DoubleValue
71.903

@<SCITEGIC>MOL_PROPERTY
W
SciTegic.value.DoubleValue
-48.976

@<SCITEGIC>MOL_PROPERTY
W(PB)
SciTegic.value.DoubleValue
-51.298

@<SCITEGIC>MOL_PROPERTY
W(SA)
SciTegic.value.DoubleValue
2.321

@<SCITEGIC>MOL_PROPERTY
Valence
SciTegic.value.DoubleValue
2.409

@<SCITEGIC>MOL_PROPERTY
Coulomb
SciTegic.value.DoubleValue
69.133

@<SCITEGIC>MOL_PROPERTY
VdW
SciTegic.value.DoubleValue
0.360

@<SCITEGIC>MOL_PROPERTY
VdW6
SciTegic.value.DoubleValue
-6.461

@<SCITEGIC>MOL_PROPERTY
VdW12
SciTegic.value.DoubleValue
6.822

@<SCITEGIC>MOL_PROPERTY
Bond
SciTegic.value.DoubleValue
0.187

@<SCITEGIC>MOL_PROPERTY
Angle
SciTegic.value.DoubleValue
0.708

@<SCITEGIC>MOL_PROPERTY
Pdih
SciTegic.value.DoubleValue
1.514

@<SCITEGIC>MOL_PROPERTY
Idih
SciTegic.value.DoubleValue
0.000

@<SCITEGIC>MOL_PROPERTY
Tether
SciTegic.value.DoubleValue
0.000

@<TRIPOS>MOLECULE
guest-s12_vm2.mol2 : vm2 ligand conformer 43
          26          25           1
SMALL
USER_CHARGES
 
@<TRIPOS>ATOM
       1    N1      19.457302   19.124626   26.020065 N.4        1 MOL1        -0.4857
       2    H1      19.276014   18.796767   26.982086 H          1 MOL1         0.3650
       3    H2      18.562954   19.001550   25.522334 H          1 MOL1         0.3650
       4    C1      20.533452   18.259849   25.382060 C.3        1 MOL1         0.0209
       5    H3      20.241175   17.216542   25.525911 H          1 MOL1         0.0967
       6    H4      21.462400   18.427418   25.932941 H          1 MOL1         0.0967
       7    C2      20.772875   18.510801   23.877190 C.3        1 MOL1        -0.1378
       8    H5      21.130719   19.537267   23.731947 H          1 MOL1         0.0993
       9    H6      21.582209   17.849238   23.541307 H          1 MOL1         0.0993
      10    C3      19.508258   18.251013   23.020830 C.3        1 MOL1        -0.1338
      11    H7      18.719459   18.966822   23.288410 H          1 MOL1         0.0993
      12    H8      19.115232   17.252662   23.258298 H          1 MOL1         0.0993
      13    C4      19.769235   18.326456   21.496280 C.3        1 MOL1        -0.1338
      14    H9      20.543413   17.598075   21.218043 H          1 MOL1         0.0993
      15    H10     18.854567   18.018811   20.970772 H          1 MOL1         0.0993
      16    C5      20.179348   19.736288   21.008137 C.3        1 MOL1        -0.1313
      17    H11     21.133794   20.032707   21.463023 H          1 MOL1         0.0993
      18    H12     19.430372   20.473219   21.330233 H          1 MOL1         0.0993
      19    C6      20.319896   19.788367   19.471752 C.3        1 MOL1        -0.2328
      20    H13     21.084257   19.082610   19.121238 H          1 MOL1         0.1004
      21    H14     20.613824   20.793674   19.143155 H          1 MOL1         0.1004
      22    H15     19.371417   19.537454   18.979194 H          1 MOL1         0.1004
      23    C7      19.867635   20.592600   26.040686 C.3        1 MOL1        -0.0781
      24    H16     19.994498   20.946386   25.015545 H          1 MOL1         0.0978
      25    H17     19.087492   21.174761   26.536173 H          1 MOL1         0.0978
      26    H18     20.807463   20.694646   26.587581 H          1 MOL1         0.0978
@<TRIPOS>BOND
    1     1     2    1
    2     1     3    1
    3     1     4    1
    4     4     5    1
    5     4     6    1
    6     4     7    1
    7     7     8    1
    8     7     9    1
    9     7    10    1
   10    10    11    1
   11    10    12    1
   12    10    13    1
   13    13    14    1
   14    13    15    1
   15    13    16    1
   16    16    17    1
   17    16    18    1
   18    16    19    1
   19    19    20    1
   20    19    21    1
   21    19    22    1
   22     1    23    1
   23    23    24    1
   24    23    25    1
   25    23    26    1
@<TRIPOS>SUBSTRUCTURE
       1 MOL1            1 RESIDUE      1      MOL     
@<SCITEGIC>MOL_PROPERTY
VM2 Rank
SciTegic.value.IntegerValue
43

@<SCITEGIC>MOL_PROPERTY
Conf_Id
SciTegic.value.IntegerValue
205

@<SCITEGIC>MOL_PROPERTY
Probability
SciTegic.value.DoubleValue
0.81

@<SCITEGIC>MOL_PROPERTY
Sum Probability
SciTegic.value.DoubleValue
74.08

@<SCITEGIC>MOL_PROPERTY
Delta G
SciTegic.value.DoubleValue
1.263

@<SCITEGIC>MOL_PROPERTY
G
SciTegic.value.DoubleValue
76.730

@<SCITEGIC>MOL_PROPERTY
E
SciTegic.value.DoubleValue
44.139

@<SCITEGIC>MOL_PROPERTY
-TS
SciTegic.value.DoubleValue
32.591

@<SCITEGIC>MOL_PROPERTY
U+W
SciTegic.value.DoubleValue
22.677

@<SCITEGIC>MOL_PROPERTY
U
SciTegic.value.DoubleValue
72.280

@<SCITEGIC>MOL_PROPERTY
W
SciTegic.value.DoubleValue
-49.603

@<SCITEGIC>MOL_PROPERTY
W(PB)
SciTegic.value.DoubleValue
-51.851

@<SCITEGIC>MOL_PROPERTY
W(SA)
SciTegic.value.DoubleValue
2.248

@<SCITEGIC>MOL_PROPERTY
Valence
SciTegic.value.DoubleValue
2.616

@<SCITEGIC>MOL_PROPERTY
Coulomb
SciTegic.value.DoubleValue
69.198

@<SCITEGIC>MOL_PROPERTY
VdW
SciTegic.value.DoubleValue
0.465

@<SCITEGIC>MOL_PROPERTY
VdW6
SciTegic.value.DoubleValue
-7.468

@<SCITEGIC>MOL_PROPERTY
VdW12
SciTegic.value.DoubleValue
7.934

@<SCITEGIC>MOL_PROPERTY
Bond
SciTegic.value.DoubleValue
0.224

@<SCITEGIC>MOL_PROPERTY
Angle
SciTegic.value.DoubleValue
0.811

@<SCITEGIC>MOL_PROPERTY
Pdih
SciTegic.value.DoubleValue
1.582

@<SCITEGIC>MOL_PROPERTY
Idih
SciTegic.value.DoubleValue
0.000

@<SCITEGIC>MOL_PROPERTY
Tether
SciTegic.value.DoubleValue
0.000

@<TRIPOS>MOLECULE
guest-s12_vm2.mol2 : vm2 ligand conformer 44
          26          25           1
SMALL
USER_CHARGES
 
@<TRIPOS>ATOM
       1    N1      19.095962   19.019448   25.813059 N.4        1 MOL1        -0.4857
       2    H1      18.491158   18.552869   26.507602 H          1 MOL1         0.3650
       3    H2      18.456826   19.326309   25.064696 H          1 MOL1         0.3650
       4    C1      20.103426   18.021429   25.263552 C.3        1 MOL1         0.0209
       5    H3      19.546623   17.134106   24.951715 H          1 MOL1         0.0967
       6    H4      20.763636   17.731977   26.085040 H          1 MOL1         0.0967
       7    C2      20.950010   18.525790   24.074299 C.3        1 MOL1        -0.1378
       8    H5      21.560988   19.381644   24.389031 H          1 MOL1         0.0993
       9    H6      21.653668   17.732000   23.790634 H          1 MOL1         0.0993
      10    C3      20.090394   18.910543   22.846796 C.3        1 MOL1        -0.1338
      11    H7      19.415130   19.735750   23.109298 H          1 MOL1         0.0993
      12    H8      19.460281   18.055684   22.567898 H          1 MOL1         0.0993
      13    C4      20.967041   19.333958   21.643599 C.3        1 MOL1        -0.1338
      14    H9      21.644793   20.139213   21.959261 H          1 MOL1         0.0993
      15    H10     21.606519   18.494755   21.336800 H          1 MOL1         0.0993
      16    C5      20.147798   19.830250   20.427470 C.3        1 MOL1        -0.1313
      17    H11     20.843122   20.205957   19.663767 H          1 MOL1         0.0993
      18    H12     19.525003   20.686192   20.722926 H          1 MOL1         0.0993
      19    C6      19.259277   18.734343   19.795832 C.3        1 MOL1        -0.2328
      20    H13     18.773108   19.110889   18.886560 H          1 MOL1         0.1004
      21    H14     18.467305   18.411237   20.482683 H          1 MOL1         0.1004
      22    H15     19.854353   17.854727   19.518065 H          1 MOL1         0.1004
      23    C7      19.794092   20.214239   26.452391 C.3        1 MOL1        -0.0781
      24    H16     20.380812   20.737432   25.694628 H          1 MOL1         0.0978
      25    H17     19.041096   20.889506   26.864766 H          1 MOL1         0.0978
      26    H18     20.449902   19.861194   27.251177 H          1 MOL1         0.0978
@<TRIPOS>BOND
    1     1     2    1
    2     1     3    1
    3     1     4    1
    4     4     5    1
    5     4     6    1
    6     4     7    1
    7     7     8    1
    8     7     9    1
    9     7    10    1
   10    10    11    1
   11    10    12    1
   12    10    13    1
   13    13    14    1
   14    13    15    1
   15    13    16    1
   16    16    17    1
   17    16    18    1
   18    16    19    1
   19    19    20    1
   20    19    21    1
   21    19    22    1
   22     1    23    1
   23    23    24    1
   24    23    25    1
   25    23    26    1
@<TRIPOS>SUBSTRUCTURE
       1 MOL1            1 RESIDUE      1      MOL     
@<SCITEGIC>MOL_PROPERTY
VM2 Rank
SciTegic.value.IntegerValue
44

@<SCITEGIC>MOL_PROPERTY
Conf_Id
SciTegic.value.IntegerValue
242

@<SCITEGIC>MOL_PROPERTY
Probability
SciTegic.value.DoubleValue
0.79

@<SCITEGIC>MOL_PROPERTY
Sum Probability
SciTegic.value.DoubleValue
74.87

@<SCITEGIC>MOL_PROPERTY
Delta G
SciTegic.value.DoubleValue
1.271

@<SCITEGIC>MOL_PROPERTY
G
SciTegic.value.DoubleValue
76.738

@<SCITEGIC>MOL_PROPERTY
E
SciTegic.value.DoubleValue
44.147

@<SCITEGIC>MOL_PROPERTY
-TS
SciTegic.value.DoubleValue
32.591

@<SCITEGIC>MOL_PROPERTY
U+W
SciTegic.value.DoubleValue
22.685

@<SCITEGIC>MOL_PROPERTY
U
SciTegic.value.DoubleValue
72.184

@<SCITEGIC>MOL_PROPERTY
W
SciTegic.value.DoubleValue
-49.499

@<SCITEGIC>MOL_PROPERTY
W(PB)
SciTegic.value.DoubleValue
-51.757

@<SCITEGIC>MOL_PROPERTY
W(SA)
SciTegic.value.DoubleValue
2.258

@<SCITEGIC>MOL_PROPERTY
Valence
SciTegic.value.DoubleValue
2.592

@<SCITEGIC>MOL_PROPERTY
Coulomb
SciTegic.value.DoubleValue
69.072

@<SCITEGIC>MOL_PROPERTY
VdW
SciTegic.value.DoubleValue
0.519

@<SCITEGIC>MOL_PROPERTY
VdW6
SciTegic.value.DoubleValue
-7.380

@<SCITEGIC>MOL_PROPERTY
VdW12
SciTegic.value.DoubleValue
7.899

@<SCITEGIC>MOL_PROPERTY
Bond
SciTegic.value.DoubleValue
0.219

@<SCITEGIC>MOL_PROPERTY
Angle
SciTegic.value.DoubleValue
0.818

@<SCITEGIC>MOL_PROPERTY
Pdih
SciTegic.value.DoubleValue
1.555

@<SCITEGIC>MOL_PROPERTY
Idih
SciTegic.value.DoubleValue
0.000

@<SCITEGIC>MOL_PROPERTY
Tether
SciTegic.value.DoubleValue
0.000

@<TRIPOS>MOLECULE
guest-s12_vm2.mol2 : vm2 ligand conformer 45
          26          25           1
SMALL
USER_CHARGES
 
@<TRIPOS>ATOM
       1    N1      19.318556   19.697337   25.746557 N.4        1 MOL1        -0.4857
       2    H1      18.749591   20.039697   24.958084 H          1 MOL1         0.3650
       3    H2      19.155607   20.374547   26.508606 H          1 MOL1         0.3650
       4    C1      20.791820   19.701401   25.368860 C.3        1 MOL1         0.0209
       5    H3      21.354057   19.327039   26.228070 H          1 MOL1         0.0967
       6    H4      21.083403   20.741864   25.204446 H          1 MOL1         0.0967
       7    C2      21.154557   18.874925   24.115475 C.3        1 MOL1        -0.1378
       8    H5      22.241054   18.932747   23.967731 H          1 MOL1         0.0993
       9    H6      20.922712   17.815936   24.287683 H          1 MOL1         0.0993
      10    C3      20.435802   19.373261   22.839173 C.3        1 MOL1        -0.1338
      11    H7      20.651997   20.440192   22.689859 H          1 MOL1         0.0993
      12    H8      19.350663   19.280842   22.972397 H          1 MOL1         0.0993
      13    C4      20.874141   18.576716   21.586598 C.3        1 MOL1        -0.1338
      14    H9      21.968475   18.620437   21.497713 H          1 MOL1         0.0993
      15    H10     20.616918   17.515975   21.713120 H          1 MOL1         0.0993
      16    C5      20.253651   19.105236   20.270487 C.3        1 MOL1        -0.1313
      17    H11     20.697224   18.557598   19.427154 H          1 MOL1         0.0993
      18    H12     20.526111   20.160399   20.128322 H          1 MOL1         0.0993
      19    C6      18.716600   18.952311   20.209684 C.3        1 MOL1        -0.2328
      20    H13     18.416119   17.910387   20.380289 H          1 MOL1         0.1004
      21    H14     18.339642   19.252620   19.223456 H          1 MOL1         0.1004
      22    H15     18.218294   19.581271   20.957607 H          1 MOL1         0.1004
      23    C7      18.862874   18.308814   26.180167 C.3        1 MOL1        -0.0781
      24    H16     19.470520   17.979781   27.025915 H          1 MOL1         0.0978
      25    H17     17.812400   18.353613   26.476036 H          1 MOL1         0.0978
      26    H18     18.980101   17.613680   25.346362 H          1 MOL1         0.0978
@<TRIPOS>BOND
    1     1     2    1
    2     1     3    1
    3     1     4    1
    4     4     5    1
    5     4     6    1
    6     4     7    1
    7     7     8    1
    8     7     9    1
    9     7    10    1
   10    10    11    1
   11    10    12    1
   12    10    13    1
   13    13    14    1
   14    13    15    1
   15    13    16    1
   16    16    17    1
   17    16    18    1
   18    16    19    1
   19    19    20    1
   20    19    21    1
   21    19    22    1
   22     1    23    1
   23    23    24    1
   24    23    25    1
   25    23    26    1
@<TRIPOS>SUBSTRUCTURE
       1 MOL1            1 RESIDUE      1      MOL     
@<SCITEGIC>MOL_PROPERTY
VM2 Rank
SciTegic.value.IntegerValue
45

@<SCITEGIC>MOL_PROPERTY
Conf_Id
SciTegic.value.IntegerValue
850

@<SCITEGIC>MOL_PROPERTY
Probability
SciTegic.value.DoubleValue
0.78

@<SCITEGIC>MOL_PROPERTY
Sum Probability
SciTegic.value.DoubleValue
75.66

@<SCITEGIC>MOL_PROPERTY
Delta G
SciTegic.value.DoubleValue
1.280

@<SCITEGIC>MOL_PROPERTY
G
SciTegic.value.DoubleValue
76.747

@<SCITEGIC>MOL_PROPERTY
E
SciTegic.value.DoubleValue
44.160

@<SCITEGIC>MOL_PROPERTY
-TS
SciTegic.value.DoubleValue
32.586

@<SCITEGIC>MOL_PROPERTY
U+W
SciTegic.value.DoubleValue
22.699

@<SCITEGIC>MOL_PROPERTY
U
SciTegic.value.DoubleValue
72.301

@<SCITEGIC>MOL_PROPERTY
W
SciTegic.value.DoubleValue
-49.602

@<SCITEGIC>MOL_PROPERTY
W(PB)
SciTegic.value.DoubleValue
-51.868

@<SCITEGIC>MOL_PROPERTY
W(SA)
SciTegic.value.DoubleValue
2.265

@<SCITEGIC>MOL_PROPERTY
Valence
SciTegic.value.DoubleValue
2.588

@<SCITEGIC>MOL_PROPERTY
Coulomb
SciTegic.value.DoubleValue
69.202

@<SCITEGIC>MOL_PROPERTY
VdW
SciTegic.value.DoubleValue
0.511

@<SCITEGIC>MOL_PROPERTY
VdW6
SciTegic.value.DoubleValue
-7.409

@<SCITEGIC>MOL_PROPERTY
VdW12
SciTegic.value.DoubleValue
7.920

@<SCITEGIC>MOL_PROPERTY
Bond
SciTegic.value.DoubleValue
0.221

@<SCITEGIC>MOL_PROPERTY
Angle
SciTegic.value.DoubleValue
0.820

@<SCITEGIC>MOL_PROPERTY
Pdih
SciTegic.value.DoubleValue
1.547

@<SCITEGIC>MOL_PROPERTY
Idih
SciTegic.value.DoubleValue
0.000

@<SCITEGIC>MOL_PROPERTY
Tether
SciTegic.value.DoubleValue
0.000

@<TRIPOS>MOLECULE
guest-s12_vm2.mol2 : vm2 ligand conformer 46
          26          25           1
SMALL
USER_CHARGES
 
@<TRIPOS>ATOM
       1    N1      20.429426   19.224824   26.054443 N.4        1 MOL1        -0.4857
       2    H1      21.362658   19.290084   25.621359 H          1 MOL1         0.3650
       3    H2      20.605978   18.933833   27.029119 H          1 MOL1         0.3650
       4    C1      19.599257   18.163616   25.348996 C.3        1 MOL1         0.0209
       5    H3      18.619453   18.134514   25.832347 H          1 MOL1         0.0967
       6    H4      20.087098   17.200688   25.520440 H          1 MOL1         0.0967
       7    C2      19.419572   18.371396   23.829302 C.3        1 MOL1        -0.1378
       8    H5      18.787325   17.561395   23.442430 H          1 MOL1         0.0993
       9    H6      18.871360   19.304567   23.652002 H          1 MOL1         0.0993
      10    C3      20.767310   18.380586   23.065360 C.3        1 MOL1        -0.1338
      11    H7      21.337687   17.481413   23.336882 H          1 MOL1         0.0993
      12    H8      21.373255   19.239977   23.382315 H          1 MOL1         0.0993
      13    C4      20.603718   18.412372   21.525790 C.3        1 MOL1        -0.1338
      14    H9      21.596325   18.301163   21.067771 H          1 MOL1         0.0993
      15    H10     20.015406   17.543694   21.199302 H          1 MOL1         0.0993
      16    C5      19.950394   19.712713   21.000069 C.3        1 MOL1        -0.1313
      17    H11     20.509272   20.584313   21.368508 H          1 MOL1         0.0993
      18    H12     18.926152   19.805336   21.384911 H          1 MOL1         0.0993
      19    C6      19.910044   19.746232   19.457282 C.3        1 MOL1        -0.2328
      20    H13     20.921833   19.697244   19.034119 H          1 MOL1         0.1004
      21    H14     19.441335   20.673001   19.101721 H          1 MOL1         0.1004
      22    H15     19.331813   18.902203   19.059205 H          1 MOL1         0.1004
      23    C7      19.728279   20.578261   26.035758 C.3        1 MOL1        -0.0781
      24    H16     20.336852   21.303512   26.580452 H          1 MOL1         0.0978
      25    H17     19.604086   20.906214   25.001740 H          1 MOL1         0.0978
      26    H18     18.751441   20.482772   26.514773 H          1 MOL1         0.0978
@<TRIPOS>BOND
    1     1     2    1
    2     1     3    1
    3     1     4    1
    4     4     5    1
    5     4     6    1
    6     4     7    1
    7     7     8    1
    8     7     9    1
    9     7    10    1
   10    10    11    1
   11    10    12    1
   12    10    13    1
   13    13    14    1
   14    13    15    1
   15    13    16    1
   16    16    17    1
   17    16    18    1
   18    16    19    1
   19    19    20    1
   20    19    21    1
   21    19    22    1
   22     1    23    1
   23    23    24    1
   24    23    25    1
   25    23    26    1
@<TRIPOS>SUBSTRUCTURE
       1 MOL1            1 RESIDUE      1      MOL     
@<SCITEGIC>MOL_PROPERTY
VM2 Rank
SciTegic.value.IntegerValue
46

@<SCITEGIC>MOL_PROPERTY
Conf_Id
SciTegic.value.IntegerValue
779

@<SCITEGIC>MOL_PROPERTY
Probability
SciTegic.value.DoubleValue
0.77

@<SCITEGIC>MOL_PROPERTY
Sum Probability
SciTegic.value.DoubleValue
76.42

@<SCITEGIC>MOL_PROPERTY
Delta G
SciTegic.value.DoubleValue
1.292

@<SCITEGIC>MOL_PROPERTY
G
SciTegic.value.DoubleValue
76.759

@<SCITEGIC>MOL_PROPERTY
E
SciTegic.value.DoubleValue
44.168

@<SCITEGIC>MOL_PROPERTY
-TS
SciTegic.value.DoubleValue
32.591

@<SCITEGIC>MOL_PROPERTY
U+W
SciTegic.value.DoubleValue
22.706

@<SCITEGIC>MOL_PROPERTY
U
SciTegic.value.DoubleValue
72.280

@<SCITEGIC>MOL_PROPERTY
W
SciTegic.value.DoubleValue
-49.573

@<SCITEGIC>MOL_PROPERTY
W(PB)
SciTegic.value.DoubleValue
-51.820

@<SCITEGIC>MOL_PROPERTY
W(SA)
SciTegic.value.DoubleValue
2.246

@<SCITEGIC>MOL_PROPERTY
Valence
SciTegic.value.DoubleValue
2.616

@<SCITEGIC>MOL_PROPERTY
Coulomb
SciTegic.value.DoubleValue
69.198

@<SCITEGIC>MOL_PROPERTY
VdW
SciTegic.value.DoubleValue
0.465

@<SCITEGIC>MOL_PROPERTY
VdW6
SciTegic.value.DoubleValue
-7.468

@<SCITEGIC>MOL_PROPERTY
VdW12
SciTegic.value.DoubleValue
7.934

@<SCITEGIC>MOL_PROPERTY
Bond
SciTegic.value.DoubleValue
0.224

@<SCITEGIC>MOL_PROPERTY
Angle
SciTegic.value.DoubleValue
0.811

@<SCITEGIC>MOL_PROPERTY
Pdih
SciTegic.value.DoubleValue
1.582

@<SCITEGIC>MOL_PROPERTY
Idih
SciTegic.value.DoubleValue
0.000

@<SCITEGIC>MOL_PROPERTY
Tether
SciTegic.value.DoubleValue
0.000

@<TRIPOS>MOLECULE
guest-s12_vm2.mol2 : vm2 ligand conformer 47
          26          25           1
SMALL
USER_CHARGES
 
@<TRIPOS>ATOM
       1    N1      19.780123   18.475774   26.047919 N.4        1 MOL1        -0.4857
       2    H1      20.669544   17.977736   26.208287 H          1 MOL1         0.3650
       3    H2      19.107305   17.749595   25.756833 H          1 MOL1         0.3650
       4    C1      19.948051   19.504574   24.947826 C.3        1 MOL1         0.0209
       5    H3      20.671888   20.247762   25.291637 H          1 MOL1         0.0967
       6    H4      18.985568   20.002030   24.804147 H          1 MOL1         0.0967
       7    C2      20.421685   18.898444   23.614399 C.3        1 MOL1        -0.1378
       8    H5      21.380965   18.386091   23.766246 H          1 MOL1         0.0993
       9    H6      19.697186   18.141391   23.288638 H          1 MOL1         0.0993
      10    C3      20.578824   19.985973   22.525793 C.3        1 MOL1        -0.1338
      11    H7      21.246407   20.773488   22.902287 H          1 MOL1         0.0993
      12    H8      19.611277   20.472924   22.344711 H          1 MOL1         0.0993
      13    C4      21.160108   19.449966   21.191658 C.3        1 MOL1        -0.1338
      14    H9      21.275210   20.291326   20.494442 H          1 MOL1         0.0993
      15    H10     22.174820   19.068846   21.371535 H          1 MOL1         0.0993
      16    C5      20.324885   18.340157   20.503140 C.3        1 MOL1        -0.1313
      17    H11     20.298965   17.439327   21.130771 H          1 MOL1         0.0993
      18    H12     20.834588   18.044122   19.575590 H          1 MOL1         0.0993
      19    C6      18.883098   18.778730   20.159774 C.3        1 MOL1        -0.2328
      20    H13     18.366904   17.993216   19.592883 H          1 MOL1         0.1004
      21    H14     18.882940   19.689793   19.547481 H          1 MOL1         0.1004
      22    H15     18.294947   18.972563   21.065370 H          1 MOL1         0.1004
      23    C7      19.311226   19.156383   27.326490 C.3        1 MOL1        -0.0781
      24    H16     18.353637   19.647994   27.141284 H          1 MOL1         0.0978
      25    H17     19.194442   18.404675   28.110351 H          1 MOL1         0.0978
      26    H18     20.054052   19.896248   27.632712 H          1 MOL1         0.0978
@<TRIPOS>BOND
    1     1     2    1
    2     1     3    1
    3     1     4    1
    4     4     5    1
    5     4     6    1
    6     4     7    1
    7     7     8    1
    8     7     9    1
    9     7    10    1
   10    10    11    1
   11    10    12    1
   12    10    13    1
   13    13    14    1
   14    13    15    1
   15    13    16    1
   16    16    17    1
   17    16    18    1
   18    16    19    1
   19    19    20    1
   20    19    21    1
   21    19    22    1
   22     1    23    1
   23    23    24    1
   24    23    25    1
   25    23    26    1
@<TRIPOS>SUBSTRUCTURE
       1 MOL1            1 RESIDUE      1      MOL     
@<SCITEGIC>MOL_PROPERTY
VM2 Rank
SciTegic.value.IntegerValue
47

@<SCITEGIC>MOL_PROPERTY
Conf_Id
SciTegic.value.IntegerValue
868

@<SCITEGIC>MOL_PROPERTY
Probability
SciTegic.value.DoubleValue
0.74

@<SCITEGIC>MOL_PROPERTY
Sum Probability
SciTegic.value.DoubleValue
77.17

@<SCITEGIC>MOL_PROPERTY
Delta G
SciTegic.value.DoubleValue
1.310

@<SCITEGIC>MOL_PROPERTY
G
SciTegic.value.DoubleValue
76.777

@<SCITEGIC>MOL_PROPERTY
E
SciTegic.value.DoubleValue
44.188

@<SCITEGIC>MOL_PROPERTY
-TS
SciTegic.value.DoubleValue
32.588

@<SCITEGIC>MOL_PROPERTY
U+W
SciTegic.value.DoubleValue
22.726

@<SCITEGIC>MOL_PROPERTY
U
SciTegic.value.DoubleValue
71.870

@<SCITEGIC>MOL_PROPERTY
W
SciTegic.value.DoubleValue
-49.144

@<SCITEGIC>MOL_PROPERTY
W(PB)
SciTegic.value.DoubleValue
-51.404

@<SCITEGIC>MOL_PROPERTY
W(SA)
SciTegic.value.DoubleValue
2.260

@<SCITEGIC>MOL_PROPERTY
Valence
SciTegic.value.DoubleValue
2.682

@<SCITEGIC>MOL_PROPERTY
Coulomb
SciTegic.value.DoubleValue
68.933

@<SCITEGIC>MOL_PROPERTY
VdW
SciTegic.value.DoubleValue
0.255

@<SCITEGIC>MOL_PROPERTY
VdW6
SciTegic.value.DoubleValue
-6.833

@<SCITEGIC>MOL_PROPERTY
VdW12
SciTegic.value.DoubleValue
7.088

@<SCITEGIC>MOL_PROPERTY
Bond
SciTegic.value.DoubleValue
0.205

@<SCITEGIC>MOL_PROPERTY
Angle
SciTegic.value.DoubleValue
1.003

@<SCITEGIC>MOL_PROPERTY
Pdih
SciTegic.value.DoubleValue
1.473

@<SCITEGIC>MOL_PROPERTY
Idih
SciTegic.value.DoubleValue
0.000

@<SCITEGIC>MOL_PROPERTY
Tether
SciTegic.value.DoubleValue
0.000

@<TRIPOS>MOLECULE
guest-s12_vm2.mol2 : vm2 ligand conformer 48
          26          25           1
SMALL
USER_CHARGES
 
@<TRIPOS>ATOM
       1    N1      19.426400   19.085178   26.142495 N.4        1 MOL1        -0.4857
       2    H1      18.770171   18.409270   25.723969 H          1 MOL1         0.3650
       3    H2      18.919782   19.486841   26.947402 H          1 MOL1         0.3650
       4    C1      19.750881   20.186440   25.144883 C.3        1 MOL1         0.0209
       5    H3      20.452865   20.871285   25.627279 H          1 MOL1         0.0967
       6    H4      18.825581   20.735335   24.952131 H          1 MOL1         0.0967
       7    C2      20.340039   19.708647   23.799300 C.3        1 MOL1        -0.1378
       8    H5      20.571606   20.598033   23.200636 H          1 MOL1         0.0993
       9    H6      21.294154   19.194495   23.972282 H          1 MOL1         0.0993
      10    C3      19.373564   18.784805   23.016017 C.3        1 MOL1        -0.1338
      11    H7      18.429825   19.313572   22.823154 H          1 MOL1         0.0993
      12    H8      19.119662   17.915280   23.636567 H          1 MOL1         0.0993
      13    C4      19.959933   18.265862   21.679699 C.3        1 MOL1        -0.1338
      14    H9      20.900496   17.731644   21.872778 H          1 MOL1         0.0993
      15    H10     19.265773   17.524164   21.260810 H          1 MOL1         0.0993
      16    C5      20.197055   19.378266   20.630559 C.3        1 MOL1        -0.1313
      17    H11     20.951251   20.088867   20.993530 H          1 MOL1         0.0993
      18    H12     19.269824   19.947941   20.477309 H          1 MOL1         0.0993
      19    C6      20.668263   18.796312   19.280611 C.3        1 MOL1        -0.2328
      20    H13     20.834630   19.598197   18.549638 H          1 MOL1         0.1004
      21    H14     19.919812   18.110423   18.862804 H          1 MOL1         0.1004
      22    H15     21.610557   18.244960   19.395919 H          1 MOL1         0.1004
      23    C7      20.691864   18.384490   26.623435 C.3        1 MOL1        -0.0781
      24    H16     20.421969   17.627110   27.362740 H          1 MOL1         0.0978
      25    H17     21.186052   17.908595   25.774046 H          1 MOL1         0.0978
      26    H18     21.359383   19.120679   27.076459 H          1 MOL1         0.0978
@<TRIPOS>BOND
    1     1     2    1
    2     1     3    1
    3     1     4    1
    4     4     5    1
    5     4     6    1
    6     4     7    1
    7     7     8    1
    8     7     9    1
    9     7    10    1
   10    10    11    1
   11    10    12    1
   12    10    13    1
   13    13    14    1
   14    13    15    1
   15    13    16    1
   16    16    17    1
   17    16    18    1
   18    16    19    1
   19    19    20    1
   20    19    21    1
   21    19    22    1
   22     1    23    1
   23    23    24    1
   24    23    25    1
   25    23    26    1
@<TRIPOS>SUBSTRUCTURE
       1 MOL1            1 RESIDUE      1      MOL     
@<SCITEGIC>MOL_PROPERTY
VM2 Rank
SciTegic.value.IntegerValue
48

@<SCITEGIC>MOL_PROPERTY
Conf_Id
SciTegic.value.IntegerValue
1021

@<SCITEGIC>MOL_PROPERTY
Probability
SciTegic.value.DoubleValue
0.72

@<SCITEGIC>MOL_PROPERTY
Sum Probability
SciTegic.value.DoubleValue
77.89

@<SCITEGIC>MOL_PROPERTY
Delta G
SciTegic.value.DoubleValue
1.330

@<SCITEGIC>MOL_PROPERTY
G
SciTegic.value.DoubleValue
76.797

@<SCITEGIC>MOL_PROPERTY
E
SciTegic.value.DoubleValue
44.248

@<SCITEGIC>MOL_PROPERTY
-TS
SciTegic.value.DoubleValue
32.549

@<SCITEGIC>MOL_PROPERTY
U+W
SciTegic.value.DoubleValue
22.786

@<SCITEGIC>MOL_PROPERTY
U
SciTegic.value.DoubleValue
72.239

@<SCITEGIC>MOL_PROPERTY
W
SciTegic.value.DoubleValue
-49.453

@<SCITEGIC>MOL_PROPERTY
W(PB)
SciTegic.value.DoubleValue
-51.696

@<SCITEGIC>MOL_PROPERTY
W(SA)
SciTegic.value.DoubleValue
2.243

@<SCITEGIC>MOL_PROPERTY
Valence
SciTegic.value.DoubleValue
2.658

@<SCITEGIC>MOL_PROPERTY
Coulomb
SciTegic.value.DoubleValue
69.025

@<SCITEGIC>MOL_PROPERTY
VdW
SciTegic.value.DoubleValue
0.556

@<SCITEGIC>MOL_PROPERTY
VdW6
SciTegic.value.DoubleValue
-7.358

@<SCITEGIC>MOL_PROPERTY
VdW12
SciTegic.value.DoubleValue
7.913

@<SCITEGIC>MOL_PROPERTY
Bond
SciTegic.value.DoubleValue
0.230

@<SCITEGIC>MOL_PROPERTY
Angle
SciTegic.value.DoubleValue
0.883

@<SCITEGIC>MOL_PROPERTY
Pdih
SciTegic.value.DoubleValue
1.546

@<SCITEGIC>MOL_PROPERTY
Idih
SciTegic.value.DoubleValue
0.000

@<SCITEGIC>MOL_PROPERTY
Tether
SciTegic.value.DoubleValue
0.000

@<TRIPOS>MOLECULE
guest-s12_vm2.mol2 : vm2 ligand conformer 49
          26          25           1
SMALL
USER_CHARGES
 
@<TRIPOS>ATOM
       1    N1      20.242857   18.522872   26.064274 N.4        1 MOL1        -0.4857
       2    H1      21.066894   17.949238   25.826244 H          1 MOL1         0.3650
       3    H2      19.462993   17.854728   26.165396 H          1 MOL1         0.3650
       4    C1      19.948673   19.504648   24.947851 C.3        1 MOL1         0.0209
       5    H3      20.798886   20.186788   24.868464 H          1 MOL1         0.0967
       6    H4      19.067700   20.084322   25.234801 H          1 MOL1         0.0967
       7    C2      19.701463   18.825139   23.588844 C.3        1 MOL1        -0.1378
       8    H5      20.584597   18.231867   23.320051 H          1 MOL1         0.0993
       9    H6      18.856792   18.129013   23.676719 H          1 MOL1         0.0993
      10    C3      19.405204   19.866517   22.484200 C.3        1 MOL1        -0.1338
      11    H7      20.265154   20.539578   22.367858 H          1 MOL1         0.0993
      12    H8      18.568045   20.500787   22.807403 H          1 MOL1         0.0993
      13    C4      19.038623   19.233999   21.116484 C.3        1 MOL1        -0.1338
      14    H9      18.111324   18.655180   21.227548 H          1 MOL1         0.0993
      15    H10     18.805674   20.039918   20.406924 H          1 MOL1         0.0993
      16    C5      20.126261   18.319929   20.496120 C.3        1 MOL1        -0.1313
      17    H11     19.752838   17.933994   19.537271 H          1 MOL1         0.0993
      18    H12     20.288905   17.438294   21.130436 H          1 MOL1         0.0993
      19    C6      21.470722   19.042135   20.251506 C.3        1 MOL1        -0.2328
      20    H13     22.172873   18.380648   19.727795 H          1 MOL1         0.1004
      21    H14     21.942895   19.343907   21.194683 H          1 MOL1         0.1004
      22    H15     21.330419   19.938932   19.634246 H          1 MOL1         0.1004
      23    C7      20.474197   19.274761   27.367721 C.3        1 MOL1        -0.0781
      24    H16     19.577950   19.847601   27.615829 H          1 MOL1         0.0978
      25    H17     20.684751   18.556367   28.163156 H          1 MOL1         0.0978
      26    H18     21.323704   19.950512   27.246650 H          1 MOL1         0.0978
@<TRIPOS>BOND
    1     1     2    1
    2     1     3    1
    3     1     4    1
    4     4     5    1
    5     4     6    1
    6     4     7    1
    7     7     8    1
    8     7     9    1
    9     7    10    1
   10    10    11    1
   11    10    12    1
   12    10    13    1
   13    13    14    1
   14    13    15    1
   15    13    16    1
   16    16    17    1
   17    16    18    1
   18    16    19    1
   19    19    20    1
   20    19    21    1
   21    19    22    1
   22     1    23    1
   23    23    24    1
   24    23    25    1
   25    23    26    1
@<TRIPOS>SUBSTRUCTURE
       1 MOL1            1 RESIDUE      1      MOL     
@<SCITEGIC>MOL_PROPERTY
VM2 Rank
SciTegic.value.IntegerValue
49

@<SCITEGIC>MOL_PROPERTY
Conf_Id
SciTegic.value.IntegerValue
1129

@<SCITEGIC>MOL_PROPERTY
Probability
SciTegic.value.DoubleValue
0.71

@<SCITEGIC>MOL_PROPERTY
Sum Probability
SciTegic.value.DoubleValue
78.60

@<SCITEGIC>MOL_PROPERTY
Delta G
SciTegic.value.DoubleValue
1.335

@<SCITEGIC>MOL_PROPERTY
G
SciTegic.value.DoubleValue
76.802

@<SCITEGIC>MOL_PROPERTY
E
SciTegic.value.DoubleValue
44.214

@<SCITEGIC>MOL_PROPERTY
-TS
SciTegic.value.DoubleValue
32.588

@<SCITEGIC>MOL_PROPERTY
U+W
SciTegic.value.DoubleValue
22.752

@<SCITEGIC>MOL_PROPERTY
U
SciTegic.value.DoubleValue
71.870

@<SCITEGIC>MOL_PROPERTY
W
SciTegic.value.DoubleValue
-49.118

@<SCITEGIC>MOL_PROPERTY
W(PB)
SciTegic.value.DoubleValue
-51.408

@<SCITEGIC>MOL_PROPERTY
W(SA)
SciTegic.value.DoubleValue
2.290

@<SCITEGIC>MOL_PROPERTY
Valence
SciTegic.value.DoubleValue
2.682

@<SCITEGIC>MOL_PROPERTY
Coulomb
SciTegic.value.DoubleValue
68.933

@<SCITEGIC>MOL_PROPERTY
VdW
SciTegic.value.DoubleValue
0.255

@<SCITEGIC>MOL_PROPERTY
VdW6
SciTegic.value.DoubleValue
-6.833

@<SCITEGIC>MOL_PROPERTY
VdW12
SciTegic.value.DoubleValue
7.088

@<SCITEGIC>MOL_PROPERTY
Bond
SciTegic.value.DoubleValue
0.205

@<SCITEGIC>MOL_PROPERTY
Angle
SciTegic.value.DoubleValue
1.003

@<SCITEGIC>MOL_PROPERTY
Pdih
SciTegic.value.DoubleValue
1.473

@<SCITEGIC>MOL_PROPERTY
Idih
SciTegic.value.DoubleValue
0.000

@<SCITEGIC>MOL_PROPERTY
Tether
SciTegic.value.DoubleValue
0.000

@<TRIPOS>MOLECULE
guest-s12_vm2.mol2 : vm2 ligand conformer 50
          26          25           1
SMALL
USER_CHARGES
 
@<TRIPOS>ATOM
       1    N1      20.348021   18.896069   26.077138 N.4        1 MOL1        -0.4857
       2    H1      21.012403   18.277386   26.568718 H          1 MOL1         0.3650
       3    H2      19.492654   18.879867   26.653727 H          1 MOL1         0.3650
       4    C1      20.060381   18.337064   24.694080 C.3        1 MOL1         0.0209
       5    H3      19.824203   17.276618   24.813374 H          1 MOL1         0.0967
       6    H4      20.976882   18.416892   24.104552 H          1 MOL1         0.0967
       7    C2      18.896870   19.029328   23.953147 C.3        1 MOL1        -0.1378
       8    H5      17.996669   18.986170   24.580241 H          1 MOL1         0.0993
       9    H6      19.120579   20.093743   23.811534 H          1 MOL1         0.0993
      10    C3      18.585689   18.372471   22.585168 C.3        1 MOL1        -0.1338
      11    H7      17.752962   18.911140   22.112218 H          1 MOL1         0.0993
      12    H8      18.224437   17.348840   22.755883 H          1 MOL1         0.0993
      13    C4      19.782192   18.319716   21.599726 C.3        1 MOL1        -0.1338
      14    H9      20.581048   17.688817   22.012077 H          1 MOL1         0.0993
      15    H10     19.449735   17.821475   20.678528 H          1 MOL1         0.0993
      16    C5      20.351661   19.712708   21.240516 C.3        1 MOL1        -0.1313
      17    H11     20.760399   20.197724   22.137063 H          1 MOL1         0.0993
      18    H12     19.544461   20.358843   20.868117 H          1 MOL1         0.0993
      19    C6      21.463319   19.615843   20.173971 C.3        1 MOL1        -0.2328
      20    H13     21.857563   20.611681   19.933391 H          1 MOL1         0.1004
      21    H14     21.082479   19.171507   19.245152 H          1 MOL1         0.1004
      22    H15     22.299277   18.999740   20.530025 H          1 MOL1         0.1004
      23    C7      20.919868   20.306802   25.993254 C.3        1 MOL1        -0.0781
      24    H16     21.148469   20.659872   27.001304 H          1 MOL1         0.0978
      25    H17     21.832267   20.288939   25.393220 H          1 MOL1         0.0978
      26    H18     20.184728   20.968491   25.530951 H          1 MOL1         0.0978
@<TRIPOS>BOND
    1     1     2    1
    2     1     3    1
    3     1     4    1
    4     4     5    1
    5     4     6    1
    6     4     7    1
    7     7     8    1
    8     7     9    1
    9     7    10    1
   10    10    11    1
   11    10    12    1
   12    10    13    1
   13    13    14    1
   14    13    15    1
   15    13    16    1
   16    16    17    1
   17    16    18    1
   18    16    19    1
   19    19    20    1
   20    19    21    1
   21    19    22    1
   22     1    23    1
   23    23    24    1
   24    23    25    1
   25    23    26    1
@<TRIPOS>SUBSTRUCTURE
       1 MOL1            1 RESIDUE      1      MOL     
@<SCITEGIC>MOL_PROPERTY
VM2 Rank
SciTegic.value.IntegerValue
50

@<SCITEGIC>MOL_PROPERTY
Conf_Id
SciTegic.value.IntegerValue
1007

@<SCITEGIC>MOL_PROPERTY
Probability
SciTegic.value.DoubleValue
0.71

@<SCITEGIC>MOL_PROPERTY
Sum Probability
SciTegic.value.DoubleValue
79.31

@<SCITEGIC>MOL_PROPERTY
Delta G
SciTegic.value.DoubleValue
1.343

@<SCITEGIC>MOL_PROPERTY
G
SciTegic.value.DoubleValue
76.809

@<SCITEGIC>MOL_PROPERTY
E
SciTegic.value.DoubleValue
44.140

@<SCITEGIC>MOL_PROPERTY
-TS
SciTegic.value.DoubleValue
32.670

@<SCITEGIC>MOL_PROPERTY
U+W
SciTegic.value.DoubleValue
22.678

@<SCITEGIC>MOL_PROPERTY
U
SciTegic.value.DoubleValue
72.352

@<SCITEGIC>MOL_PROPERTY
W
SciTegic.value.DoubleValue
-49.674

@<SCITEGIC>MOL_PROPERTY
W(PB)
SciTegic.value.DoubleValue
-51.909

@<SCITEGIC>MOL_PROPERTY
W(SA)
SciTegic.value.DoubleValue
2.235

@<SCITEGIC>MOL_PROPERTY
Valence
SciTegic.value.DoubleValue
2.742

@<SCITEGIC>MOL_PROPERTY
Coulomb
SciTegic.value.DoubleValue
69.271

@<SCITEGIC>MOL_PROPERTY
VdW
SciTegic.value.DoubleValue
0.339

@<SCITEGIC>MOL_PROPERTY
VdW6
SciTegic.value.DoubleValue
-7.703

@<SCITEGIC>MOL_PROPERTY
VdW12
SciTegic.value.DoubleValue
8.042

@<SCITEGIC>MOL_PROPERTY
Bond
SciTegic.value.DoubleValue
0.229

@<SCITEGIC>MOL_PROPERTY
Angle
SciTegic.value.DoubleValue
0.954

@<SCITEGIC>MOL_PROPERTY
Pdih
SciTegic.value.DoubleValue
1.560

@<SCITEGIC>MOL_PROPERTY
Idih
SciTegic.value.DoubleValue
0.000

@<SCITEGIC>MOL_PROPERTY
Tether
SciTegic.value.DoubleValue
0.000

@<TRIPOS>MOLECULE
guest-s12_vm2.mol2 : vm2 ligand conformer 51
          26          25           1
SMALL
USER_CHARGES
 
@<TRIPOS>ATOM
       1    N1      20.459166   19.189809   26.179073 N.4        1 MOL1        -0.4857
       2    H1      20.817333   19.679040   27.014679 H          1 MOL1         0.3650
       3    H2      21.265211   18.662118   25.812352 H          1 MOL1         0.3650
       4    C1      19.991365   20.210858   25.153442 C.3        1 MOL1         0.0209
       5    H3      20.799145   20.935337   25.022138 H          1 MOL1         0.0967
       6    H4      19.134389   20.737745   25.580622 H          1 MOL1         0.0967
       7    C2      19.605610   19.634360   23.773284 C.3        1 MOL1        -0.1378
       8    H5      18.764016   18.938384   23.882598 H          1 MOL1         0.0993
       9    H6      19.243222   20.463599   23.153553 H          1 MOL1         0.0993
      10    C3      20.789959   18.928286   23.066272 C.3        1 MOL1        -0.1338
      11    H7      21.168665   18.122830   23.709267 H          1 MOL1         0.0993
      12    H8      21.619880   19.636639   22.936269 H          1 MOL1         0.0993
      13    C4      20.414498   18.311910   21.695879 C.3        1 MOL1        -0.1338
      14    H9      21.270678   17.727096   21.332025 H          1 MOL1         0.0993
      15    H10     19.588689   17.598927   21.826347 H          1 MOL1         0.0993
      16    C5      20.033748   19.361712   20.624756 C.3        1 MOL1        -0.1313
      17    H11     20.836636   20.106491   20.532835 H          1 MOL1         0.0993
      18    H12     19.129036   19.904430   20.928836 H          1 MOL1         0.0993
      19    C6      19.784429   18.706731   19.249290 C.3        1 MOL1        -0.2328
      20    H13     19.512694   19.464222   18.502705 H          1 MOL1         0.1004
      21    H14     18.965791   17.977183   19.302164 H          1 MOL1         0.1004
      22    H15     20.682422   18.187426   18.889963 H          1 MOL1         0.1004
      23    C7      19.329227   18.246335   26.575006 C.3        1 MOL1        -0.0781
      24    H16     19.001149   17.687250   25.696399 H          1 MOL1         0.0978
      25    H17     19.692928   17.553043   27.336655 H          1 MOL1         0.0978
      26    H18     18.497687   18.830566   26.975005 H          1 MOL1         0.0978
@<TRIPOS>BOND
    1     1     2    1
    2     1     3    1
    3     1     4    1
    4     4     5    1
    5     4     6    1
    6     4     7    1
    7     7     8    1
    8     7     9    1
    9     7    10    1
   10    10    11    1
   11    10    12    1
   12    10    13    1
   13    13    14    1
   14    13    15    1
   15    13    16    1
   16    16    17    1
   17    16    18    1
   18    16    19    1
   19    19    20    1
   20    19    21    1
   21    19    22    1
   22     1    23    1
   23    23    24    1
   24    23    25    1
   25    23    26    1
@<TRIPOS>SUBSTRUCTURE
       1 MOL1            1 RESIDUE      1      MOL     
@<SCITEGIC>MOL_PROPERTY
VM2 Rank
SciTegic.value.IntegerValue
51

@<SCITEGIC>MOL_PROPERTY
Conf_Id
SciTegic.value.IntegerValue
1038

@<SCITEGIC>MOL_PROPERTY
Probability
SciTegic.value.DoubleValue
0.70

@<SCITEGIC>MOL_PROPERTY
Sum Probability
SciTegic.value.DoubleValue
80.01

@<SCITEGIC>MOL_PROPERTY
Delta G
SciTegic.value.DoubleValue
1.348

@<SCITEGIC>MOL_PROPERTY
G
SciTegic.value.DoubleValue
76.814

@<SCITEGIC>MOL_PROPERTY
E
SciTegic.value.DoubleValue
44.265

@<SCITEGIC>MOL_PROPERTY
-TS
SciTegic.value.DoubleValue
32.549

@<SCITEGIC>MOL_PROPERTY
U+W
SciTegic.value.DoubleValue
22.804

@<SCITEGIC>MOL_PROPERTY
U
SciTegic.value.DoubleValue
72.239

@<SCITEGIC>MOL_PROPERTY
W
SciTegic.value.DoubleValue
-49.435

@<SCITEGIC>MOL_PROPERTY
W(PB)
SciTegic.value.DoubleValue
-51.689

@<SCITEGIC>MOL_PROPERTY
W(SA)
SciTegic.value.DoubleValue
2.253

@<SCITEGIC>MOL_PROPERTY
Valence
SciTegic.value.DoubleValue
2.658

@<SCITEGIC>MOL_PROPERTY
Coulomb
SciTegic.value.DoubleValue
69.025

@<SCITEGIC>MOL_PROPERTY
VdW
SciTegic.value.DoubleValue
0.556

@<SCITEGIC>MOL_PROPERTY
VdW6
SciTegic.value.DoubleValue
-7.358

@<SCITEGIC>MOL_PROPERTY
VdW12
SciTegic.value.DoubleValue
7.914

@<SCITEGIC>MOL_PROPERTY
Bond
SciTegic.value.DoubleValue
0.229

@<SCITEGIC>MOL_PROPERTY
Angle
SciTegic.value.DoubleValue
0.883

@<SCITEGIC>MOL_PROPERTY
Pdih
SciTegic.value.DoubleValue
1.546

@<SCITEGIC>MOL_PROPERTY
Idih
SciTegic.value.DoubleValue
0.000

@<SCITEGIC>MOL_PROPERTY
Tether
SciTegic.value.DoubleValue
0.000

@<TRIPOS>MOLECULE
guest-s12_vm2.mol2 : vm2 ligand conformer 52
          26          25           1
SMALL
USER_CHARGES
 
@<TRIPOS>ATOM
       1    N1      19.601819   18.819464   26.050608 N.4        1 MOL1        -0.4857
       2    H1      20.400106   18.973236   26.685793 H          1 MOL1         0.3650
       3    H2      19.044183   18.075235   26.498928 H          1 MOL1         0.3650
       4    C1      20.093176   18.340425   24.695190 C.3        1 MOL1         0.0209
       5    H3      19.223173   18.236738   24.042324 H          1 MOL1         0.0967
       6    H4      20.530785   17.349192   24.838409 H          1 MOL1         0.0967
       7    C2      21.140912   19.259787   24.032625 C.3        1 MOL1        -0.1378
       8    H5      20.716289   20.257638   23.868102 H          1 MOL1         0.0993
       9    H6      21.984979   19.395697   24.721500 H          1 MOL1         0.0993
      10    C3      21.673923   18.689703   22.694504 C.3        1 MOL1        -0.1338
      11    H7      22.222657   17.759546   22.897392 H          1 MOL1         0.0993
      12    H8      22.410926   19.389641   22.277140 H          1 MOL1         0.0993
      13    C4      20.584998   18.402208   21.628162 C.3        1 MOL1        -0.1338
      14    H9      21.075332   17.988641   20.736022 H          1 MOL1         0.0993
      15    H10     19.904129   17.619182   21.988059 H          1 MOL1         0.0993
      16    C5      19.770948   19.653052   21.220162 C.3        1 MOL1        -0.1313
      17    H11     20.454066   20.452426   20.900641 H          1 MOL1         0.0993
      18    H12     19.210479   20.038318   22.082456 H          1 MOL1         0.0993
      19    C6      18.779577   19.340175   20.079120 C.3        1 MOL1        -0.2328
      20    H13     18.063436   18.564459   20.380099 H          1 MOL1         0.1004
      21    H14     19.306803   18.989337   19.182390 H          1 MOL1         0.1004
      22    H15     18.209021   20.236871   19.804528 H          1 MOL1         0.1004
      23    C7      18.762647   20.085187   25.916629 C.3        1 MOL1        -0.0781
      24    H16     18.397177   20.377354   26.903622 H          1 MOL1         0.0978
      25    H17     19.378551   20.885648   25.502008 H          1 MOL1         0.0978
      26    H18     17.917135   19.886593   25.254436 H          1 MOL1         0.0978
@<TRIPOS>BOND
    1     1     2    1
    2     1     3    1
    3     1     4    1
    4     4     5    1
    5     4     6    1
    6     4     7    1
    7     7     8    1
    8     7     9    1
    9     7    10    1
   10    10    11    1
   11    10    12    1
   12    10    13    1
   13    13    14    1
   14    13    15    1
   15    13    16    1
   16    16    17    1
   17    16    18    1
   18    16    19    1
   19    19    20    1
   20    19    21    1
   21    19    22    1
   22     1    23    1
   23    23    24    1
   24    23    25    1
   25    23    26    1
@<TRIPOS>SUBSTRUCTURE
       1 MOL1            1 RESIDUE      1      MOL     
@<SCITEGIC>MOL_PROPERTY
VM2 Rank
SciTegic.value.IntegerValue
52

@<SCITEGIC>MOL_PROPERTY
Conf_Id
SciTegic.value.IntegerValue
1296

@<SCITEGIC>MOL_PROPERTY
Probability
SciTegic.value.DoubleValue
0.70

@<SCITEGIC>MOL_PROPERTY
Sum Probability
SciTegic.value.DoubleValue
80.71

@<SCITEGIC>MOL_PROPERTY
Delta G
SciTegic.value.DoubleValue
1.348

@<SCITEGIC>MOL_PROPERTY
G
SciTegic.value.DoubleValue
76.815

@<SCITEGIC>MOL_PROPERTY
E
SciTegic.value.DoubleValue
44.145

@<SCITEGIC>MOL_PROPERTY
-TS
SciTegic.value.DoubleValue
32.670

@<SCITEGIC>MOL_PROPERTY
U+W
SciTegic.value.DoubleValue
22.683

@<SCITEGIC>MOL_PROPERTY
U
SciTegic.value.DoubleValue
72.352

@<SCITEGIC>MOL_PROPERTY
W
SciTegic.value.DoubleValue
-49.669

@<SCITEGIC>MOL_PROPERTY
W(PB)
SciTegic.value.DoubleValue
-51.907

@<SCITEGIC>MOL_PROPERTY
W(SA)
SciTegic.value.DoubleValue
2.238

@<SCITEGIC>MOL_PROPERTY
Valence
SciTegic.value.DoubleValue
2.742

@<SCITEGIC>MOL_PROPERTY
Coulomb
SciTegic.value.DoubleValue
69.271

@<SCITEGIC>MOL_PROPERTY
VdW
SciTegic.value.DoubleValue
0.339

@<SCITEGIC>MOL_PROPERTY
VdW6
SciTegic.value.DoubleValue
-7.704

@<SCITEGIC>MOL_PROPERTY
VdW12
SciTegic.value.DoubleValue
8.043

@<SCITEGIC>MOL_PROPERTY
Bond
SciTegic.value.DoubleValue
0.229

@<SCITEGIC>MOL_PROPERTY
Angle
SciTegic.value.DoubleValue
0.954

@<SCITEGIC>MOL_PROPERTY
Pdih
SciTegic.value.DoubleValue
1.560

@<SCITEGIC>MOL_PROPERTY
Idih
SciTegic.value.DoubleValue
0.000

@<SCITEGIC>MOL_PROPERTY
Tether
SciTegic.value.DoubleValue
0.000

@<TRIPOS>MOLECULE
guest-s12_vm2.mol2 : vm2 ligand conformer 53
          26          25           1
SMALL
USER_CHARGES
 
@<TRIPOS>ATOM
       1    N1      19.114381   18.697264   25.429427 N.4        1 MOL1        -0.4857
       2    H1      18.546992   17.901165   25.761166 H          1 MOL1         0.3650
       3    H2      18.592247   19.086472   24.630291 H          1 MOL1         0.3650
       4    C1      20.474163   18.197524   24.967749 C.3        1 MOL1         0.0209
       5    H3      20.300565   17.360132   24.287601 H          1 MOL1         0.0967
       6    H4      21.001257   17.812405   25.844285 H          1 MOL1         0.0967
       7    C2      21.353764   19.251107   24.256941 C.3        1 MOL1        -0.1378
       8    H5      21.616639   20.045783   24.967034 H          1 MOL1         0.0993
       9    H6      22.302085   18.778476   23.969010 H          1 MOL1         0.0993
      10    C3      20.696248   19.881274   23.003512 C.3        1 MOL1        -0.1338
      11    H7      21.386699   20.626243   22.584402 H          1 MOL1         0.0993
      12    H8      19.792948   20.433950   23.294751 H          1 MOL1         0.0993
      13    C4      20.346915   18.842443   21.910625 C.3        1 MOL1        -0.1338
      14    H9      21.250248   18.279401   21.637900 H          1 MOL1         0.0993
      15    H10     19.624186   18.113532   22.300638 H          1 MOL1         0.0993
      16    C5      19.758688   19.512527   20.648912 C.3        1 MOL1        -0.1313
      17    H11     20.478684   20.237055   20.243146 H          1 MOL1         0.0993
      18    H12     18.855722   20.079280   20.916080 H          1 MOL1         0.0993
      19    C6      19.408491   18.475306   19.560618 C.3        1 MOL1        -0.2328
      20    H13     18.993258   18.969927   18.672953 H          1 MOL1         0.1004
      21    H14     18.663003   17.756563   19.925090 H          1 MOL1         0.1004
      22    H15     20.299236   17.914937   19.247953 H          1 MOL1         0.1004
      23    C7      19.255350   19.732554   26.539216 C.3        1 MOL1        -0.0781
      24    H16     19.796038   19.288114   27.377604 H          1 MOL1         0.0978
      25    H17     19.805014   20.596134   26.159383 H          1 MOL1         0.0978
      26    H18     18.260750   20.044514   26.865514 H          1 MOL1         0.0978
@<TRIPOS>BOND
    1     1     2    1
    2     1     3    1
    3     1     4    1
    4     4     5    1
    5     4     6    1
    6     4     7    1
    7     7     8    1
    8     7     9    1
    9     7    10    1
   10    10    11    1
   11    10    12    1
   12    10    13    1
   13    13    14    1
   14    13    15    1
   15    13    16    1
   16    16    17    1
   17    16    18    1
   18    16    19    1
   19    19    20    1
   20    19    21    1
   21    19    22    1
   22     1    23    1
   23    23    24    1
   24    23    25    1
   25    23    26    1
@<TRIPOS>SUBSTRUCTURE
       1 MOL1            1 RESIDUE      1      MOL     
@<SCITEGIC>MOL_PROPERTY
VM2 Rank
SciTegic.value.IntegerValue
53

@<SCITEGIC>MOL_PROPERTY
Conf_Id
SciTegic.value.IntegerValue
1581

@<SCITEGIC>MOL_PROPERTY
Probability
SciTegic.value.DoubleValue
0.69

@<SCITEGIC>MOL_PROPERTY
Sum Probability
SciTegic.value.DoubleValue
81.40

@<SCITEGIC>MOL_PROPERTY
Delta G
SciTegic.value.DoubleValue
1.356

@<SCITEGIC>MOL_PROPERTY
G
SciTegic.value.DoubleValue
76.822

@<SCITEGIC>MOL_PROPERTY
E
SciTegic.value.DoubleValue
44.139

@<SCITEGIC>MOL_PROPERTY
-TS
SciTegic.value.DoubleValue
32.683

@<SCITEGIC>MOL_PROPERTY
U+W
SciTegic.value.DoubleValue
22.677

@<SCITEGIC>MOL_PROPERTY
U
SciTegic.value.DoubleValue
72.375

@<SCITEGIC>MOL_PROPERTY
W
SciTegic.value.DoubleValue
-49.698

@<SCITEGIC>MOL_PROPERTY
W(PB)
SciTegic.value.DoubleValue
-51.947

@<SCITEGIC>MOL_PROPERTY
W(SA)
SciTegic.value.DoubleValue
2.249

@<SCITEGIC>MOL_PROPERTY
Valence
SciTegic.value.DoubleValue
2.386

@<SCITEGIC>MOL_PROPERTY
Coulomb
SciTegic.value.DoubleValue
69.689

@<SCITEGIC>MOL_PROPERTY
VdW
SciTegic.value.DoubleValue
0.300

@<SCITEGIC>MOL_PROPERTY
VdW6
SciTegic.value.DoubleValue
-7.603

@<SCITEGIC>MOL_PROPERTY
VdW12
SciTegic.value.DoubleValue
7.903

@<SCITEGIC>MOL_PROPERTY
Bond
SciTegic.value.DoubleValue
0.210

@<SCITEGIC>MOL_PROPERTY
Angle
SciTegic.value.DoubleValue
0.753

@<SCITEGIC>MOL_PROPERTY
Pdih
SciTegic.value.DoubleValue
1.423

@<SCITEGIC>MOL_PROPERTY
Idih
SciTegic.value.DoubleValue
0.000

@<SCITEGIC>MOL_PROPERTY
Tether
SciTegic.value.DoubleValue
0.000

@<TRIPOS>MOLECULE
guest-s12_vm2.mol2 : vm2 ligand conformer 54
          26          25           1
SMALL
USER_CHARGES
 
@<TRIPOS>ATOM
       1    N1      20.333439   18.543132   26.274546 N.4        1 MOL1        -0.4857
       2    H1      21.196942   18.144379   26.676124 H          1 MOL1         0.3650
       3    H2      19.578547   17.914040   26.588901 H          1 MOL1         0.3650
       4    C1      20.426656   18.535207   24.758021 C.3        1 MOL1         0.0209
       5    H3      20.745880   17.534174   24.456981 H          1 MOL1         0.0967
       6    H4      21.207231   19.242295   24.467421 H          1 MOL1         0.0967
       7    C2      19.107549   18.879205   24.034024 C.3        1 MOL1        -0.1378
       8    H5      18.317721   18.203233   24.387285 H          1 MOL1         0.0993
       9    H6      18.790074   19.896879   24.295456 H          1 MOL1         0.0993
      10    C3      19.224802   18.755720   22.496599 C.3        1 MOL1        -0.1338
      11    H7      18.235635   18.931507   22.051806 H          1 MOL1         0.0993
      12    H8      19.503968   17.725304   22.239436 H          1 MOL1         0.0993
      13    C4      20.243339   19.751708   21.886240 C.3        1 MOL1        -0.1338
      14    H9      20.007654   20.766108   22.236665 H          1 MOL1         0.0993
      15    H10     21.255539   19.526529   22.248078 H          1 MOL1         0.0993
      16    C5      20.246387   19.755239   20.338337 C.3        1 MOL1        -0.1313
      17    H11     20.915513   20.553866   19.988560 H          1 MOL1         0.0993
      18    H12     19.244424   20.008993   19.964849 H          1 MOL1         0.0993
      19    C6      20.706466   18.414149   19.722565 C.3        1 MOL1        -0.2328
      20    H13     21.695455   18.124419   20.100642 H          1 MOL1         0.1004
      21    H14     20.776157   18.496836   18.630215 H          1 MOL1         0.1004
      22    H15     20.001397   17.604277   19.947167 H          1 MOL1         0.1004
      23    C7      20.119362   19.955640   26.806668 C.3        1 MOL1        -0.0781
      24    H16     19.172269   20.345222   26.428128 H          1 MOL1         0.0978
      25    H17     20.093817   19.925972   27.898250 H          1 MOL1         0.0978
      26    H18     20.941901   20.592697   26.474377 H          1 MOL1         0.0978
@<TRIPOS>BOND
    1     1     2    1
    2     1     3    1
    3     1     4    1
    4     4     5    1
    5     4     6    1
    6     4     7    1
    7     7     8    1
    8     7     9    1
    9     7    10    1
   10    10    11    1
   11    10    12    1
   12    10    13    1
   13    13    14    1
   14    13    15    1
   15    13    16    1
   16    16    17    1
   17    16    18    1
   18    16    19    1
   19    19    20    1
   20    19    21    1
   21    19    22    1
   22     1    23    1
   23    23    24    1
   24    23    25    1
   25    23    26    1
@<TRIPOS>SUBSTRUCTURE
       1 MOL1            1 RESIDUE      1      MOL     
@<SCITEGIC>MOL_PROPERTY
VM2 Rank
SciTegic.value.IntegerValue
54

@<SCITEGIC>MOL_PROPERTY
Conf_Id
SciTegic.value.IntegerValue
203

@<SCITEGIC>MOL_PROPERTY
Probability
SciTegic.value.DoubleValue
0.68

@<SCITEGIC>MOL_PROPERTY
Sum Probability
SciTegic.value.DoubleValue
82.08

@<SCITEGIC>MOL_PROPERTY
Delta G
SciTegic.value.DoubleValue
1.363

@<SCITEGIC>MOL_PROPERTY
G
SciTegic.value.DoubleValue
76.829

@<SCITEGIC>MOL_PROPERTY
E
SciTegic.value.DoubleValue
44.285

@<SCITEGIC>MOL_PROPERTY
-TS
SciTegic.value.DoubleValue
32.544

@<SCITEGIC>MOL_PROPERTY
U+W
SciTegic.value.DoubleValue
22.823

@<SCITEGIC>MOL_PROPERTY
U
SciTegic.value.DoubleValue
72.114

@<SCITEGIC>MOL_PROPERTY
W
SciTegic.value.DoubleValue
-49.291

@<SCITEGIC>MOL_PROPERTY
W(PB)
SciTegic.value.DoubleValue
-51.567

@<SCITEGIC>MOL_PROPERTY
W(SA)
SciTegic.value.DoubleValue
2.276

@<SCITEGIC>MOL_PROPERTY
Valence
SciTegic.value.DoubleValue
2.783

@<SCITEGIC>MOL_PROPERTY
Coulomb
SciTegic.value.DoubleValue
68.782

@<SCITEGIC>MOL_PROPERTY
VdW
SciTegic.value.DoubleValue
0.549

@<SCITEGIC>MOL_PROPERTY
VdW6
SciTegic.value.DoubleValue
-7.241

@<SCITEGIC>MOL_PROPERTY
VdW12
SciTegic.value.DoubleValue
7.790

@<SCITEGIC>MOL_PROPERTY
Bond
SciTegic.value.DoubleValue
0.221

@<SCITEGIC>MOL_PROPERTY
Angle
SciTegic.value.DoubleValue
0.803

@<SCITEGIC>MOL_PROPERTY
Pdih
SciTegic.value.DoubleValue
1.759

@<SCITEGIC>MOL_PROPERTY
Idih
SciTegic.value.DoubleValue
0.000

@<SCITEGIC>MOL_PROPERTY
Tether
SciTegic.value.DoubleValue
0.000

@<TRIPOS>MOLECULE
guest-s12_vm2.mol2 : vm2 ligand conformer 55
          26          25           1
SMALL
USER_CHARGES
 
@<TRIPOS>ATOM
       1    N1      20.892191   18.879147   25.492424 N.4        1 MOL1        -0.4857
       2    H1      21.379421   19.371740   24.729086 H          1 MOL1         0.3650
       3    H2      21.584233   18.211843   25.868640 H          1 MOL1         0.3650
       4    C1      19.697286   18.118124   24.940211 C.3        1 MOL1         0.0209
       5    H3      19.198868   17.628097   25.780397 H          1 MOL1         0.0967
       6    H4      20.083814   17.338034   24.279894 H          1 MOL1         0.0967
       7    C2      18.674840   18.977188   24.162015 C.3        1 MOL1        -0.1378
       8    H5      17.864188   18.324677   23.811773 H          1 MOL1         0.0993
       9    H6      18.207676   19.697219   24.846236 H          1 MOL1         0.0993
      10    C3      19.277533   19.736213   22.953228 C.3        1 MOL1        -0.1338
      11    H7      20.027849   20.457933   23.303034 H          1 MOL1         0.0993
      12    H8      18.481845   20.329261   22.481500 H          1 MOL1         0.0993
      13    C4      19.905223   18.797282   21.894922 C.3        1 MOL1        -0.1338
      14    H9      20.731161   18.226594   22.339784 H          1 MOL1         0.0993
      15    H10     19.155624   18.065357   21.563570 H          1 MOL1         0.0993
      16    C5      20.432895   19.581458   20.672806 C.3        1 MOL1        -0.1313
      17    H11     21.181880   20.316884   20.998546 H          1 MOL1         0.0993
      18    H12     19.611658   20.148633   20.212518 H          1 MOL1         0.0993
      19    C6      21.060586   18.644196   19.619056 C.3        1 MOL1        -0.2328
      20    H13     21.908427   18.088109   20.039908 H          1 MOL1         0.1004
      21    H14     21.428535   19.218871   18.759185 H          1 MOL1         0.1004
      22    H15     20.325421   17.917836   19.248739 H          1 MOL1         0.1004
      23    C7      20.467446   19.856392   26.582338 C.3        1 MOL1        -0.0781
      24    H16     19.970543   19.305665   27.383931 H          1 MOL1         0.0978
      25    H17     21.353073   20.360683   26.975243 H          1 MOL1         0.0978
      26    H18     19.782404   20.593694   26.158928 H          1 MOL1         0.0978
@<TRIPOS>BOND
    1     1     2    1
    2     1     3    1
    3     1     4    1
    4     4     5    1
    5     4     6    1
    6     4     7    1
    7     7     8    1
    8     7     9    1
    9     7    10    1
   10    10    11    1
   11    10    12    1
   12    10    13    1
   13    13    14    1
   14    13    15    1
   15    13    16    1
   16    16    17    1
   17    16    18    1
   18    16    19    1
   19    19    20    1
   20    19    21    1
   21    19    22    1
   22     1    23    1
   23    23    24    1
   24    23    25    1
   25    23    26    1
@<TRIPOS>SUBSTRUCTURE
       1 MOL1            1 RESIDUE      1      MOL     
@<SCITEGIC>MOL_PROPERTY
VM2 Rank
SciTegic.value.IntegerValue
55

@<SCITEGIC>MOL_PROPERTY
Conf_Id
SciTegic.value.IntegerValue
276

@<SCITEGIC>MOL_PROPERTY
Probability
SciTegic.value.DoubleValue
0.67

@<SCITEGIC>MOL_PROPERTY
Sum Probability
SciTegic.value.DoubleValue
82.75

@<SCITEGIC>MOL_PROPERTY
Delta G
SciTegic.value.DoubleValue
1.374

@<SCITEGIC>MOL_PROPERTY
G
SciTegic.value.DoubleValue
76.841

@<SCITEGIC>MOL_PROPERTY
E
SciTegic.value.DoubleValue
44.158

@<SCITEGIC>MOL_PROPERTY
-TS
SciTegic.value.DoubleValue
32.683

@<SCITEGIC>MOL_PROPERTY
U+W
SciTegic.value.DoubleValue
22.696

@<SCITEGIC>MOL_PROPERTY
U
SciTegic.value.DoubleValue
72.375

@<SCITEGIC>MOL_PROPERTY
W
SciTegic.value.DoubleValue
-49.679

@<SCITEGIC>MOL_PROPERTY
W(PB)
SciTegic.value.DoubleValue
-51.929

@<SCITEGIC>MOL_PROPERTY
W(SA)
SciTegic.value.DoubleValue
2.250

@<SCITEGIC>MOL_PROPERTY
Valence
SciTegic.value.DoubleValue
2.386

@<SCITEGIC>MOL_PROPERTY
Coulomb
SciTegic.value.DoubleValue
69.689

@<SCITEGIC>MOL_PROPERTY
VdW
SciTegic.value.DoubleValue
0.300

@<SCITEGIC>MOL_PROPERTY
VdW6
SciTegic.value.DoubleValue
-7.603

@<SCITEGIC>MOL_PROPERTY
VdW12
SciTegic.value.DoubleValue
7.903

@<SCITEGIC>MOL_PROPERTY
Bond
SciTegic.value.DoubleValue
0.210

@<SCITEGIC>MOL_PROPERTY
Angle
SciTegic.value.DoubleValue
0.753

@<SCITEGIC>MOL_PROPERTY
Pdih
SciTegic.value.DoubleValue
1.423

@<SCITEGIC>MOL_PROPERTY
Idih
SciTegic.value.DoubleValue
0.000

@<SCITEGIC>MOL_PROPERTY
Tether
SciTegic.value.DoubleValue
0.000

@<TRIPOS>MOLECULE
guest-s12_vm2.mol2 : vm2 ligand conformer 56
          26          25           1
SMALL
USER_CHARGES
 
@<TRIPOS>ATOM
       1    N1      19.819573   18.399434   26.206851 N.4        1 MOL1        -0.4857
       2    H1      20.768880   18.034439   26.380132 H          1 MOL1         0.3650
       3    H2      19.184319   17.645441   26.513218 H          1 MOL1         0.3650
       4    C1      19.619742   18.660919   24.723328 C.3        1 MOL1         0.0209
       5    H3      18.623421   19.089119   24.588035 H          1 MOL1         0.0967
       6    H4      19.643780   17.691572   24.219852 H          1 MOL1         0.0967
       7    C2      20.679394   19.585966   24.087275 C.3        1 MOL1        -0.1378
       8    H5      20.659175   20.563089   24.586673 H          1 MOL1         0.0993
       9    H6      21.681019   19.168569   24.254934 H          1 MOL1         0.0993
      10    C3      20.451501   19.798745   22.572013 C.3        1 MOL1        -0.1338
      11    H7      21.184907   20.529719   22.204596 H          1 MOL1         0.0993
      12    H8      19.460748   20.246492   22.417753 H          1 MOL1         0.0993
      13    C4      20.578999   18.491374   21.749449 C.3        1 MOL1        -0.1338
      14    H9      21.532175   18.003451   21.995864 H          1 MOL1         0.0993
      15    H10     19.786936   17.786162   22.034671 H          1 MOL1         0.0993
      16    C5      20.526377   18.721453   20.219621 C.3        1 MOL1        -0.1313
      17    H11     20.724199   17.766884   19.712130 H          1 MOL1         0.0993
      18    H12     21.334344   19.402545   19.917754 H          1 MOL1         0.0993
      19    C6      19.169216   19.275107   19.728749 C.3        1 MOL1        -0.2328
      20    H13     18.980561   20.283399   20.117630 H          1 MOL1         0.1004
      21    H14     18.341295   18.625287   20.040631 H          1 MOL1         0.1004
      22    H15     19.152957   19.336221   18.632882 H          1 MOL1         0.1004
      23    C7      19.563199   19.657002   27.029713 C.3        1 MOL1        -0.0781
      24    H16     19.678785   19.419841   28.089656 H          1 MOL1         0.0978
      25    H17     20.282164   20.428146   26.746138 H          1 MOL1         0.0978
      26    H18     18.547011   20.009186   26.839547 H          1 MOL1         0.0978
@<TRIPOS>BOND
    1     1     2    1
    2     1     3    1
    3     1     4    1
    4     4     5    1
    5     4     6    1
    6     4     7    1
    7     7     8    1
    8     7     9    1
    9     7    10    1
   10    10    11    1
   11    10    12    1
   12    10    13    1
   13    13    14    1
   14    13    15    1
   15    13    16    1
   16    16    17    1
   17    16    18    1
   18    16    19    1
   19    19    20    1
   20    19    21    1
   21    19    22    1
   22     1    23    1
   23    23    24    1
   24    23    25    1
   25    23    26    1
@<TRIPOS>SUBSTRUCTURE
       1 MOL1            1 RESIDUE      1      MOL     
@<SCITEGIC>MOL_PROPERTY
VM2 Rank
SciTegic.value.IntegerValue
56

@<SCITEGIC>MOL_PROPERTY
Conf_Id
SciTegic.value.IntegerValue
1371

@<SCITEGIC>MOL_PROPERTY
Probability
SciTegic.value.DoubleValue
0.64

@<SCITEGIC>MOL_PROPERTY
Sum Probability
SciTegic.value.DoubleValue
83.39

@<SCITEGIC>MOL_PROPERTY
Delta G
SciTegic.value.DoubleValue
1.399

@<SCITEGIC>MOL_PROPERTY
G
SciTegic.value.DoubleValue
76.865

@<SCITEGIC>MOL_PROPERTY
E
SciTegic.value.DoubleValue
44.317

@<SCITEGIC>MOL_PROPERTY
-TS
SciTegic.value.DoubleValue
32.549

@<SCITEGIC>MOL_PROPERTY
U+W
SciTegic.value.DoubleValue
22.855

@<SCITEGIC>MOL_PROPERTY
U
SciTegic.value.DoubleValue
72.218

@<SCITEGIC>MOL_PROPERTY
W
SciTegic.value.DoubleValue
-49.364

@<SCITEGIC>MOL_PROPERTY
W(PB)
SciTegic.value.DoubleValue
-51.632

@<SCITEGIC>MOL_PROPERTY
W(SA)
SciTegic.value.DoubleValue
2.268

@<SCITEGIC>MOL_PROPERTY
Valence
SciTegic.value.DoubleValue
2.805

@<SCITEGIC>MOL_PROPERTY
Coulomb
SciTegic.value.DoubleValue
68.813

@<SCITEGIC>MOL_PROPERTY
VdW
SciTegic.value.DoubleValue
0.600

@<SCITEGIC>MOL_PROPERTY
VdW6
SciTegic.value.DoubleValue
-7.202

@<SCITEGIC>MOL_PROPERTY
VdW12
SciTegic.value.DoubleValue
7.802

@<SCITEGIC>MOL_PROPERTY
Bond
SciTegic.value.DoubleValue
0.224

@<SCITEGIC>MOL_PROPERTY
Angle
SciTegic.value.DoubleValue
0.821

@<SCITEGIC>MOL_PROPERTY
Pdih
SciTegic.value.DoubleValue
1.760

@<SCITEGIC>MOL_PROPERTY
Idih
SciTegic.value.DoubleValue
0.000

@<SCITEGIC>MOL_PROPERTY
Tether
SciTegic.value.DoubleValue
0.000

@<TRIPOS>MOLECULE
guest-s12_vm2.mol2 : vm2 ligand conformer 57
          26          25           1
SMALL
USER_CHARGES
 
@<TRIPOS>ATOM
       1    N1      19.487582   19.203241   26.361956 N.4        1 MOL1        -0.4857
       2    H1      19.137468   18.283221   26.670868 H          1 MOL1         0.3650
       3    H2      18.886886   19.891812   26.842529 H          1 MOL1         0.3650
       4    C1      19.326181   19.348984   24.858183 C.3        1 MOL1         0.0209
       5    H3      19.743926   20.316439   24.570047 H          1 MOL1         0.0967
       6    H4      18.254057   19.365008   24.646318 H          1 MOL1         0.0967
       7    C2      19.983360   18.222473   24.032320 C.3        1 MOL1        -0.1378
       8    H5      21.068079   18.216990   24.200229 H          1 MOL1         0.0993
       9    H6      19.605915   17.254022   24.386185 H          1 MOL1         0.0993
      10    C3      19.698187   18.348230   22.516956 C.3        1 MOL1        -0.1338
      11    H7      18.612754   18.339555   22.346308 H          1 MOL1         0.0993
      12    H8      20.099079   17.457024   22.016946 H          1 MOL1         0.0993
      13    C4      20.317556   19.621623   21.886316 C.3        1 MOL1        -0.1338
      14    H9      19.935490   20.511202   22.404237 H          1 MOL1         0.0993
      15    H10     21.405640   19.619008   22.038987 H          1 MOL1         0.0993
      16    C5      20.008941   19.774302   20.376925 C.3        1 MOL1        -0.1313
      17    H11     20.381137   20.751606   20.038918 H          1 MOL1         0.0993
      18    H12     18.921398   19.789230   20.219295 H          1 MOL1         0.0993
      19    C6      20.646538   18.670918   19.501859 C.3        1 MOL1        -0.2328
      20    H13     20.479201   18.880709   18.437473 H          1 MOL1         0.1004
      21    H14     20.213607   17.685728   19.714456 H          1 MOL1         0.1004
      22    H15     21.730456   18.613650   19.665660 H          1 MOL1         0.1004
      23    C7      20.939655   19.400230   26.782485 C.3        1 MOL1        -0.0781
      24    H16     21.275903   20.387846   26.459405 H          1 MOL1         0.0978
      25    H17     21.009985   19.324307   27.869856 H          1 MOL1         0.0978
      26    H18     21.558105   18.628314   26.320179 H          1 MOL1         0.0978
@<TRIPOS>BOND
    1     1     2    1
    2     1     3    1
    3     1     4    1
    4     4     5    1
    5     4     6    1
    6     4     7    1
    7     7     8    1
    8     7     9    1
    9     7    10    1
   10    10    11    1
   11    10    12    1
   12    10    13    1
   13    13    14    1
   14    13    15    1
   15    13    16    1
   16    16    17    1
   17    16    18    1
   18    16    19    1
   19    19    20    1
   20    19    21    1
   21    19    22    1
   22     1    23    1
   23    23    24    1
   24    23    25    1
   25    23    26    1
@<TRIPOS>SUBSTRUCTURE
       1 MOL1            1 RESIDUE      1      MOL     
@<SCITEGIC>MOL_PROPERTY
VM2 Rank
SciTegic.value.IntegerValue
57

@<SCITEGIC>MOL_PROPERTY
Conf_Id
SciTegic.value.IntegerValue
1334

@<SCITEGIC>MOL_PROPERTY
Probability
SciTegic.value.DoubleValue
0.63

@<SCITEGIC>MOL_PROPERTY
Sum Probability
SciTegic.value.DoubleValue
84.02

@<SCITEGIC>MOL_PROPERTY
Delta G
SciTegic.value.DoubleValue
1.413

@<SCITEGIC>MOL_PROPERTY
G
SciTegic.value.DoubleValue
76.880

@<SCITEGIC>MOL_PROPERTY
E
SciTegic.value.DoubleValue
44.366

@<SCITEGIC>MOL_PROPERTY
-TS
SciTegic.value.DoubleValue
32.514

@<SCITEGIC>MOL_PROPERTY
U+W
SciTegic.value.DoubleValue
22.904

@<SCITEGIC>MOL_PROPERTY
U
SciTegic.value.DoubleValue
72.180

@<SCITEGIC>MOL_PROPERTY
W
SciTegic.value.DoubleValue
-49.276

@<SCITEGIC>MOL_PROPERTY
W(PB)
SciTegic.value.DoubleValue
-51.572

@<SCITEGIC>MOL_PROPERTY
W(SA)
SciTegic.value.DoubleValue
2.296

@<SCITEGIC>MOL_PROPERTY
Valence
SciTegic.value.DoubleValue
2.842

@<SCITEGIC>MOL_PROPERTY
Coulomb
SciTegic.value.DoubleValue
68.728

@<SCITEGIC>MOL_PROPERTY
VdW
SciTegic.value.DoubleValue
0.611

@<SCITEGIC>MOL_PROPERTY
VdW6
SciTegic.value.DoubleValue
-7.185

@<SCITEGIC>MOL_PROPERTY
VdW12
SciTegic.value.DoubleValue
7.795

@<SCITEGIC>MOL_PROPERTY
Bond
SciTegic.value.DoubleValue
0.227

@<SCITEGIC>MOL_PROPERTY
Angle
SciTegic.value.DoubleValue
0.860

@<SCITEGIC>MOL_PROPERTY
Pdih
SciTegic.value.DoubleValue
1.755

@<SCITEGIC>MOL_PROPERTY
Idih
SciTegic.value.DoubleValue
0.000

@<SCITEGIC>MOL_PROPERTY
Tether
SciTegic.value.DoubleValue
0.000

@<TRIPOS>MOLECULE
guest-s12_vm2.mol2 : vm2 ligand conformer 58
          26          25           1
SMALL
USER_CHARGES
 
@<TRIPOS>ATOM
       1    N1      20.209048   18.439339   26.220701 N.4        1 MOL1        -0.4857
       2    H1      20.960535   17.827136   26.576213 H          1 MOL1         0.3650
       3    H2      19.343334   17.888820   26.329788 H          1 MOL1         0.3650
       4    C1      20.455232   18.746281   24.752940 C.3        1 MOL1         0.0209
       5    H3      20.662903   17.795660   24.256058 H          1 MOL1         0.0967
       6    H4      21.351420   19.367962   24.684591 H          1 MOL1         0.0967
       7    C2      19.277652   19.442518   24.037608 C.3        1 MOL1        -0.1378
       8    H5      18.371873   18.830036   24.137680 H          1 MOL1         0.0993
       9    H6      19.064855   20.399945   24.530175 H          1 MOL1         0.0993
      10    C3      19.563384   19.707825   22.540543 C.3        1 MOL1        -0.1338
      11    H7      20.451351   20.347898   22.452862 H          1 MOL1         0.0993
      12    H8      18.724817   20.277860   22.117379 H          1 MOL1         0.0993
      13    C4      19.761076   18.407610   21.720517 C.3        1 MOL1        -0.1338
      14    H9      20.657552   17.875332   22.065557 H          1 MOL1         0.0993
      15    H10     18.911546   17.735087   21.903128 H          1 MOL1         0.0993
      16    C5      19.872993   18.654458   20.196503 C.3        1 MOL1        -0.1313
      17    H11     18.966971   19.159885   19.833891 H          1 MOL1         0.0993
      18    H12     19.908667   17.683240   19.683332 H          1 MOL1         0.0993
      19    C6      21.120829   19.475038   19.797841 C.3        1 MOL1        -0.2328
      20    H13     21.073597   20.497864   20.191628 H          1 MOL1         0.1004
      21    H14     21.201078   19.545931   18.705386 H          1 MOL1         0.1004
      22    H15     22.039308   19.004235   20.171643 H          1 MOL1         0.1004
      23    C7      20.147786   19.716930   27.050348 C.3        1 MOL1        -0.0781
      24    H16     20.008651   19.453833   28.101302 H          1 MOL1         0.0978
      25    H17     21.082597   20.268543   26.929171 H          1 MOL1         0.0978
      26    H18     19.309455   20.328846   26.711601 H          1 MOL1         0.0978
@<TRIPOS>BOND
    1     1     2    1
    2     1     3    1
    3     1     4    1
    4     4     5    1
    5     4     6    1
    6     4     7    1
    7     7     8    1
    8     7     9    1
    9     7    10    1
   10    10    11    1
   11    10    12    1
   12    10    13    1
   13    13    14    1
   14    13    15    1
   15    13    16    1
   16    16    17    1
   17    16    18    1
   18    16    19    1
   19    19    20    1
   20    19    21    1
   21    19    22    1
   22     1    23    1
   23    23    24    1
   24    23    25    1
   25    23    26    1
@<TRIPOS>SUBSTRUCTURE
       1 MOL1            1 RESIDUE      1      MOL     
@<SCITEGIC>MOL_PROPERTY
VM2 Rank
SciTegic.value.IntegerValue
58

@<SCITEGIC>MOL_PROPERTY
Conf_Id
SciTegic.value.IntegerValue
849

@<SCITEGIC>MOL_PROPERTY
Probability
SciTegic.value.DoubleValue
0.60

@<SCITEGIC>MOL_PROPERTY
Sum Probability
SciTegic.value.DoubleValue
84.62

@<SCITEGIC>MOL_PROPERTY
Delta G
SciTegic.value.DoubleValue
1.438

@<SCITEGIC>MOL_PROPERTY
G
SciTegic.value.DoubleValue
76.905

@<SCITEGIC>MOL_PROPERTY
E
SciTegic.value.DoubleValue
44.356

@<SCITEGIC>MOL_PROPERTY
-TS
SciTegic.value.DoubleValue
32.549

@<SCITEGIC>MOL_PROPERTY
U+W
SciTegic.value.DoubleValue
22.894

@<SCITEGIC>MOL_PROPERTY
U
SciTegic.value.DoubleValue
72.218

@<SCITEGIC>MOL_PROPERTY
W
SciTegic.value.DoubleValue
-49.324

@<SCITEGIC>MOL_PROPERTY
W(PB)
SciTegic.value.DoubleValue
-51.599

@<SCITEGIC>MOL_PROPERTY
W(SA)
SciTegic.value.DoubleValue
2.275

@<SCITEGIC>MOL_PROPERTY
Valence
SciTegic.value.DoubleValue
2.805

@<SCITEGIC>MOL_PROPERTY
Coulomb
SciTegic.value.DoubleValue
68.813

@<SCITEGIC>MOL_PROPERTY
VdW
SciTegic.value.DoubleValue
0.600

@<SCITEGIC>MOL_PROPERTY
VdW6
SciTegic.value.DoubleValue
-7.202

@<SCITEGIC>MOL_PROPERTY
VdW12
SciTegic.value.DoubleValue
7.802

@<SCITEGIC>MOL_PROPERTY
Bond
SciTegic.value.DoubleValue
0.224

@<SCITEGIC>MOL_PROPERTY
Angle
SciTegic.value.DoubleValue
0.821

@<SCITEGIC>MOL_PROPERTY
Pdih
SciTegic.value.DoubleValue
1.760

@<SCITEGIC>MOL_PROPERTY
Idih
SciTegic.value.DoubleValue
0.000

@<SCITEGIC>MOL_PROPERTY
Tether
SciTegic.value.DoubleValue
0.000

@<TRIPOS>MOLECULE
guest-s12_vm2.mol2 : vm2 ligand conformer 59
          26          25           1
SMALL
USER_CHARGES
 
@<TRIPOS>ATOM
       1    N1      20.359917   19.292629   26.392869 N.4        1 MOL1        -0.4857
       2    H1      20.773516   20.085130   26.909392 H          1 MOL1         0.3650
       3    H2      20.866614   18.460402   26.732132 H          1 MOL1         0.3650
       4    C1      20.593378   19.478850   24.903090 C.3        1 MOL1         0.0209
       5    H3      21.652163   19.713326   24.766750 H          1 MOL1         0.0967
       6    H4      20.009481   20.343620   24.579454 H          1 MOL1         0.0967
       7    C2      20.237641   18.248497   24.041320 C.3        1 MOL1        -0.1378
       8    H5      20.777811   17.374125   24.427676 H          1 MOL1         0.0993
       9    H6      19.167508   18.022068   24.132884 H          1 MOL1         0.0993
      10    C3      20.596821   18.440353   22.548787 C.3        1 MOL1        -0.1338
      11    H7      20.420934   17.490013   22.028317 H          1 MOL1         0.0993
      12    H8      21.670708   18.653111   22.454655 H          1 MOL1         0.0993
      13    C4      19.777912   19.566272   21.867208 C.3        1 MOL1        -0.1338
      14    H9      18.704980   19.342076   21.943338 H          1 MOL1         0.0993
      15    H10     19.934524   20.511083   22.404212 H          1 MOL1         0.0993
      16    C5      20.154078   19.789167   20.382071 C.3        1 MOL1        -0.1313
      17    H11     21.224362   20.025208   20.300847 H          1 MOL1         0.0993
      18    H12     19.616227   20.673231   20.011872 H          1 MOL1         0.0993
      19    C6      19.816024   18.585845   19.472420 C.3        1 MOL1        -0.2328
      20    H13     18.757414   18.309067   19.560333 H          1 MOL1         0.1004
      21    H14     20.423539   17.707244   19.721841 H          1 MOL1         0.1004
      22    H15     20.011499   18.832841   18.420891 H          1 MOL1         0.1004
      23    C7      18.872230   19.188386   26.709234 C.3        1 MOL1        -0.0781
      24    H16     18.456850   18.310624   26.210181 H          1 MOL1         0.0978
      25    H17     18.742759   19.091846   27.789513 H          1 MOL1         0.0978
      26    H18     18.366401   20.089780   26.356450 H          1 MOL1         0.0978
@<TRIPOS>BOND
    1     1     2    1
    2     1     3    1
    3     1     4    1
    4     4     5    1
    5     4     6    1
    6     4     7    1
    7     7     8    1
    8     7     9    1
    9     7    10    1
   10    10    11    1
   11    10    12    1
   12    10    13    1
   13    13    14    1
   14    13    15    1
   15    13    16    1
   16    16    17    1
   17    16    18    1
   18    16    19    1
   19    19    20    1
   20    19    21    1
   21    19    22    1
   22     1    23    1
   23    23    24    1
   24    23    25    1
   25    23    26    1
@<TRIPOS>SUBSTRUCTURE
       1 MOL1            1 RESIDUE      1      MOL     
@<SCITEGIC>MOL_PROPERTY
VM2 Rank
SciTegic.value.IntegerValue
59

@<SCITEGIC>MOL_PROPERTY
Conf_Id
SciTegic.value.IntegerValue
790

@<SCITEGIC>MOL_PROPERTY
Probability
SciTegic.value.DoubleValue
0.55

@<SCITEGIC>MOL_PROPERTY
Sum Probability
SciTegic.value.DoubleValue
85.16

@<SCITEGIC>MOL_PROPERTY
Delta G
SciTegic.value.DoubleValue
1.493

@<SCITEGIC>MOL_PROPERTY
G
SciTegic.value.DoubleValue
76.959

@<SCITEGIC>MOL_PROPERTY
E
SciTegic.value.DoubleValue
44.446

@<SCITEGIC>MOL_PROPERTY
-TS
SciTegic.value.DoubleValue
32.514

@<SCITEGIC>MOL_PROPERTY
U+W
SciTegic.value.DoubleValue
22.984

@<SCITEGIC>MOL_PROPERTY
U
SciTegic.value.DoubleValue
72.180

@<SCITEGIC>MOL_PROPERTY
W
SciTegic.value.DoubleValue
-49.196

@<SCITEGIC>MOL_PROPERTY
W(PB)
SciTegic.value.DoubleValue
-51.484

@<SCITEGIC>MOL_PROPERTY
W(SA)
SciTegic.value.DoubleValue
2.287

@<SCITEGIC>MOL_PROPERTY
Valence
SciTegic.value.DoubleValue
2.842

@<SCITEGIC>MOL_PROPERTY
Coulomb
SciTegic.value.DoubleValue
68.728

@<SCITEGIC>MOL_PROPERTY
VdW
SciTegic.value.DoubleValue
0.610

@<SCITEGIC>MOL_PROPERTY
VdW6
SciTegic.value.DoubleValue
-7.184

@<SCITEGIC>MOL_PROPERTY
VdW12
SciTegic.value.DoubleValue
7.795

@<SCITEGIC>MOL_PROPERTY
Bond
SciTegic.value.DoubleValue
0.227

@<SCITEGIC>MOL_PROPERTY
Angle
SciTegic.value.DoubleValue
0.860

@<SCITEGIC>MOL_PROPERTY
Pdih
SciTegic.value.DoubleValue
1.755

@<SCITEGIC>MOL_PROPERTY
Idih
SciTegic.value.DoubleValue
0.000

@<SCITEGIC>MOL_PROPERTY
Tether
SciTegic.value.DoubleValue
0.000

@<TRIPOS>MOLECULE
guest-s12_vm2.mol2 : vm2 ligand conformer 60
          26          25           1
SMALL
USER_CHARGES
 
@<TRIPOS>ATOM
       1    N1      20.032532   19.027214   26.294709 N.4        1 MOL1        -0.4857
       2    H1      20.862560   18.431116   26.436621 H          1 MOL1         0.3650
       3    H2      19.430187   18.843940   27.112951 H          1 MOL1         0.3650
       4    C1      19.303366   18.619061   25.025488 C.3        1 MOL1         0.0209
       5    H3      18.457767   19.298004   24.889951 H          1 MOL1         0.0967
       6    H4      18.907876   17.613121   25.187712 H          1 MOL1         0.0967
       7    C2      20.180168   18.613827   23.756833 C.3        1 MOL1        -0.1378
       8    H5      20.559168   19.626383   23.572798 H          1 MOL1         0.0993
       9    H6      21.051371   17.965549   23.918591 H          1 MOL1         0.0993
      10    C3      19.384446   18.119122   22.526193 C.3        1 MOL1        -0.1338
      11    H7      18.534246   18.788918   22.340245 H          1 MOL1         0.0993
      12    H8      18.949214   17.136224   22.754276 H          1 MOL1         0.0993
      13    C4      20.244616   17.986127   21.242596 C.3        1 MOL1        -0.1338
      14    H9      21.021018   17.226876   21.409859 H          1 MOL1         0.0993
      15    H10     19.612031   17.594817   20.433925 H          1 MOL1         0.0993
      16    C5      20.921831   19.294410   20.759666 C.3        1 MOL1        -0.1313
      17    H11     21.496675   19.074628   19.849156 H          1 MOL1         0.0993
      18    H12     21.655603   19.638510   21.500798 H          1 MOL1         0.0993
      19    C6      19.918765   20.429519   20.452437 C.3        1 MOL1        -0.2328
      20    H13     19.402118   20.766498   21.359712 H          1 MOL1         0.1004
      21    H14     19.162713   20.102453   19.726939 H          1 MOL1         0.1004
      22    H15     20.438784   21.297575   20.027102 H          1 MOL1         0.1004
      23    C7      20.422275   20.500721   26.259077 C.3        1 MOL1        -0.0781
      24    H16     19.523234   21.106463   26.126249 H          1 MOL1         0.0978
      25    H17     20.908474   20.764310   27.201002 H          1 MOL1         0.0978
      26    H18     21.111456   20.672975   25.429994 H          1 MOL1         0.0978
@<TRIPOS>BOND
    1     1     2    1
    2     1     3    1
    3     1     4    1
    4     4     5    1
    5     4     6    1
    6     4     7    1
    7     7     8    1
    8     7     9    1
    9     7    10    1
   10    10    11    1
   11    10    12    1
   12    10    13    1
   13    13    14    1
   14    13    15    1
   15    13    16    1
   16    16    17    1
   17    16    18    1
   18    16    19    1
   19    19    20    1
   20    19    21    1
   21    19    22    1
   22     1    23    1
   23    23    24    1
   24    23    25    1
   25    23    26    1
@<TRIPOS>SUBSTRUCTURE
       1 MOL1            1 RESIDUE      1      MOL     
@<SCITEGIC>MOL_PROPERTY
VM2 Rank
SciTegic.value.IntegerValue
60

@<SCITEGIC>MOL_PROPERTY
Conf_Id
SciTegic.value.IntegerValue
231

@<SCITEGIC>MOL_PROPERTY
Probability
SciTegic.value.DoubleValue
0.52

@<SCITEGIC>MOL_PROPERTY
Sum Probability
SciTegic.value.DoubleValue
85.69

@<SCITEGIC>MOL_PROPERTY
Delta G
SciTegic.value.DoubleValue
1.520

@<SCITEGIC>MOL_PROPERTY
G
SciTegic.value.DoubleValue
76.987

@<SCITEGIC>MOL_PROPERTY
E
SciTegic.value.DoubleValue
44.221

@<SCITEGIC>MOL_PROPERTY
-TS
SciTegic.value.DoubleValue
32.766

@<SCITEGIC>MOL_PROPERTY
U+W
SciTegic.value.DoubleValue
22.759

@<SCITEGIC>MOL_PROPERTY
U
SciTegic.value.DoubleValue
72.216

@<SCITEGIC>MOL_PROPERTY
W
SciTegic.value.DoubleValue
-49.457

@<SCITEGIC>MOL_PROPERTY
W(PB)
SciTegic.value.DoubleValue
-51.691

@<SCITEGIC>MOL_PROPERTY
W(SA)
SciTegic.value.DoubleValue
2.234

@<SCITEGIC>MOL_PROPERTY
Valence
SciTegic.value.DoubleValue
2.957

@<SCITEGIC>MOL_PROPERTY
Coulomb
SciTegic.value.DoubleValue
68.763

@<SCITEGIC>MOL_PROPERTY
VdW
SciTegic.value.DoubleValue
0.496

@<SCITEGIC>MOL_PROPERTY
VdW6
SciTegic.value.DoubleValue
-7.593

@<SCITEGIC>MOL_PROPERTY
VdW12
SciTegic.value.DoubleValue
8.090

@<SCITEGIC>MOL_PROPERTY
Bond
SciTegic.value.DoubleValue
0.241

@<SCITEGIC>MOL_PROPERTY
Angle
SciTegic.value.DoubleValue
1.122

@<SCITEGIC>MOL_PROPERTY
Pdih
SciTegic.value.DoubleValue
1.593

@<SCITEGIC>MOL_PROPERTY
Idih
SciTegic.value.DoubleValue
0.000

@<SCITEGIC>MOL_PROPERTY
Tether
SciTegic.value.DoubleValue
0.000

@<TRIPOS>MOLECULE
guest-s12_vm2.mol2 : vm2 ligand conformer 61
          26          25           1
SMALL
USER_CHARGES
 
@<TRIPOS>ATOM
       1    N1      19.870655   18.298499   26.126040 N.4        1 MOL1        -0.4857
       2    H1      20.440430   17.864493   26.869639 H          1 MOL1         0.3650
       3    H2      19.247942   17.545767   25.794402 H          1 MOL1         0.3650
       4    C1      20.776630   18.765962   24.999124 C.3        1 MOL1         0.0209
       5    H3      21.438994   17.933394   24.748615 H          1 MOL1         0.0967
       6    H4      21.391341   19.585609   25.379493 H          1 MOL1         0.0967
       7    C2      20.033615   19.215416   23.724669 C.3        1 MOL1        -0.1378
       8    H5      19.381116   18.400767   23.386473 H          1 MOL1         0.0993
       9    H6      19.388984   20.073683   23.953603 H          1 MOL1         0.0993
      10    C3      21.025944   19.601048   22.602637 C.3        1 MOL1        -0.1338
      11    H7      21.644469   18.732762   22.338966 H          1 MOL1         0.0993
      12    H8      21.721024   20.360365   22.987169 H          1 MOL1         0.0993
      13    C4      20.338411   20.166917   21.332908 C.3        1 MOL1        -0.1338
      14    H9      19.817938   21.098774   21.593659 H          1 MOL1         0.0993
      15    H10     21.114603   20.449768   20.608508 H          1 MOL1         0.0993
      16    C5      19.333153   19.210475   20.641552 C.3        1 MOL1        -0.1313
      17    H11     18.914465   19.719880   19.762358 H          1 MOL1         0.0993
      18    H12     18.481281   19.010171   21.305102 H          1 MOL1         0.0993
      19    C6      19.966501   17.875568   20.187819 C.3        1 MOL1        -0.2328
      20    H13     19.239399   17.276932   19.624073 H          1 MOL1         0.1004
      21    H14     20.295161   17.274328   21.044607 H          1 MOL1         0.1004
      22    H15     20.833217   18.050875   19.537429 H          1 MOL1         0.1004
      23    C7      19.063091   19.456116   26.702251 C.3        1 MOL1        -0.0781
      24    H16     18.415370   19.867492   25.925544 H          1 MOL1         0.0978
      25    H17     18.454097   19.088908   27.531329 H          1 MOL1         0.0978
      26    H18     19.747849   20.227502   27.061289 H          1 MOL1         0.0978
@<TRIPOS>BOND
    1     1     2    1
    2     1     3    1
    3     1     4    1
    4     4     5    1
    5     4     6    1
    6     4     7    1
    7     7     8    1
    8     7     9    1
    9     7    10    1
   10    10    11    1
   11    10    12    1
   12    10    13    1
   13    13    14    1
   14    13    15    1
   15    13    16    1
   16    16    17    1
   17    16    18    1
   18    16    19    1
   19    19    20    1
   20    19    21    1
   21    19    22    1
   22     1    23    1
   23    23    24    1
   24    23    25    1
   25    23    26    1
@<TRIPOS>SUBSTRUCTURE
       1 MOL1            1 RESIDUE      1      MOL     
@<SCITEGIC>MOL_PROPERTY
VM2 Rank
SciTegic.value.IntegerValue
61

@<SCITEGIC>MOL_PROPERTY
Conf_Id
SciTegic.value.IntegerValue
1466

@<SCITEGIC>MOL_PROPERTY
Probability
SciTegic.value.DoubleValue
0.51

@<SCITEGIC>MOL_PROPERTY
Sum Probability
SciTegic.value.DoubleValue
86.19

@<SCITEGIC>MOL_PROPERTY
Delta G
SciTegic.value.DoubleValue
1.540

@<SCITEGIC>MOL_PROPERTY
G
SciTegic.value.DoubleValue
77.006

@<SCITEGIC>MOL_PROPERTY
E
SciTegic.value.DoubleValue
44.246

@<SCITEGIC>MOL_PROPERTY
-TS
SciTegic.value.DoubleValue
32.760

@<SCITEGIC>MOL_PROPERTY
U+W
SciTegic.value.DoubleValue
22.784

@<SCITEGIC>MOL_PROPERTY
U
SciTegic.value.DoubleValue
72.256

@<SCITEGIC>MOL_PROPERTY
W
SciTegic.value.DoubleValue
-49.472

@<SCITEGIC>MOL_PROPERTY
W(PB)
SciTegic.value.DoubleValue
-51.710

@<SCITEGIC>MOL_PROPERTY
W(SA)
SciTegic.value.DoubleValue
2.238

@<SCITEGIC>MOL_PROPERTY
Valence
SciTegic.value.DoubleValue
2.959

@<SCITEGIC>MOL_PROPERTY
Coulomb
SciTegic.value.DoubleValue
68.784

@<SCITEGIC>MOL_PROPERTY
VdW
SciTegic.value.DoubleValue
0.514

@<SCITEGIC>MOL_PROPERTY
VdW6
SciTegic.value.DoubleValue
-7.552

@<SCITEGIC>MOL_PROPERTY
VdW12
SciTegic.value.DoubleValue
8.066

@<SCITEGIC>MOL_PROPERTY
Bond
SciTegic.value.DoubleValue
0.240

@<SCITEGIC>MOL_PROPERTY
Angle
SciTegic.value.DoubleValue
1.124

@<SCITEGIC>MOL_PROPERTY
Pdih
SciTegic.value.DoubleValue
1.595

@<SCITEGIC>MOL_PROPERTY
Idih
SciTegic.value.DoubleValue
0.000

@<SCITEGIC>MOL_PROPERTY
Tether
SciTegic.value.DoubleValue
0.000

@<TRIPOS>MOLECULE
guest-s12_vm2.mol2 : vm2 ligand conformer 62
          26          25           1
SMALL
USER_CHARGES
 
@<TRIPOS>ATOM
       1    N1      19.868587   19.010310   26.288970 N.4        1 MOL1        -0.4857
       2    H1      20.437087   18.948208   27.148550 H          1 MOL1         0.3650
       3    H2      19.170124   18.256110   26.376980 H          1 MOL1         0.3650
       4    C1      20.752532   18.768917   25.076713 C.3        1 MOL1         0.0209
       5    H3      21.332852   17.863821   25.273372 H          1 MOL1         0.0967
       6    H4      21.448969   19.607236   24.995656 H          1 MOL1         0.0967
       7    C2      19.986022   18.593895   23.750019 C.3        1 MOL1        -0.1378
       8    H5      19.256222   17.780427   23.855324 H          1 MOL1         0.0993
       9    H6      19.422277   19.509140   23.532547 H          1 MOL1         0.0993
      10    C3      20.949866   18.280567   22.581599 C.3        1 MOL1        -0.1338
      11    H7      21.559256   17.405394   22.846658 H          1 MOL1         0.0993
      12    H8      21.656594   19.110885   22.450639 H          1 MOL1         0.0993
      13    C4      20.226664   17.984241   21.242059 C.3        1 MOL1        -0.1338
      14    H9      20.980620   17.735727   20.482435 H          1 MOL1         0.0993
      15    H10     19.611432   17.081598   21.360235 H          1 MOL1         0.0993
      16    C5      19.332613   19.130552   20.703455 C.3        1 MOL1        -0.1313
      17    H11     18.494213   19.312761   21.389013 H          1 MOL1         0.0993
      18    H12     18.879593   18.804732   19.756676 H          1 MOL1         0.0993
      19    C6      20.102445   20.448297   20.458683 C.3        1 MOL1        -0.2328
      20    H13     20.958016   20.287198   19.790116 H          1 MOL1         0.1004
      21    H14     20.475025   20.877004   21.397310 H          1 MOL1         0.1004
      22    H15     19.447532   21.195247   19.991771 H          1 MOL1         0.1004
      23    C7      19.189270   20.373221   26.215501 C.3        1 MOL1        -0.0781
      24    H16     19.952504   21.150919   26.141334 H          1 MOL1         0.0978
      25    H17     18.539021   20.406857   25.339108 H          1 MOL1         0.0978
      26    H18     18.594908   20.525077   27.119252 H          1 MOL1         0.0978
@<TRIPOS>BOND
    1     1     2    1
    2     1     3    1
    3     1     4    1
    4     4     5    1
    5     4     6    1
    6     4     7    1
    7     7     8    1
    8     7     9    1
    9     7    10    1
   10    10    11    1
   11    10    12    1
   12    10    13    1
   13    13    14    1
   14    13    15    1
   15    13    16    1
   16    16    17    1
   17    16    18    1
   18    16    19    1
   19    19    20    1
   20    19    21    1
   21    19    22    1
   22     1    23    1
   23    23    24    1
   24    23    25    1
   25    23    26    1
@<TRIPOS>SUBSTRUCTURE
       1 MOL1            1 RESIDUE      1      MOL     
@<SCITEGIC>MOL_PROPERTY
VM2 Rank
SciTegic.value.IntegerValue
62

@<SCITEGIC>MOL_PROPERTY
Conf_Id
SciTegic.value.IntegerValue
252

@<SCITEGIC>MOL_PROPERTY
Probability
SciTegic.value.DoubleValue
0.49

@<SCITEGIC>MOL_PROPERTY
Sum Probability
SciTegic.value.DoubleValue
86.69

@<SCITEGIC>MOL_PROPERTY
Delta G
SciTegic.value.DoubleValue
1.554

@<SCITEGIC>MOL_PROPERTY
G
SciTegic.value.DoubleValue
77.021

@<SCITEGIC>MOL_PROPERTY
E
SciTegic.value.DoubleValue
44.255

@<SCITEGIC>MOL_PROPERTY
-TS
SciTegic.value.DoubleValue
32.766

@<SCITEGIC>MOL_PROPERTY
U+W
SciTegic.value.DoubleValue
22.793

@<SCITEGIC>MOL_PROPERTY
U
SciTegic.value.DoubleValue
72.216

@<SCITEGIC>MOL_PROPERTY
W
SciTegic.value.DoubleValue
-49.423

@<SCITEGIC>MOL_PROPERTY
W(PB)
SciTegic.value.DoubleValue
-51.678

@<SCITEGIC>MOL_PROPERTY
W(SA)
SciTegic.value.DoubleValue
2.255

@<SCITEGIC>MOL_PROPERTY
Valence
SciTegic.value.DoubleValue
2.957

@<SCITEGIC>MOL_PROPERTY
Coulomb
SciTegic.value.DoubleValue
68.762

@<SCITEGIC>MOL_PROPERTY
VdW
SciTegic.value.DoubleValue
0.497

@<SCITEGIC>MOL_PROPERTY
VdW6
SciTegic.value.DoubleValue
-7.593

@<SCITEGIC>MOL_PROPERTY
VdW12
SciTegic.value.DoubleValue
8.090

@<SCITEGIC>MOL_PROPERTY
Bond
SciTegic.value.DoubleValue
0.241

@<SCITEGIC>MOL_PROPERTY
Angle
SciTegic.value.DoubleValue
1.122

@<SCITEGIC>MOL_PROPERTY
Pdih
SciTegic.value.DoubleValue
1.593

@<SCITEGIC>MOL_PROPERTY
Idih
SciTegic.value.DoubleValue
0.000

@<SCITEGIC>MOL_PROPERTY
Tether
SciTegic.value.DoubleValue
0.000

@<TRIPOS>MOLECULE
guest-s12_vm2.mol2 : vm2 ligand conformer 63
          26          25           1
SMALL
USER_CHARGES
 
@<TRIPOS>ATOM
       1    N1      19.838438   18.114169   25.782701 N.4        1 MOL1        -0.4857
       2    H1      20.409697   17.303587   26.069916 H          1 MOL1         0.3650
       3    H2      18.930360   17.713677   25.501162 H          1 MOL1         0.3650
       4    C1      20.496887   18.806805   24.601272 C.3        1 MOL1         0.0209
       5    H3      20.744668   18.032264   23.871454 H          1 MOL1         0.0967
       6    H4      21.430099   19.255424   24.950748 H          1 MOL1         0.0967
       7    C2      19.622304   19.879600   23.918042 C.3        1 MOL1        -0.1378
       8    H5      18.668863   19.434998   23.606220 H          1 MOL1         0.0993
       9    H6      19.371706   20.663484   24.644141 H          1 MOL1         0.0993
      10    C3      20.323091   20.539207   22.703879 C.3        1 MOL1        -0.1338
      11    H7      21.203250   21.092654   23.059551 H          1 MOL1         0.0993
      12    H8      19.649898   21.291082   22.269386 H          1 MOL1         0.0993
      13    C4      20.770759   19.555535   21.591503 C.3        1 MOL1        -0.1338
      14    H9      21.269454   20.132559   20.800465 H          1 MOL1         0.0993
      15    H10     21.528948   18.864226   21.983111 H          1 MOL1         0.0993
      16    C5      19.604713   18.752454   20.967855 C.3        1 MOL1        -0.1313
      17    H11     18.826524   19.442782   20.613411 H          1 MOL1         0.0993
      18    H12     19.138884   18.109464   21.726474 H          1 MOL1         0.0993
      19    C6      20.083042   17.873309   19.792667 C.3        1 MOL1        -0.2328
      20    H13     20.519718   18.485665   18.992970 H          1 MOL1         0.1004
      21    H14     19.244528   17.309027   19.364315 H          1 MOL1         0.1004
      22    H15     20.841087   17.151185   20.122950 H          1 MOL1         0.1004
      23    C7      19.668765   19.068921   26.959082 C.3        1 MOL1        -0.0781
      24    H16     19.229138   18.526185   27.798868 H          1 MOL1         0.0978
      25    H17     20.646491   19.462235   27.245759 H          1 MOL1         0.0978
      26    H18     19.009937   19.889256   26.667577 H          1 MOL1         0.0978
@<TRIPOS>BOND
    1     1     2    1
    2     1     3    1
    3     1     4    1
    4     4     5    1
    5     4     6    1
    6     4     7    1
    7     7     8    1
    8     7     9    1
    9     7    10    1
   10    10    11    1
   11    10    12    1
   12    10    13    1
   13    13    14    1
   14    13    15    1
   15    13    16    1
   16    16    17    1
   17    16    18    1
   18    16    19    1
   19    19    20    1
   20    19    21    1
   21    19    22    1
   22     1    23    1
   23    23    24    1
   24    23    25    1
   25    23    26    1
@<TRIPOS>SUBSTRUCTURE
       1 MOL1            1 RESIDUE      1      MOL     
@<SCITEGIC>MOL_PROPERTY
VM2 Rank
SciTegic.value.IntegerValue
63

@<SCITEGIC>MOL_PROPERTY
Conf_Id
SciTegic.value.IntegerValue
168

@<SCITEGIC>MOL_PROPERTY
Probability
SciTegic.value.DoubleValue
0.49

@<SCITEGIC>MOL_PROPERTY
Sum Probability
SciTegic.value.DoubleValue
87.18

@<SCITEGIC>MOL_PROPERTY
Delta G
SciTegic.value.DoubleValue
1.556

@<SCITEGIC>MOL_PROPERTY
G
SciTegic.value.DoubleValue
77.022

@<SCITEGIC>MOL_PROPERTY
E
SciTegic.value.DoubleValue
44.350

@<SCITEGIC>MOL_PROPERTY
-TS
SciTegic.value.DoubleValue
32.672

@<SCITEGIC>MOL_PROPERTY
U+W
SciTegic.value.DoubleValue
22.889

@<SCITEGIC>MOL_PROPERTY
U
SciTegic.value.DoubleValue
72.548

@<SCITEGIC>MOL_PROPERTY
W
SciTegic.value.DoubleValue
-49.659

@<SCITEGIC>MOL_PROPERTY
W(PB)
SciTegic.value.DoubleValue
-51.921

@<SCITEGIC>MOL_PROPERTY
W(SA)
SciTegic.value.DoubleValue
2.262

@<SCITEGIC>MOL_PROPERTY
Valence
SciTegic.value.DoubleValue
2.777

@<SCITEGIC>MOL_PROPERTY
Coulomb
SciTegic.value.DoubleValue
69.321

@<SCITEGIC>MOL_PROPERTY
VdW
SciTegic.value.DoubleValue
0.450

@<SCITEGIC>MOL_PROPERTY
VdW6
SciTegic.value.DoubleValue
-7.543

@<SCITEGIC>MOL_PROPERTY
VdW12
SciTegic.value.DoubleValue
7.993

@<SCITEGIC>MOL_PROPERTY
Bond
SciTegic.value.DoubleValue
0.232

@<SCITEGIC>MOL_PROPERTY
Angle
SciTegic.value.DoubleValue
0.994

@<SCITEGIC>MOL_PROPERTY
Pdih
SciTegic.value.DoubleValue
1.552

@<SCITEGIC>MOL_PROPERTY
Idih
SciTegic.value.DoubleValue
0.000

@<SCITEGIC>MOL_PROPERTY
Tether
SciTegic.value.DoubleValue
0.000

@<TRIPOS>MOLECULE
guest-s12_vm2.mol2 : vm2 ligand conformer 64
          26          25           1
SMALL
USER_CHARGES
 
@<TRIPOS>ATOM
       1    N1      20.276710   18.158665   25.798190 N.4        1 MOL1        -0.4857
       2    H1      21.264224   17.950816   25.583993 H          1 MOL1         0.3650
       3    H2      19.861224   17.247803   26.050326 H          1 MOL1         0.3650
       4    C1      19.577169   18.713331   24.568530 C.3        1 MOL1         0.0209
       5    H3      18.550665   18.962805   24.848401 H          1 MOL1         0.0967
       6    H4      19.541934   17.910045   23.828640 H          1 MOL1         0.0967
       7    C2      20.264170   19.944820   23.940792 C.3        1 MOL1        -0.1378
       8    H5      20.300690   20.757812   24.677137 H          1 MOL1         0.0993
       9    H6      21.306944   19.703018   23.699734 H          1 MOL1         0.0993
      10    C3      19.532077   20.458978   22.675858 C.3        1 MOL1        -0.1338
      11    H7      20.069415   21.333742   22.284267 H          1 MOL1         0.0993
      12    H8      18.536037   20.821963   22.965049 H          1 MOL1         0.0993
      13    C4      19.369995   19.413409   21.541877 C.3        1 MOL1        -0.1338
      14    H9      18.740380   18.581273   21.884296 H          1 MOL1         0.0993
      15    H10     18.822373   19.884236   20.713731 H          1 MOL1         0.0993
      16    C5      20.714249   18.865050   21.007253 C.3        1 MOL1        -0.1313
      17    H11     21.245262   18.323239   21.801232 H          1 MOL1         0.0993
      18    H12     21.361008   19.699962   20.703299 H          1 MOL1         0.0993
      19    C6      20.505599   17.916156   19.807742 C.3        1 MOL1        -0.2328
      20    H13     21.468189   17.534609   19.443258 H          1 MOL1         0.1004
      21    H14     20.012105   18.434097   18.975047 H          1 MOL1         0.1004
      22    H15     19.886584   17.054318   20.089234 H          1 MOL1         0.1004
      23    C7      20.168030   19.119591   26.976757 C.3        1 MOL1        -0.0781
      24    H16     20.647551   18.670215   27.849222 H          1 MOL1         0.0978
      25    H17     20.667504   20.057597   26.726464 H          1 MOL1         0.0978
      26    H18     19.113546   19.306456   27.191169 H          1 MOL1         0.0978
@<TRIPOS>BOND
    1     1     2    1
    2     1     3    1
    3     1     4    1
    4     4     5    1
    5     4     6    1
    6     4     7    1
    7     7     8    1
    8     7     9    1
    9     7    10    1
   10    10    11    1
   11    10    12    1
   12    10    13    1
   13    13    14    1
   14    13    15    1
   15    13    16    1
   16    16    17    1
   17    16    18    1
   18    16    19    1
   19    19    20    1
   20    19    21    1
   21    19    22    1
   22     1    23    1
   23    23    24    1
   24    23    25    1
   25    23    26    1
@<TRIPOS>SUBSTRUCTURE
       1 MOL1            1 RESIDUE      1      MOL     
@<SCITEGIC>MOL_PROPERTY
VM2 Rank
SciTegic.value.IntegerValue
64

@<SCITEGIC>MOL_PROPERTY
Conf_Id
SciTegic.value.IntegerValue
207

@<SCITEGIC>MOL_PROPERTY
Probability
SciTegic.value.DoubleValue
0.49

@<SCITEGIC>MOL_PROPERTY
Sum Probability
SciTegic.value.DoubleValue
87.67

@<SCITEGIC>MOL_PROPERTY
Delta G
SciTegic.value.DoubleValue
1.564

@<SCITEGIC>MOL_PROPERTY
G
SciTegic.value.DoubleValue
77.030

@<SCITEGIC>MOL_PROPERTY
E
SciTegic.value.DoubleValue
44.358

@<SCITEGIC>MOL_PROPERTY
-TS
SciTegic.value.DoubleValue
32.672

@<SCITEGIC>MOL_PROPERTY
U+W
SciTegic.value.DoubleValue
22.896

@<SCITEGIC>MOL_PROPERTY
U
SciTegic.value.DoubleValue
72.548

@<SCITEGIC>MOL_PROPERTY
W
SciTegic.value.DoubleValue
-49.652

@<SCITEGIC>MOL_PROPERTY
W(PB)
SciTegic.value.DoubleValue
-51.931

@<SCITEGIC>MOL_PROPERTY
W(SA)
SciTegic.value.DoubleValue
2.279

@<SCITEGIC>MOL_PROPERTY
Valence
SciTegic.value.DoubleValue
2.777

@<SCITEGIC>MOL_PROPERTY
Coulomb
SciTegic.value.DoubleValue
69.321

@<SCITEGIC>MOL_PROPERTY
VdW
SciTegic.value.DoubleValue
0.450

@<SCITEGIC>MOL_PROPERTY
VdW6
SciTegic.value.DoubleValue
-7.543

@<SCITEGIC>MOL_PROPERTY
VdW12
SciTegic.value.DoubleValue
7.993

@<SCITEGIC>MOL_PROPERTY
Bond
SciTegic.value.DoubleValue
0.232

@<SCITEGIC>MOL_PROPERTY
Angle
SciTegic.value.DoubleValue
0.994

@<SCITEGIC>MOL_PROPERTY
Pdih
SciTegic.value.DoubleValue
1.552

@<SCITEGIC>MOL_PROPERTY
Idih
SciTegic.value.DoubleValue
0.000

@<SCITEGIC>MOL_PROPERTY
Tether
SciTegic.value.DoubleValue
0.000

@<TRIPOS>MOLECULE
guest-s12_vm2.mol2 : vm2 ligand conformer 65
          26          25           1
SMALL
USER_CHARGES
 
@<TRIPOS>ATOM
       1    N1      20.184914   18.330572   26.137186 N.4        1 MOL1        -0.4857
       2    H1      20.968337   17.721305   25.855394 H          1 MOL1         0.3650
       3    H2      19.663732   17.785270   26.842141 H          1 MOL1         0.3650
       4    C1      19.284475   18.613668   24.946249 C.3        1 MOL1         0.0209
       5    H3      18.491885   19.289644   25.276753 H          1 MOL1         0.0967
       6    H4      18.822979   17.666377   24.655886 H          1 MOL1         0.0967
       7    C2      20.008915   19.212954   23.723810 C.3        1 MOL1        -0.1378
       8    H5      20.449377   20.182013   23.991207 H          1 MOL1         0.0993
       9    H6      20.834485   18.549225   23.438001 H          1 MOL1         0.0993
      10    C3      19.040277   19.398364   22.532277 C.3        1 MOL1        -0.1338
      11    H7      18.181054   19.999008   22.861715 H          1 MOL1         0.0993
      12    H8      18.629753   18.425012   22.232153 H          1 MOL1         0.0993
      13    C4      19.686684   20.100395   21.309806 C.3        1 MOL1        -0.1338
      14    H9      18.922061   20.225975   20.530822 H          1 MOL1         0.0993
      15    H10     19.988848   21.116220   21.599700 H          1 MOL1         0.0993
      16    C5      20.910157   19.371445   20.697398 C.3        1 MOL1        -0.1313
      17    H11     21.736332   19.342461   21.420378 H          1 MOL1         0.0993
      18    H12     21.277937   19.961107   19.846039 H          1 MOL1         0.0993
      19    C6      20.592592   17.939449   20.210033 C.3        1 MOL1        -0.2328
      20    H13     21.463205   17.503880   19.702920 H          1 MOL1         0.1004
      21    H14     19.756062   17.940863   19.499293 H          1 MOL1         0.1004
      22    H15     20.332829   17.278182   21.046001 H          1 MOL1         0.1004
      23    C7      20.699986   19.623152   26.760240 C.3        1 MOL1        -0.0781
      24    H16     21.310875   19.380428   27.632585 H          1 MOL1         0.0978
      25    H17     21.304256   20.162220   26.027909 H          1 MOL1         0.0978
      26    H18     19.850279   20.238014   27.064841 H          1 MOL1         0.0978
@<TRIPOS>BOND
    1     1     2    1
    2     1     3    1
    3     1     4    1
    4     4     5    1
    5     4     6    1
    6     4     7    1
    7     7     8    1
    8     7     9    1
    9     7    10    1
   10    10    11    1
   11    10    12    1
   12    10    13    1
   13    13    14    1
   14    13    15    1
   15    13    16    1
   16    16    17    1
   17    16    18    1
   18    16    19    1
   19    19    20    1
   20    19    21    1
   21    19    22    1
   22     1    23    1
   23    23    24    1
   24    23    25    1
   25    23    26    1
@<TRIPOS>SUBSTRUCTURE
       1 MOL1            1 RESIDUE      1      MOL     
@<SCITEGIC>MOL_PROPERTY
VM2 Rank
SciTegic.value.IntegerValue
65

@<SCITEGIC>MOL_PROPERTY
Conf_Id
SciTegic.value.IntegerValue
1004

@<SCITEGIC>MOL_PROPERTY
Probability
SciTegic.value.DoubleValue
0.48

@<SCITEGIC>MOL_PROPERTY
Sum Probability
SciTegic.value.DoubleValue
88.15

@<SCITEGIC>MOL_PROPERTY
Delta G
SciTegic.value.DoubleValue
1.567

@<SCITEGIC>MOL_PROPERTY
G
SciTegic.value.DoubleValue
77.034

@<SCITEGIC>MOL_PROPERTY
E
SciTegic.value.DoubleValue
44.273

@<SCITEGIC>MOL_PROPERTY
-TS
SciTegic.value.DoubleValue
32.760

@<SCITEGIC>MOL_PROPERTY
U+W
SciTegic.value.DoubleValue
22.811

@<SCITEGIC>MOL_PROPERTY
U
SciTegic.value.DoubleValue
72.256

@<SCITEGIC>MOL_PROPERTY
W
SciTegic.value.DoubleValue
-49.445

@<SCITEGIC>MOL_PROPERTY
W(PB)
SciTegic.value.DoubleValue
-51.706

@<SCITEGIC>MOL_PROPERTY
W(SA)
SciTegic.value.DoubleValue
2.261

@<SCITEGIC>MOL_PROPERTY
Valence
SciTegic.value.DoubleValue
2.959

@<SCITEGIC>MOL_PROPERTY
Coulomb
SciTegic.value.DoubleValue
68.784

@<SCITEGIC>MOL_PROPERTY
VdW
SciTegic.value.DoubleValue
0.514

@<SCITEGIC>MOL_PROPERTY
VdW6
SciTegic.value.DoubleValue
-7.552

@<SCITEGIC>MOL_PROPERTY
VdW12
SciTegic.value.DoubleValue
8.066

@<SCITEGIC>MOL_PROPERTY
Bond
SciTegic.value.DoubleValue
0.241

@<SCITEGIC>MOL_PROPERTY
Angle
SciTegic.value.DoubleValue
1.124

@<SCITEGIC>MOL_PROPERTY
Pdih
SciTegic.value.DoubleValue
1.594

@<SCITEGIC>MOL_PROPERTY
Idih
SciTegic.value.DoubleValue
0.000

@<SCITEGIC>MOL_PROPERTY
Tether
SciTegic.value.DoubleValue
0.000

@<TRIPOS>MOLECULE
guest-s12_vm2.mol2 : vm2 ligand conformer 66
          26          25           1
SMALL
USER_CHARGES
 
@<TRIPOS>ATOM
       1    N1      20.562201   18.838263   26.306660 N.4        1 MOL1        -0.4857
       2    H1      21.430322   19.154669   26.767288 H          1 MOL1         0.3650
       3    H2      20.614651   17.807956   26.319143 H          1 MOL1         0.3650
       4    C1      20.532877   19.345728   24.874576 C.3        1 MOL1         0.0209
       5    H3      21.502921   19.110074   24.430862 H          1 MOL1         0.0967
       6    H4      20.428514   20.433157   24.904900 H          1 MOL1         0.0967
       7    C2      19.415522   18.735328   24.001304 C.3        1 MOL1        -0.1378
       8    H5      19.506169   17.641081   23.997806 H          1 MOL1         0.0993
       9    H6      18.438941   18.967524   24.445078 H          1 MOL1         0.0993
      10    C3      19.435295   19.263230   22.547001 C.3        1 MOL1        -0.1338
      11    H7      19.338882   20.357780   22.553471 H          1 MOL1         0.0993
      12    H8      18.547940   18.875870   22.029798 H          1 MOL1         0.0993
      13    C4      20.710976   18.854156   21.767036 C.3        1 MOL1        -0.1338
      14    H9      21.599593   19.222944   22.295895 H          1 MOL1         0.0993
      15    H10     20.796748   17.758985   21.745106 H          1 MOL1         0.0993
      16    C5      20.751086   19.403486   20.320126 C.3        1 MOL1        -0.1313
      17    H11     21.731531   19.169368   19.882148 H          1 MOL1         0.0993
      18    H12     20.676511   20.499844   20.336284 H          1 MOL1         0.0993
      19    C6      19.648130   18.820191   19.407427 C.3        1 MOL1        -0.2328
      20    H13     19.782276   19.166079   18.374325 H          1 MOL1         0.1004
      21    H14     18.647927   19.133149   19.731255 H          1 MOL1         0.1004
      22    H15     19.680431   17.722970   19.400205 H          1 MOL1         0.1004
      23    C7      19.351914   19.329618   27.092870 C.3        1 MOL1        -0.0781
      24    H16     18.440609   18.936053   26.638332 H          1 MOL1         0.0978
      25    H17     19.429011   18.977449   28.123946 H          1 MOL1         0.0978
      26    H18     19.332880   20.421505   27.076836 H          1 MOL1         0.0978
@<TRIPOS>BOND
    1     1     2    1
    2     1     3    1
    3     1     4    1
    4     4     5    1
    5     4     6    1
    6     4     7    1
    7     7     8    1
    8     7     9    1
    9     7    10    1
   10    10    11    1
   11    10    12    1
   12    10    13    1
   13    13    14    1
   14    13    15    1
   15    13    16    1
   16    16    17    1
   17    16    18    1
   18    16    19    1
   19    19    20    1
   20    19    21    1
   21    19    22    1
   22     1    23    1
   23    23    24    1
   24    23    25    1
   25    23    26    1
@<TRIPOS>SUBSTRUCTURE
       1 MOL1            1 RESIDUE      1      MOL     
@<SCITEGIC>MOL_PROPERTY
VM2 Rank
SciTegic.value.IntegerValue
66

@<SCITEGIC>MOL_PROPERTY
Conf_Id
SciTegic.value.IntegerValue
1215

@<SCITEGIC>MOL_PROPERTY
Probability
SciTegic.value.DoubleValue
0.48

@<SCITEGIC>MOL_PROPERTY
Sum Probability
SciTegic.value.DoubleValue
88.64

@<SCITEGIC>MOL_PROPERTY
Delta G
SciTegic.value.DoubleValue
1.568

@<SCITEGIC>MOL_PROPERTY
G
SciTegic.value.DoubleValue
77.035

@<SCITEGIC>MOL_PROPERTY
E
SciTegic.value.DoubleValue
44.525

@<SCITEGIC>MOL_PROPERTY
-TS
SciTegic.value.DoubleValue
32.510

@<SCITEGIC>MOL_PROPERTY
U+W
SciTegic.value.DoubleValue
23.063

@<SCITEGIC>MOL_PROPERTY
U
SciTegic.value.DoubleValue
72.298

@<SCITEGIC>MOL_PROPERTY
W
SciTegic.value.DoubleValue
-49.235

@<SCITEGIC>MOL_PROPERTY
W(PB)
SciTegic.value.DoubleValue
-51.503

@<SCITEGIC>MOL_PROPERTY
W(SA)
SciTegic.value.DoubleValue
2.268

@<SCITEGIC>MOL_PROPERTY
Valence
SciTegic.value.DoubleValue
2.869

@<SCITEGIC>MOL_PROPERTY
Coulomb
SciTegic.value.DoubleValue
68.765

@<SCITEGIC>MOL_PROPERTY
VdW
SciTegic.value.DoubleValue
0.665

@<SCITEGIC>MOL_PROPERTY
VdW6
SciTegic.value.DoubleValue
-7.141

@<SCITEGIC>MOL_PROPERTY
VdW12
SciTegic.value.DoubleValue
7.806

@<SCITEGIC>MOL_PROPERTY
Bond
SciTegic.value.DoubleValue
0.231

@<SCITEGIC>MOL_PROPERTY
Angle
SciTegic.value.DoubleValue
0.882

@<SCITEGIC>MOL_PROPERTY
Pdih
SciTegic.value.DoubleValue
1.756

@<SCITEGIC>MOL_PROPERTY
Idih
SciTegic.value.DoubleValue
0.000

@<SCITEGIC>MOL_PROPERTY
Tether
SciTegic.value.DoubleValue
0.000

@<TRIPOS>MOLECULE
guest-s12_vm2.mol2 : vm2 ligand conformer 67
          26          25           1
SMALL
USER_CHARGES
 
@<TRIPOS>ATOM
       1    N1      19.388017   18.718099   26.265068 N.4        1 MOL1        -0.4857
       2    H1      19.544323   17.698419   26.281226 H          1 MOL1         0.3650
       3    H2      18.443760   18.849051   26.661496 H          1 MOL1         0.3650
       4    C1      19.414309   19.231255   24.834955 C.3        1 MOL1         0.0209
       5    H3      19.294299   20.317084   24.864727 H          1 MOL1         0.0967
       6    H4      18.545427   18.807542   24.326121 H          1 MOL1         0.0967
       7    C2      20.690325   18.865595   24.046443 C.3        1 MOL1        -0.1378
       8    H5      21.566310   19.287121   24.555880 H          1 MOL1         0.0993
       9    H6      20.823146   17.775660   24.044353 H          1 MOL1         0.0993
      10    C3      20.666194   19.389116   22.590622 C.3        1 MOL1        -0.1338
      11    H7      21.647475   19.192674   22.139576 H          1 MOL1         0.0993
      12    H8      20.538887   20.480509   22.596069 H          1 MOL1         0.0993
      13    C4      19.557192   18.736500   21.726185 C.3        1 MOL1        -0.1338
      14    H9      19.695974   17.646741   21.706227 H          1 MOL1         0.0993
      15    H10     18.577604   18.914600   22.188816 H          1 MOL1         0.0993
      16    C5      19.508520   19.276637   20.276080 C.3        1 MOL1        -0.1313
      17    H11     19.359048   20.365352   20.289483 H          1 MOL1         0.0993
      18    H12     18.628607   18.852613   19.772231 H          1 MOL1         0.0993
      19    C6      20.767636   18.934323   19.447096 C.3        1 MOL1        -0.2328
      20    H13     20.639153   19.253298   18.404656 H          1 MOL1         0.1004
      21    H14     20.957964   17.853229   19.445585 H          1 MOL1         0.1004
      22    H15     21.658941   19.440365   19.837876 H          1 MOL1         0.1004
      23    C7      20.415807   19.438474   27.130551 C.3        1 MOL1        -0.0781
      24    H16     20.214581   20.511713   27.108149 H          1 MOL1         0.0978
      25    H17     20.339616   19.070536   28.156174 H          1 MOL1         0.0978
      26    H18     21.417418   19.240748   26.743702 H          1 MOL1         0.0978
@<TRIPOS>BOND
    1     1     2    1
    2     1     3    1
    3     1     4    1
    4     4     5    1
    5     4     6    1
    6     4     7    1
    7     7     8    1
    8     7     9    1
    9     7    10    1
   10    10    11    1
   11    10    12    1
   12    10    13    1
   13    13    14    1
   14    13    15    1
   15    13    16    1
   16    16    17    1
   17    16    18    1
   18    16    19    1
   19    19    20    1
   20    19    21    1
   21    19    22    1
   22     1    23    1
   23    23    24    1
   24    23    25    1
   25    23    26    1
@<TRIPOS>SUBSTRUCTURE
       1 MOL1            1 RESIDUE      1      MOL     
@<SCITEGIC>MOL_PROPERTY
VM2 Rank
SciTegic.value.IntegerValue
67

@<SCITEGIC>MOL_PROPERTY
Conf_Id
SciTegic.value.IntegerValue
1470

@<SCITEGIC>MOL_PROPERTY
Probability
SciTegic.value.DoubleValue
0.47

@<SCITEGIC>MOL_PROPERTY
Sum Probability
SciTegic.value.DoubleValue
89.10

@<SCITEGIC>MOL_PROPERTY
Delta G
SciTegic.value.DoubleValue
1.589

@<SCITEGIC>MOL_PROPERTY
G
SciTegic.value.DoubleValue
77.055

@<SCITEGIC>MOL_PROPERTY
E
SciTegic.value.DoubleValue
44.545

@<SCITEGIC>MOL_PROPERTY
-TS
SciTegic.value.DoubleValue
32.510

@<SCITEGIC>MOL_PROPERTY
U+W
SciTegic.value.DoubleValue
23.084

@<SCITEGIC>MOL_PROPERTY
U
SciTegic.value.DoubleValue
72.298

@<SCITEGIC>MOL_PROPERTY
W
SciTegic.value.DoubleValue
-49.215

@<SCITEGIC>MOL_PROPERTY
W(PB)
SciTegic.value.DoubleValue
-51.499

@<SCITEGIC>MOL_PROPERTY
W(SA)
SciTegic.value.DoubleValue
2.284

@<SCITEGIC>MOL_PROPERTY
Valence
SciTegic.value.DoubleValue
2.869

@<SCITEGIC>MOL_PROPERTY
Coulomb
SciTegic.value.DoubleValue
68.765

@<SCITEGIC>MOL_PROPERTY
VdW
SciTegic.value.DoubleValue
0.665

@<SCITEGIC>MOL_PROPERTY
VdW6
SciTegic.value.DoubleValue
-7.141

@<SCITEGIC>MOL_PROPERTY
VdW12
SciTegic.value.DoubleValue
7.806

@<SCITEGIC>MOL_PROPERTY
Bond
SciTegic.value.DoubleValue
0.231

@<SCITEGIC>MOL_PROPERTY
Angle
SciTegic.value.DoubleValue
0.882

@<SCITEGIC>MOL_PROPERTY
Pdih
SciTegic.value.DoubleValue
1.756

@<SCITEGIC>MOL_PROPERTY
Idih
SciTegic.value.DoubleValue
0.000

@<SCITEGIC>MOL_PROPERTY
Tether
SciTegic.value.DoubleValue
0.000

@<TRIPOS>MOLECULE
guest-s12_vm2.mol2 : vm2 ligand conformer 68
          26          25           1
SMALL
USER_CHARGES
 
@<TRIPOS>ATOM
       1    N1      19.489110   18.661766   25.852968 N.4        1 MOL1        -0.4857
       2    H1      20.051834   17.929477   26.313264 H          1 MOL1         0.3650
       3    H2      18.634711   18.185721   25.524379 H          1 MOL1         0.3650
       4    C1      20.248900   19.243580   24.678068 C.3        1 MOL1         0.0209
       5    H3      21.149669   19.725719   25.066035 H          1 MOL1         0.0967
       6    H4      19.618297   20.009048   24.219506 H          1 MOL1         0.0967
       7    C2      20.638196   18.191098   23.622631 C.3        1 MOL1        -0.1378
       8    H5      21.241359   17.408129   24.101040 H          1 MOL1         0.0993
       9    H6      19.735329   17.695857   23.243188 H          1 MOL1         0.0993
      10    C3      21.444820   18.795108   22.446301 C.3        1 MOL1        -0.1338
      11    H7      21.706459   17.994395   21.741739 H          1 MOL1         0.0993
      12    H8      22.401627   19.175064   22.830370 H          1 MOL1         0.0993
      13    C4      20.726763   19.942273   21.685056 C.3        1 MOL1        -0.1338
      14    H9      20.616779   20.809085   22.350558 H          1 MOL1         0.0993
      15    H10     21.376998   20.280405   20.866482 H          1 MOL1         0.0993
      16    C5      19.337454   19.578491   21.101913 C.3        1 MOL1        -0.1313
      17    H11     18.925053   20.465321   20.600719 H          1 MOL1         0.0993
      18    H12     18.636116   19.338552   21.912276 H          1 MOL1         0.0993
      19    C6      19.383950   18.411736   20.089305 C.3        1 MOL1        -0.2328
      20    H13     20.088477   18.624199   19.274795 H          1 MOL1         0.1004
      21    H14     18.394176   18.249804   19.643253 H          1 MOL1         0.1004
      22    H15     19.687223   17.473338   20.569876 H          1 MOL1         0.1004
      23    C7      19.138807   19.765949   26.840758 C.3        1 MOL1        -0.0781
      24    H16     18.516531   20.511261   26.340534 H          1 MOL1         0.0978
      25    H17     18.592386   19.333802   27.682070 H          1 MOL1         0.0978
      26    H18     20.059095   20.232364   27.199200 H          1 MOL1         0.0978
@<TRIPOS>BOND
    1     1     2    1
    2     1     3    1
    3     1     4    1
    4     4     5    1
    5     4     6    1
    6     4     7    1
    7     7     8    1
    8     7     9    1
    9     7    10    1
   10    10    11    1
   11    10    12    1
   12    10    13    1
   13    13    14    1
   14    13    15    1
   15    13    16    1
   16    16    17    1
   17    16    18    1
   18    16    19    1
   19    19    20    1
   20    19    21    1
   21    19    22    1
   22     1    23    1
   23    23    24    1
   24    23    25    1
   25    23    26    1
@<TRIPOS>SUBSTRUCTURE
       1 MOL1            1 RESIDUE      1      MOL     
@<SCITEGIC>MOL_PROPERTY
VM2 Rank
SciTegic.value.IntegerValue
68

@<SCITEGIC>MOL_PROPERTY
Conf_Id
SciTegic.value.IntegerValue
170

@<SCITEGIC>MOL_PROPERTY
Probability
SciTegic.value.DoubleValue
0.39

@<SCITEGIC>MOL_PROPERTY
Sum Probability
SciTegic.value.DoubleValue
89.50

@<SCITEGIC>MOL_PROPERTY
Delta G
SciTegic.value.DoubleValue
1.691

@<SCITEGIC>MOL_PROPERTY
G
SciTegic.value.DoubleValue
77.157

@<SCITEGIC>MOL_PROPERTY
E
SciTegic.value.DoubleValue
44.329

@<SCITEGIC>MOL_PROPERTY
-TS
SciTegic.value.DoubleValue
32.829

@<SCITEGIC>MOL_PROPERTY
U+W
SciTegic.value.DoubleValue
22.867

@<SCITEGIC>MOL_PROPERTY
U
SciTegic.value.DoubleValue
72.455

@<SCITEGIC>MOL_PROPERTY
W
SciTegic.value.DoubleValue
-49.588

@<SCITEGIC>MOL_PROPERTY
W(PB)
SciTegic.value.DoubleValue
-51.822

@<SCITEGIC>MOL_PROPERTY
W(SA)
SciTegic.value.DoubleValue
2.234

@<SCITEGIC>MOL_PROPERTY
Valence
SciTegic.value.DoubleValue
2.909

@<SCITEGIC>MOL_PROPERTY
Coulomb
SciTegic.value.DoubleValue
69.435

@<SCITEGIC>MOL_PROPERTY
VdW
SciTegic.value.DoubleValue
0.111

@<SCITEGIC>MOL_PROPERTY
VdW6
SciTegic.value.DoubleValue
-7.765

@<SCITEGIC>MOL_PROPERTY
VdW12
SciTegic.value.DoubleValue
7.876

@<SCITEGIC>MOL_PROPERTY
Bond
SciTegic.value.DoubleValue
0.233

@<SCITEGIC>MOL_PROPERTY
Angle
SciTegic.value.DoubleValue
1.170

@<SCITEGIC>MOL_PROPERTY
Pdih
SciTegic.value.DoubleValue
1.506

@<SCITEGIC>MOL_PROPERTY
Idih
SciTegic.value.DoubleValue
0.000

@<SCITEGIC>MOL_PROPERTY
Tether
SciTegic.value.DoubleValue
0.000

@<TRIPOS>MOLECULE
guest-s12_vm2.mol2 : vm2 ligand conformer 69
          26          25           1
SMALL
USER_CHARGES
 
@<TRIPOS>ATOM
       1    N1      20.279464   18.915984   25.647289 N.4        1 MOL1        -0.4857
       2    H1      20.936209   18.275389   25.176874 H          1 MOL1         0.3650
       3    H2      19.698168   18.318843   26.255639 H          1 MOL1         0.3650
       4    C1      19.411396   19.614068   24.618920 C.3        1 MOL1         0.0209
       5    H3      20.058703   20.241918   24.001887 H          1 MOL1         0.0967
       6    H4      18.718421   20.265558   25.157331 H          1 MOL1         0.0967
       7    C2      18.613933   18.648025   23.719060 C.3        1 MOL1        -0.1378
       8    H5      17.937694   18.049875   24.344070 H          1 MOL1         0.0993
       9    H6      17.966136   19.235841   23.056276 H          1 MOL1         0.0993
      10    C3      19.501489   17.697518   22.872788 C.3        1 MOL1        -0.1338
      11    H7      18.852803   17.087688   22.228876 H          1 MOL1         0.0993
      12    H8      20.009343   16.986815   23.538524 H          1 MOL1         0.0993
      13    C4      20.564350   18.406617   21.993728 C.3        1 MOL1        -0.1338
      14    H9      21.281657   18.943833   22.628476 H          1 MOL1         0.0993
      15    H10     21.145286   17.638029   21.465350 H          1 MOL1         0.0993
      16    C5      19.957925   19.379619   20.955088 C.3        1 MOL1        -0.1313
      17    H11     19.429195   20.196419   21.464247 H          1 MOL1         0.0993
      18    H12     19.213949   18.851642   20.342313 H          1 MOL1         0.0993
      19    C6      21.043179   19.981439   20.037081 C.3        1 MOL1        -0.2328
      20    H13     21.785984   20.542297   20.619202 H          1 MOL1         0.1004
      21    H14     20.596301   20.670345   19.308584 H          1 MOL1         0.1004
      22    H15     21.568715   19.195887   19.478609 H          1 MOL1         0.1004
      23    C7      21.036264   19.946729   26.473044 C.3        1 MOL1        -0.0781
      24    H16     20.319682   20.593050   26.984598 H          1 MOL1         0.0978
      25    H17     21.657717   19.430578   27.208218 H          1 MOL1         0.0978
      26    H18     21.666947   20.544304   25.811194 H          1 MOL1         0.0978
@<TRIPOS>BOND
    1     1     2    1
    2     1     3    1
    3     1     4    1
    4     4     5    1
    5     4     6    1
    6     4     7    1
    7     7     8    1
    8     7     9    1
    9     7    10    1
   10    10    11    1
   11    10    12    1
   12    10    13    1
   13    13    14    1
   14    13    15    1
   15    13    16    1
   16    16    17    1
   17    16    18    1
   18    16    19    1
   19    19    20    1
   20    19    21    1
   21    19    22    1
   22     1    23    1
   23    23    24    1
   24    23    25    1
   25    23    26    1
@<TRIPOS>SUBSTRUCTURE
       1 MOL1            1 RESIDUE      1      MOL     
@<SCITEGIC>MOL_PROPERTY
VM2 Rank
SciTegic.value.IntegerValue
69

@<SCITEGIC>MOL_PROPERTY
Conf_Id
SciTegic.value.IntegerValue
79

@<SCITEGIC>MOL_PROPERTY
Probability
SciTegic.value.DoubleValue
0.38

@<SCITEGIC>MOL_PROPERTY
Sum Probability
SciTegic.value.DoubleValue
89.87

@<SCITEGIC>MOL_PROPERTY
Delta G
SciTegic.value.DoubleValue
1.715

@<SCITEGIC>MOL_PROPERTY
G
SciTegic.value.DoubleValue
77.181

@<SCITEGIC>MOL_PROPERTY
E
SciTegic.value.DoubleValue
44.473

@<SCITEGIC>MOL_PROPERTY
-TS
SciTegic.value.DoubleValue
32.708

@<SCITEGIC>MOL_PROPERTY
U+W
SciTegic.value.DoubleValue
23.011

@<SCITEGIC>MOL_PROPERTY
U
SciTegic.value.DoubleValue
72.452

@<SCITEGIC>MOL_PROPERTY
W
SciTegic.value.DoubleValue
-49.441

@<SCITEGIC>MOL_PROPERTY
W(PB)
SciTegic.value.DoubleValue
-51.700

@<SCITEGIC>MOL_PROPERTY
W(SA)
SciTegic.value.DoubleValue
2.259

@<SCITEGIC>MOL_PROPERTY
Valence
SciTegic.value.DoubleValue
2.611

@<SCITEGIC>MOL_PROPERTY
Coulomb
SciTegic.value.DoubleValue
69.807

@<SCITEGIC>MOL_PROPERTY
VdW
SciTegic.value.DoubleValue
0.035

@<SCITEGIC>MOL_PROPERTY
VdW6
SciTegic.value.DoubleValue
-7.730

@<SCITEGIC>MOL_PROPERTY
VdW12
SciTegic.value.DoubleValue
7.764

@<SCITEGIC>MOL_PROPERTY
Bond
SciTegic.value.DoubleValue
0.213

@<SCITEGIC>MOL_PROPERTY
Angle
SciTegic.value.DoubleValue
0.953

@<SCITEGIC>MOL_PROPERTY
Pdih
SciTegic.value.DoubleValue
1.445

@<SCITEGIC>MOL_PROPERTY
Idih
SciTegic.value.DoubleValue
0.000

@<SCITEGIC>MOL_PROPERTY
Tether
SciTegic.value.DoubleValue
0.000

@<TRIPOS>MOLECULE
guest-s12_vm2.mol2 : vm2 ligand conformer 70
          26          25           1
SMALL
USER_CHARGES
 
@<TRIPOS>ATOM
       1    N1      19.771292   18.827325   25.922203 N.4        1 MOL1        -0.4857
       2    H1      20.297346   17.955431   26.088754 H          1 MOL1         0.3650
       3    H2      18.862708   18.531987   25.534520 H          1 MOL1         0.3650
       4    C1      20.507293   19.697429   24.921553 C.3        1 MOL1         0.0209
       5    H3      21.459378   19.985366   25.374582 H          1 MOL1         0.0967
       6    H4      19.917148   20.603569   24.763225 H          1 MOL1         0.0967
       7    C2      20.774218   19.009126   23.568349 C.3        1 MOL1        -0.1378
       8    H5      21.409416   19.674747   22.970721 H          1 MOL1         0.0993
       9    H6      21.349378   18.088216   23.732000 H          1 MOL1         0.0993
      10    C3      19.471700   18.692573   22.791173 C.3        1 MOL1        -0.1338
      11    H7      18.911000   19.620023   22.613872 H          1 MOL1         0.0993
      12    H8      18.821252   18.060806   23.410132 H          1 MOL1         0.0993
      13    C4      19.714752   17.956477   21.447823 C.3        1 MOL1        -0.1338
      14    H9      20.180598   16.982785   21.653148 H          1 MOL1         0.0993
      15    H10     18.741915   17.732211   20.988963 H          1 MOL1         0.0993
      16    C5      20.587444   18.720241   20.418917 C.3        1 MOL1        -0.1313
      17    H11     20.681644   18.102763   19.514689 H          1 MOL1         0.0993
      18    H12     21.608567   18.844130   20.803529 H          1 MOL1         0.0993
      19    C6      20.008277   20.097213   20.022061 C.3        1 MOL1        -0.2328
      20    H13     18.979326   20.000844   19.652049 H          1 MOL1         0.1004
      21    H14     20.610357   20.552407   19.225095 H          1 MOL1         0.1004
      22    H15     20.005196   20.792246   20.870893 H          1 MOL1         0.1004
      23    C7      19.573024   19.589615   27.224923 C.3        1 MOL1        -0.0781
      24    H16     18.987453   20.490402   27.028381 H          1 MOL1         0.0978
      25    H17     19.042299   18.952319   27.935771 H          1 MOL1         0.0978
      26    H18     20.548541   19.863901   27.632436 H          1 MOL1         0.0978
@<TRIPOS>BOND
    1     1     2    1
    2     1     3    1
    3     1     4    1
    4     4     5    1
    5     4     6    1
    6     4     7    1
    7     7     8    1
    8     7     9    1
    9     7    10    1
   10    10    11    1
   11    10    12    1
   12    10    13    1
   13    13    14    1
   14    13    15    1
   15    13    16    1
   16    16    17    1
   17    16    18    1
   18    16    19    1
   19    19    20    1
   20    19    21    1
   21    19    22    1
   22     1    23    1
   23    23    24    1
   24    23    25    1
   25    23    26    1
@<TRIPOS>SUBSTRUCTURE
       1 MOL1            1 RESIDUE      1      MOL     
@<SCITEGIC>MOL_PROPERTY
VM2 Rank
SciTegic.value.IntegerValue
70

@<SCITEGIC>MOL_PROPERTY
Conf_Id
SciTegic.value.IntegerValue
208

@<SCITEGIC>MOL_PROPERTY
Probability
SciTegic.value.DoubleValue
0.37

@<SCITEGIC>MOL_PROPERTY
Sum Probability
SciTegic.value.DoubleValue
90.24

@<SCITEGIC>MOL_PROPERTY
Delta G
SciTegic.value.DoubleValue
1.726

@<SCITEGIC>MOL_PROPERTY
G
SciTegic.value.DoubleValue
77.193

@<SCITEGIC>MOL_PROPERTY
E
SciTegic.value.DoubleValue
44.522

@<SCITEGIC>MOL_PROPERTY
-TS
SciTegic.value.DoubleValue
32.671

@<SCITEGIC>MOL_PROPERTY
U+W
SciTegic.value.DoubleValue
23.060

@<SCITEGIC>MOL_PROPERTY
U
SciTegic.value.DoubleValue
72.391

@<SCITEGIC>MOL_PROPERTY
W
SciTegic.value.DoubleValue
-49.331

@<SCITEGIC>MOL_PROPERTY
W(PB)
SciTegic.value.DoubleValue
-51.596

@<SCITEGIC>MOL_PROPERTY
W(SA)
SciTegic.value.DoubleValue
2.265

@<SCITEGIC>MOL_PROPERTY
Valence
SciTegic.value.DoubleValue
2.830

@<SCITEGIC>MOL_PROPERTY
Coulomb
SciTegic.value.DoubleValue
69.222

@<SCITEGIC>MOL_PROPERTY
VdW
SciTegic.value.DoubleValue
0.339

@<SCITEGIC>MOL_PROPERTY
VdW6
SciTegic.value.DoubleValue
-7.379

@<SCITEGIC>MOL_PROPERTY
VdW12
SciTegic.value.DoubleValue
7.718

@<SCITEGIC>MOL_PROPERTY
Bond
SciTegic.value.DoubleValue
0.228

@<SCITEGIC>MOL_PROPERTY
Angle
SciTegic.value.DoubleValue
1.104

@<SCITEGIC>MOL_PROPERTY
Pdih
SciTegic.value.DoubleValue
1.497

@<SCITEGIC>MOL_PROPERTY
Idih
SciTegic.value.DoubleValue
0.000

@<SCITEGIC>MOL_PROPERTY
Tether
SciTegic.value.DoubleValue
0.000

@<TRIPOS>MOLECULE
guest-s12_vm2.mol2 : vm2 ligand conformer 71
          26          25           1
SMALL
USER_CHARGES
 
@<TRIPOS>ATOM
       1    N1      19.695029   18.855692   25.626316 N.4        1 MOL1        -0.4857
       2    H1      20.341716   18.385266   26.278286 H          1 MOL1         0.3650
       3    H2      19.217426   18.098039   25.115609 H          1 MOL1         0.3650
       4    C1      20.472485   19.723566   24.656387 C.3        1 MOL1         0.0209
       5    H3      20.978556   20.498733   25.237375 H          1 MOL1         0.0967
       6    H4      19.755670   20.210711   23.990955 H          1 MOL1         0.0967
       7    C2      21.511272   18.946986   23.821652 C.3        1 MOL1        -0.1378
       8    H5      22.070356   19.659333   23.201619 H          1 MOL1         0.0993
       9    H6      22.249819   18.494871   24.496827 H          1 MOL1         0.0993
      10    C3      20.897781   17.841537   22.922204 C.3        1 MOL1        -0.1338
      11    H7      20.500438   17.037290   23.555863 H          1 MOL1         0.0993
      12    H8      21.700668   17.381675   22.329574 H          1 MOL1         0.0993
      13    C4      19.776631   18.325166   21.965975 C.3        1 MOL1        -0.1338
      14    H9      19.403221   17.458083   21.403721 H          1 MOL1         0.0993
      15    H10     18.922184   18.699938   22.545197 H          1 MOL1         0.0993
      16    C5      20.242700   19.409113   20.965430 C.3        1 MOL1        -0.1313
      17    H11     21.119720   19.048649   20.409863 H          1 MOL1         0.0993
      18    H12     20.556697   20.312846   21.504531 H          1 MOL1         0.0993
      19    C6      19.124261   19.783526   19.969635 C.3        1 MOL1        -0.2328
      20    H13     18.810461   18.911402   19.381333 H          1 MOL1         0.1004
      21    H14     19.470855   20.554530   19.269332 H          1 MOL1         0.1004
      22    H15     18.243810   20.176620   20.494485 H          1 MOL1         0.1004
      23    C7      18.687841   19.704414   26.389401 C.3        1 MOL1        -0.0781
      24    H16     17.996584   20.165562   25.680592 H          1 MOL1         0.0978
      25    H17     18.134680   19.067054   27.082857 H          1 MOL1         0.0978
      26    H18     19.219812   20.479587   26.945300 H          1 MOL1         0.0978
@<TRIPOS>BOND
    1     1     2    1
    2     1     3    1
    3     1     4    1
    4     4     5    1
    5     4     6    1
    6     4     7    1
    7     7     8    1
    8     7     9    1
    9     7    10    1
   10    10    11    1
   11    10    12    1
   12    10    13    1
   13    13    14    1
   14    13    15    1
   15    13    16    1
   16    16    17    1
   17    16    18    1
   18    16    19    1
   19    19    20    1
   20    19    21    1
   21    19    22    1
   22     1    23    1
   23    23    24    1
   24    23    25    1
   25    23    26    1
@<TRIPOS>SUBSTRUCTURE
       1 MOL1            1 RESIDUE      1      MOL     
@<SCITEGIC>MOL_PROPERTY
VM2 Rank
SciTegic.value.IntegerValue
71

@<SCITEGIC>MOL_PROPERTY
Conf_Id
SciTegic.value.IntegerValue
134

@<SCITEGIC>MOL_PROPERTY
Probability
SciTegic.value.DoubleValue
0.37

@<SCITEGIC>MOL_PROPERTY
Sum Probability
SciTegic.value.DoubleValue
90.61

@<SCITEGIC>MOL_PROPERTY
Delta G
SciTegic.value.DoubleValue
1.735

@<SCITEGIC>MOL_PROPERTY
G
SciTegic.value.DoubleValue
77.202

@<SCITEGIC>MOL_PROPERTY
E
SciTegic.value.DoubleValue
44.493

@<SCITEGIC>MOL_PROPERTY
-TS
SciTegic.value.DoubleValue
32.709

@<SCITEGIC>MOL_PROPERTY
U+W
SciTegic.value.DoubleValue
23.031

@<SCITEGIC>MOL_PROPERTY
U
SciTegic.value.DoubleValue
72.453

@<SCITEGIC>MOL_PROPERTY
W
SciTegic.value.DoubleValue
-49.422

@<SCITEGIC>MOL_PROPERTY
W(PB)
SciTegic.value.DoubleValue
-51.689

@<SCITEGIC>MOL_PROPERTY
W(SA)
SciTegic.value.DoubleValue
2.268

@<SCITEGIC>MOL_PROPERTY
Valence
SciTegic.value.DoubleValue
2.611

@<SCITEGIC>MOL_PROPERTY
Coulomb
SciTegic.value.DoubleValue
69.807

@<SCITEGIC>MOL_PROPERTY
VdW
SciTegic.value.DoubleValue
0.035

@<SCITEGIC>MOL_PROPERTY
VdW6
SciTegic.value.DoubleValue
-7.731

@<SCITEGIC>MOL_PROPERTY
VdW12
SciTegic.value.DoubleValue
7.765

@<SCITEGIC>MOL_PROPERTY
Bond
SciTegic.value.DoubleValue
0.213

@<SCITEGIC>MOL_PROPERTY
Angle
SciTegic.value.DoubleValue
0.953

@<SCITEGIC>MOL_PROPERTY
Pdih
SciTegic.value.DoubleValue
1.445

@<SCITEGIC>MOL_PROPERTY
Idih
SciTegic.value.DoubleValue
0.000

@<SCITEGIC>MOL_PROPERTY
Tether
SciTegic.value.DoubleValue
0.000

@<TRIPOS>MOLECULE
guest-s12_vm2.mol2 : vm2 ligand conformer 72
          26          25           1
SMALL
USER_CHARGES
 
@<TRIPOS>ATOM
       1    N1      20.503716   18.765703   25.888941 N.4        1 MOL1        -0.4857
       2    H1      21.457638   18.474760   25.624416 H          1 MOL1         0.3650
       3    H2      20.070025   17.931450   26.314041 H          1 MOL1         0.3650
       4    C1      19.726046   19.189989   24.659556 C.3        1 MOL1         0.0209
       5    H3      20.219116   20.070553   24.240783 H          1 MOL1         0.0967
       6    H4      18.721393   19.476951   24.980006 H          1 MOL1         0.0967
       7    C2      19.632835   18.088058   23.587045 C.3        1 MOL1        -0.1378
       8    H5      20.641594   17.788628   23.275347 H          1 MOL1         0.0993
       9    H6      19.168713   17.195770   24.027655 H          1 MOL1         0.0993
      10    C3      18.805039   18.524622   22.352788 C.3        1 MOL1        -0.1338
      11    H7      17.766600   18.700150   22.666142 H          1 MOL1         0.0993
      12    H8      18.761010   17.692598   21.637386 H          1 MOL1         0.0993
      13    C4      19.327403   19.798887   21.635514 C.3        1 MOL1        -0.1338
      14    H9      18.681127   20.004202   20.771005 H          1 MOL1         0.0993
      15    H10     19.212668   20.665201   22.300860 H          1 MOL1         0.0993
      16    C5      20.798955   19.728214   21.153734 C.3        1 MOL1        -0.1313
      17    H11     21.475832   19.629386   22.012922 H          1 MOL1         0.0993
      18    H12     21.057300   20.683794   20.676384 H          1 MOL1         0.0993
      19    C6      21.060719   18.583596   20.148656 C.3        1 MOL1        -0.2328
      20    H13     22.091574   18.628598   19.774290 H          1 MOL1         0.1004
      21    H14     20.386661   18.654986   19.285247 H          1 MOL1         0.1004
      22    H15     20.920725   17.599766   20.613404 H          1 MOL1         0.1004
      23    C7      20.553289   19.910931   26.890767 C.3        1 MOL1        -0.0781
      24    H16     19.534865   20.178950   27.180477 H          1 MOL1         0.0978
      25    H17     21.115542   19.592365   27.771402 H          1 MOL1         0.0978
      26    H18     21.045375   20.770247   26.429931 H          1 MOL1         0.0978
@<TRIPOS>BOND
    1     1     2    1
    2     1     3    1
    3     1     4    1
    4     4     5    1
    5     4     6    1
    6     4     7    1
    7     7     8    1
    8     7     9    1
    9     7    10    1
   10    10    11    1
   11    10    12    1
   12    10    13    1
   13    13    14    1
   14    13    15    1
   15    13    16    1
   16    16    17    1
   17    16    18    1
   18    16    19    1
   19    19    20    1
   20    19    21    1
   21    19    22    1
   22     1    23    1
   23    23    24    1
   24    23    25    1
   25    23    26    1
@<TRIPOS>SUBSTRUCTURE
       1 MOL1            1 RESIDUE      1      MOL     
@<SCITEGIC>MOL_PROPERTY
VM2 Rank
SciTegic.value.IntegerValue
72

@<SCITEGIC>MOL_PROPERTY
Conf_Id
SciTegic.value.IntegerValue
210

@<SCITEGIC>MOL_PROPERTY
Probability
SciTegic.value.DoubleValue
0.35

@<SCITEGIC>MOL_PROPERTY
Sum Probability
SciTegic.value.DoubleValue
90.96

@<SCITEGIC>MOL_PROPERTY
Delta G
SciTegic.value.DoubleValue
1.760

@<SCITEGIC>MOL_PROPERTY
G
SciTegic.value.DoubleValue
77.227

@<SCITEGIC>MOL_PROPERTY
E
SciTegic.value.DoubleValue
44.398

@<SCITEGIC>MOL_PROPERTY
-TS
SciTegic.value.DoubleValue
32.829

@<SCITEGIC>MOL_PROPERTY
U+W
SciTegic.value.DoubleValue
22.937

@<SCITEGIC>MOL_PROPERTY
U
SciTegic.value.DoubleValue
72.454

@<SCITEGIC>MOL_PROPERTY
W
SciTegic.value.DoubleValue
-49.518

@<SCITEGIC>MOL_PROPERTY
W(PB)
SciTegic.value.DoubleValue
-51.795

@<SCITEGIC>MOL_PROPERTY
W(SA)
SciTegic.value.DoubleValue
2.277

@<SCITEGIC>MOL_PROPERTY
Valence
SciTegic.value.DoubleValue
2.909

@<SCITEGIC>MOL_PROPERTY
Coulomb
SciTegic.value.DoubleValue
69.435

@<SCITEGIC>MOL_PROPERTY
VdW
SciTegic.value.DoubleValue
0.111

@<SCITEGIC>MOL_PROPERTY
VdW6
SciTegic.value.DoubleValue
-7.765

@<SCITEGIC>MOL_PROPERTY
VdW12
SciTegic.value.DoubleValue
7.876

@<SCITEGIC>MOL_PROPERTY
Bond
SciTegic.value.DoubleValue
0.233

@<SCITEGIC>MOL_PROPERTY
Angle
SciTegic.value.DoubleValue
1.170

@<SCITEGIC>MOL_PROPERTY
Pdih
SciTegic.value.DoubleValue
1.506

@<SCITEGIC>MOL_PROPERTY
Idih
SciTegic.value.DoubleValue
0.000

@<SCITEGIC>MOL_PROPERTY
Tether
SciTegic.value.DoubleValue
0.000

@<TRIPOS>MOLECULE
guest-s12_vm2.mol2 : vm2 ligand conformer 73
          26          25           1
SMALL
USER_CHARGES
 
@<TRIPOS>ATOM
       1    N1      20.190054   18.870405   25.937000 N.4        1 MOL1        -0.4857
       2    H1      21.164516   18.768496   25.615930 H          1 MOL1         0.3650
       3    H2      19.841668   17.908689   26.072649 H          1 MOL1         0.3650
       4    C1      19.364519   19.580079   24.881098 C.3        1 MOL1         0.0209
       5    H3      19.768016   20.588261   24.757861 H          1 MOL1         0.0967
       6    H4      18.344521   19.665501   25.264391 H          1 MOL1         0.0967
       7    C2      19.338117   18.861597   23.517550 C.3        1 MOL1        -0.1378
       8    H5      18.951660   17.842037   23.647217 H          1 MOL1         0.0993
       9    H6      18.624540   19.388802   22.872145 H          1 MOL1         0.0993
      10    C3      20.728894   18.821306   22.835727 C.3        1 MOL1        -0.1338
      11    H7      21.448940   18.329989   23.503159 H          1 MOL1         0.0993
      12    H8      21.100976   19.844416   22.691571 H          1 MOL1         0.0993
      13    C4      20.734719   18.061033   21.483894 C.3        1 MOL1        -0.1338
      14    H9      21.762518   18.041856   21.095921 H          1 MOL1         0.0993
      15    H10     20.462593   17.011687   21.662962 H          1 MOL1         0.0993
      16    C5      19.799648   18.639629   20.390987 C.3        1 MOL1        -0.1313
      17    H11     18.750224   18.551325   20.702236 H          1 MOL1         0.0993
      18    H12     19.896038   18.022438   19.486794 H          1 MOL1         0.0993
      19    C6      20.114232   20.108208   20.025888 C.3        1 MOL1        -0.2328
      20    H13     19.489716   20.437785   19.185523 H          1 MOL1         0.1004
      21    H14     21.164693   20.224920   19.729500 H          1 MOL1         0.1004
      22    H15     19.917063   20.783291   20.867898 H          1 MOL1         0.1004
      23    C7      20.137817   19.647744   27.244857 C.3        1 MOL1        -0.0781
      24    H16     20.540514   20.650065   27.083225 H          1 MOL1         0.0978
      25    H17     19.100876   19.715270   27.581197 H          1 MOL1         0.0978
      26    H18     20.735896   19.126456   27.995644 H          1 MOL1         0.0978
@<TRIPOS>BOND
    1     1     2    1
    2     1     3    1
    3     1     4    1
    4     4     5    1
    5     4     6    1
    6     4     7    1
    7     7     8    1
    8     7     9    1
    9     7    10    1
   10    10    11    1
   11    10    12    1
   12    10    13    1
   13    13    14    1
   14    13    15    1
   15    13    16    1
   16    16    17    1
   17    16    18    1
   18    16    19    1
   19    19    20    1
   20    19    21    1
   21    19    22    1
   22     1    23    1
   23    23    24    1
   24    23    25    1
   25    23    26    1
@<TRIPOS>SUBSTRUCTURE
       1 MOL1            1 RESIDUE      1      MOL     
@<SCITEGIC>MOL_PROPERTY
VM2 Rank
SciTegic.value.IntegerValue
73

@<SCITEGIC>MOL_PROPERTY
Conf_Id
SciTegic.value.IntegerValue
728

@<SCITEGIC>MOL_PROPERTY
Probability
SciTegic.value.DoubleValue
0.33

@<SCITEGIC>MOL_PROPERTY
Sum Probability
SciTegic.value.DoubleValue
91.29

@<SCITEGIC>MOL_PROPERTY
Delta G
SciTegic.value.DoubleValue
1.798

@<SCITEGIC>MOL_PROPERTY
G
SciTegic.value.DoubleValue
77.264

@<SCITEGIC>MOL_PROPERTY
E
SciTegic.value.DoubleValue
44.594

@<SCITEGIC>MOL_PROPERTY
-TS
SciTegic.value.DoubleValue
32.670

@<SCITEGIC>MOL_PROPERTY
U+W
SciTegic.value.DoubleValue
23.132

@<SCITEGIC>MOL_PROPERTY
U
SciTegic.value.DoubleValue
72.391

@<SCITEGIC>MOL_PROPERTY
W
SciTegic.value.DoubleValue
-49.259

@<SCITEGIC>MOL_PROPERTY
W(PB)
SciTegic.value.DoubleValue
-51.509

@<SCITEGIC>MOL_PROPERTY
W(SA)
SciTegic.value.DoubleValue
2.250

@<SCITEGIC>MOL_PROPERTY
Valence
SciTegic.value.DoubleValue
2.830

@<SCITEGIC>MOL_PROPERTY
Coulomb
SciTegic.value.DoubleValue
69.222

@<SCITEGIC>MOL_PROPERTY
VdW
SciTegic.value.DoubleValue
0.340

@<SCITEGIC>MOL_PROPERTY
VdW6
SciTegic.value.DoubleValue
-7.379

@<SCITEGIC>MOL_PROPERTY
VdW12
SciTegic.value.DoubleValue
7.719

@<SCITEGIC>MOL_PROPERTY
Bond
SciTegic.value.DoubleValue
0.228

@<SCITEGIC>MOL_PROPERTY
Angle
SciTegic.value.DoubleValue
1.104

@<SCITEGIC>MOL_PROPERTY
Pdih
SciTegic.value.DoubleValue
1.497

@<SCITEGIC>MOL_PROPERTY
Idih
SciTegic.value.DoubleValue
0.000

@<SCITEGIC>MOL_PROPERTY
Tether
SciTegic.value.DoubleValue
0.000

@<TRIPOS>MOLECULE
guest-s12_vm2.mol2 : vm2 ligand conformer 74
          26          25           1
SMALL
USER_CHARGES
 
@<TRIPOS>ATOM
       1    N1      20.505497   19.403784   25.618838 N.4        1 MOL1        -0.4857
       2    H1      20.949036   19.967378   24.878058 H          1 MOL1         0.3650
       3    H2      21.255560   18.805819   25.998909 H          1 MOL1         0.3650
       4    C1      19.404214   18.546017   25.027176 C.3        1 MOL1         0.0209
       5    H3      18.629978   19.212247   24.639637 H          1 MOL1         0.0967
       6    H4      18.969610   17.958367   25.839800 H          1 MOL1         0.0967
       7    C2      19.884302   17.597047   23.909413 C.3        1 MOL1        -0.1378
       8    H5      20.618786   16.895221   24.326278 H          1 MOL1         0.0993
       9    H6      19.033965   16.986972   23.576913 H          1 MOL1         0.0993
      10    C3      20.503871   18.318934   22.685852 C.3        1 MOL1        -0.1338
      11    H7      20.834902   17.553584   21.971968 H          1 MOL1         0.0993
      12    H8      21.407693   18.863231   22.990093 H          1 MOL1         0.0993
      13    C4      19.518206   19.289027   21.985621 C.3        1 MOL1        -0.1338
      14    H9      18.626663   18.737421   21.656834 H          1 MOL1         0.0993
      15    H10     19.167954   20.041104   22.704762 H          1 MOL1         0.0993
      16    C5      20.139030   20.032796   20.778084 C.3        1 MOL1        -0.1313
      17    H11     21.024734   20.596346   21.103186 H          1 MOL1         0.0993
      18    H12     19.417460   20.778352   20.415604 H          1 MOL1         0.0993
      19    C6      20.517967   19.098731   19.606075 C.3        1 MOL1        -0.2328
      20    H13     21.330117   18.414457   19.880653 H          1 MOL1         0.1004
      21    H14     20.859729   19.684936   18.743239 H          1 MOL1         0.1004
      22    H15     19.656524   18.499469   19.283909 H          1 MOL1         0.1004
      23    C7      19.934914   20.303665   26.705941 C.3        1 MOL1        -0.0781
      24    H16     19.498210   19.684018   27.492228 H          1 MOL1         0.0978
      25    H17     20.737918   20.916049   27.122200 H          1 MOL1         0.0978
      26    H18     19.166556   20.947634   26.272539 H          1 MOL1         0.0978
@<TRIPOS>BOND
    1     1     2    1
    2     1     3    1
    3     1     4    1
    4     4     5    1
    5     4     6    1
    6     4     7    1
    7     7     8    1
    8     7     9    1
    9     7    10    1
   10    10    11    1
   11    10    12    1
   12    10    13    1
   13    13    14    1
   14    13    15    1
   15    13    16    1
   16    16    17    1
   17    16    18    1
   18    16    19    1
   19    19    20    1
   20    19    21    1
   21    19    22    1
   22     1    23    1
   23    23    24    1
   24    23    25    1
   25    23    26    1
@<TRIPOS>SUBSTRUCTURE
       1 MOL1            1 RESIDUE      1      MOL     
@<SCITEGIC>MOL_PROPERTY
VM2 Rank
SciTegic.value.IntegerValue
74

@<SCITEGIC>MOL_PROPERTY
Conf_Id
SciTegic.value.IntegerValue
1439

@<SCITEGIC>MOL_PROPERTY
Probability
SciTegic.value.DoubleValue
0.31

@<SCITEGIC>MOL_PROPERTY
Sum Probability
SciTegic.value.DoubleValue
91.60

@<SCITEGIC>MOL_PROPERTY
Delta G
SciTegic.value.DoubleValue
1.831

@<SCITEGIC>MOL_PROPERTY
G
SciTegic.value.DoubleValue
77.297

@<SCITEGIC>MOL_PROPERTY
E
SciTegic.value.DoubleValue
44.768

@<SCITEGIC>MOL_PROPERTY
-TS
SciTegic.value.DoubleValue
32.530

@<SCITEGIC>MOL_PROPERTY
U+W
SciTegic.value.DoubleValue
23.306

@<SCITEGIC>MOL_PROPERTY
U
SciTegic.value.DoubleValue
72.579

@<SCITEGIC>MOL_PROPERTY
W
SciTegic.value.DoubleValue
-49.273

@<SCITEGIC>MOL_PROPERTY
W(PB)
SciTegic.value.DoubleValue
-51.540

@<SCITEGIC>MOL_PROPERTY
W(SA)
SciTegic.value.DoubleValue
2.267

@<SCITEGIC>MOL_PROPERTY
Valence
SciTegic.value.DoubleValue
2.677

@<SCITEGIC>MOL_PROPERTY
Coulomb
SciTegic.value.DoubleValue
69.622

@<SCITEGIC>MOL_PROPERTY
VdW
SciTegic.value.DoubleValue
0.280

@<SCITEGIC>MOL_PROPERTY
VdW6
SciTegic.value.DoubleValue
-7.328

@<SCITEGIC>MOL_PROPERTY
VdW12
SciTegic.value.DoubleValue
7.608

@<SCITEGIC>MOL_PROPERTY
Bond
SciTegic.value.DoubleValue
0.212

@<SCITEGIC>MOL_PROPERTY
Angle
SciTegic.value.DoubleValue
0.911

@<SCITEGIC>MOL_PROPERTY
Pdih
SciTegic.value.DoubleValue
1.555

@<SCITEGIC>MOL_PROPERTY
Idih
SciTegic.value.DoubleValue
0.000

@<SCITEGIC>MOL_PROPERTY
Tether
SciTegic.value.DoubleValue
0.000

@<TRIPOS>MOLECULE
guest-s12_vm2.mol2 : vm2 ligand conformer 75
          26          25           1
SMALL
USER_CHARGES
 
@<TRIPOS>ATOM
       1    N1      19.502030   18.731627   25.755336 N.4        1 MOL1        -0.4857
       2    H1      19.516510   18.421259   26.739842 H          1 MOL1         0.3650
       3    H2      19.084162   17.947026   25.233451 H          1 MOL1         0.3650
       4    C1      20.925249   18.976908   25.278273 C.3        1 MOL1         0.0209
       5    H3      21.510408   18.087803   25.526606 H          1 MOL1         0.0967
       6    H4      21.327081   19.814982   25.853279 H          1 MOL1         0.0967
       7    C2      21.071906   19.268999   23.769043 C.3        1 MOL1        -0.1378
       8    H5      20.541244   20.197329   23.525063 H          1 MOL1         0.0993
       9    H6      22.132694   19.451721   23.552821 H          1 MOL1         0.0993
      10    C3      20.560793   18.105400   22.883464 C.3        1 MOL1        -0.1338
      11    H7      19.485470   17.954335   23.042400 H          1 MOL1         0.0993
      12    H8      21.048651   17.173691   23.201722 H          1 MOL1         0.0993
      13    C4      20.838228   18.311782   21.371934 C.3        1 MOL1        -0.1338
      14    H9      21.924233   18.345308   21.208603 H          1 MOL1         0.0993
      15    H10     20.479723   17.429262   20.824351 H          1 MOL1         0.0993
      16    C5      20.199924   19.580371   20.749944 C.3        1 MOL1        -0.1313
      17    H11     20.459420   19.614514   19.682588 H          1 MOL1         0.0993
      18    H12     20.639915   20.483427   21.193785 H          1 MOL1         0.0993
      19    C6      18.661219   19.627459   20.889590 C.3        1 MOL1        -0.2328
      20    H13     18.199144   18.724076   20.470898 H          1 MOL1         0.1004
      21    H14     18.252760   20.493186   20.352458 H          1 MOL1         0.1004
      22    H15     18.354709   19.716100   21.939191 H          1 MOL1         0.1004
      23    C7      18.648652   19.987454   25.619415 C.3        1 MOL1        -0.0781
      24    H16     18.588150   20.270636   24.566680 H          1 MOL1         0.0978
      25    H17     17.646715   19.781833   26.002672 H          1 MOL1         0.0978
      26    H18     19.105224   20.795261   26.195415 H          1 MOL1         0.0978
@<TRIPOS>BOND
    1     1     2    1
    2     1     3    1
    3     1     4    1
    4     4     5    1
    5     4     6    1
    6     4     7    1
    7     7     8    1
    8     7     9    1
    9     7    10    1
   10    10    11    1
   11    10    12    1
   12    10    13    1
   13    13    14    1
   14    13    15    1
   15    13    16    1
   16    16    17    1
   17    16    18    1
   18    16    19    1
   19    19    20    1
   20    19    21    1
   21    19    22    1
   22     1    23    1
   23    23    24    1
   24    23    25    1
   25    23    26    1
@<TRIPOS>SUBSTRUCTURE
       1 MOL1            1 RESIDUE      1      MOL     
@<SCITEGIC>MOL_PROPERTY
VM2 Rank
SciTegic.value.IntegerValue
75

@<SCITEGIC>MOL_PROPERTY
Conf_Id
SciTegic.value.IntegerValue
1567

@<SCITEGIC>MOL_PROPERTY
Probability
SciTegic.value.DoubleValue
0.29

@<SCITEGIC>MOL_PROPERTY
Sum Probability
SciTegic.value.DoubleValue
91.89

@<SCITEGIC>MOL_PROPERTY
Delta G
SciTegic.value.DoubleValue
1.869

@<SCITEGIC>MOL_PROPERTY
G
SciTegic.value.DoubleValue
77.336

@<SCITEGIC>MOL_PROPERTY
E
SciTegic.value.DoubleValue
44.373

@<SCITEGIC>MOL_PROPERTY
-TS
SciTegic.value.DoubleValue
32.963

@<SCITEGIC>MOL_PROPERTY
U+W
SciTegic.value.DoubleValue
22.912

@<SCITEGIC>MOL_PROPERTY
U
SciTegic.value.DoubleValue
72.926

@<SCITEGIC>MOL_PROPERTY
W
SciTegic.value.DoubleValue
-50.014

@<SCITEGIC>MOL_PROPERTY
W(PB)
SciTegic.value.DoubleValue
-52.194

@<SCITEGIC>MOL_PROPERTY
W(SA)
SciTegic.value.DoubleValue
2.180

@<SCITEGIC>MOL_PROPERTY
Valence
SciTegic.value.DoubleValue
3.007

@<SCITEGIC>MOL_PROPERTY
Coulomb
SciTegic.value.DoubleValue
69.583

@<SCITEGIC>MOL_PROPERTY
VdW
SciTegic.value.DoubleValue
0.336

@<SCITEGIC>MOL_PROPERTY
VdW6
SciTegic.value.DoubleValue
-8.608

@<SCITEGIC>MOL_PROPERTY
VdW12
SciTegic.value.DoubleValue
8.944

@<SCITEGIC>MOL_PROPERTY
Bond
SciTegic.value.DoubleValue
0.266

@<SCITEGIC>MOL_PROPERTY
Angle
SciTegic.value.DoubleValue
1.183

@<SCITEGIC>MOL_PROPERTY
Pdih
SciTegic.value.DoubleValue
1.559

@<SCITEGIC>MOL_PROPERTY
Idih
SciTegic.value.DoubleValue
0.000

@<SCITEGIC>MOL_PROPERTY
Tether
SciTegic.value.DoubleValue
0.000

@<TRIPOS>MOLECULE
guest-s12_vm2.mol2 : vm2 ligand conformer 76
          26          25           1
SMALL
USER_CHARGES
 
@<TRIPOS>ATOM
       1    N1      20.034507   19.228479   26.079566 N.4        1 MOL1        -0.4857
       2    H1      20.653827   19.731416   26.734773 H          1 MOL1         0.3650
       3    H2      19.856530   18.316672   26.528193 H          1 MOL1         0.3650
       4    C1      20.749488   19.031230   24.753697 C.3        1 MOL1         0.0209
       5    H3      21.742044   18.630482   24.974533 H          1 MOL1         0.0967
       6    H4      20.874794   20.013750   24.292438 H          1 MOL1         0.0967
       7    C2      20.031100   18.078838   23.774656 C.3        1 MOL1        -0.1378
       8    H5      19.870873   17.111239   24.268055 H          1 MOL1         0.0993
       9    H6      19.035024   18.468993   23.532359 H          1 MOL1         0.0993
      10    C3      20.834308   17.849777   22.470353 C.3        1 MOL1        -0.1338
      11    H7      20.281754   17.152821   21.826193 H          1 MOL1         0.0993
      12    H8      21.776045   17.340620   22.717736 H          1 MOL1         0.0993
      13    C4      21.163944   19.141780   21.674593 C.3        1 MOL1        -0.1338
      14    H9      21.859646   19.761077   22.256662 H          1 MOL1         0.0993
      15    H10     21.710327   18.862480   20.763198 H          1 MOL1         0.0993
      16    C5      19.937747   20.003357   21.278526 C.3        1 MOL1        -0.1313
      17    H11     20.293535   20.889877   20.735190 H          1 MOL1         0.0993
      18    H12     19.434676   20.384268   22.177469 H          1 MOL1         0.0993
      19    C6      18.920887   19.250802   20.390568 C.3        1 MOL1        -0.2328
      20    H13     18.117375   19.925897   20.068940 H          1 MOL1         0.1004
      21    H14     18.455408   18.416503   20.929798 H          1 MOL1         0.1004
      22    H15     19.404064   18.850932   19.489700 H          1 MOL1         0.1004
      23    C7      18.736020   20.005736   25.895041 C.3        1 MOL1        -0.0781
      24    H16     18.061372   19.436267   25.252743 H          1 MOL1         0.0978
      25    H17     18.270402   20.159791   26.871026 H          1 MOL1         0.0978
      26    H18     18.958211   20.971562   25.436106 H          1 MOL1         0.0978
@<TRIPOS>BOND
    1     1     2    1
    2     1     3    1
    3     1     4    1
    4     4     5    1
    5     4     6    1
    6     4     7    1
    7     7     8    1
    8     7     9    1
    9     7    10    1
   10    10    11    1
   11    10    12    1
   12    10    13    1
   13    13    14    1
   14    13    15    1
   15    13    16    1
   16    16    17    1
   17    16    18    1
   18    16    19    1
   19    19    20    1
   20    19    21    1
   21    19    22    1
   22     1    23    1
   23    23    24    1
   24    23    25    1
   25    23    26    1
@<TRIPOS>SUBSTRUCTURE
       1 MOL1            1 RESIDUE      1      MOL     
@<SCITEGIC>MOL_PROPERTY
VM2 Rank
SciTegic.value.IntegerValue
76

@<SCITEGIC>MOL_PROPERTY
Conf_Id
SciTegic.value.IntegerValue
400

@<SCITEGIC>MOL_PROPERTY
Probability
SciTegic.value.DoubleValue
0.29

@<SCITEGIC>MOL_PROPERTY
Sum Probability
SciTegic.value.DoubleValue
92.18

@<SCITEGIC>MOL_PROPERTY
Delta G
SciTegic.value.DoubleValue
1.879

@<SCITEGIC>MOL_PROPERTY
G
SciTegic.value.DoubleValue
77.345

@<SCITEGIC>MOL_PROPERTY
E
SciTegic.value.DoubleValue
44.338

@<SCITEGIC>MOL_PROPERTY
-TS
SciTegic.value.DoubleValue
33.007

@<SCITEGIC>MOL_PROPERTY
U+W
SciTegic.value.DoubleValue
22.877

@<SCITEGIC>MOL_PROPERTY
U
SciTegic.value.DoubleValue
72.761

@<SCITEGIC>MOL_PROPERTY
W
SciTegic.value.DoubleValue
-49.885

@<SCITEGIC>MOL_PROPERTY
W(PB)
SciTegic.value.DoubleValue
-52.087

@<SCITEGIC>MOL_PROPERTY
W(SA)
SciTegic.value.DoubleValue
2.202

@<SCITEGIC>MOL_PROPERTY
Valence
SciTegic.value.DoubleValue
3.172

@<SCITEGIC>MOL_PROPERTY
Coulomb
SciTegic.value.DoubleValue
69.298

@<SCITEGIC>MOL_PROPERTY
VdW
SciTegic.value.DoubleValue
0.291

@<SCITEGIC>MOL_PROPERTY
VdW6
SciTegic.value.DoubleValue
-8.615

@<SCITEGIC>MOL_PROPERTY
VdW12
SciTegic.value.DoubleValue
8.907

@<SCITEGIC>MOL_PROPERTY
Bond
SciTegic.value.DoubleValue
0.269

@<SCITEGIC>MOL_PROPERTY
Angle
SciTegic.value.DoubleValue
1.270

@<SCITEGIC>MOL_PROPERTY
Pdih
SciTegic.value.DoubleValue
1.633

@<SCITEGIC>MOL_PROPERTY
Idih
SciTegic.value.DoubleValue
0.000

@<SCITEGIC>MOL_PROPERTY
Tether
SciTegic.value.DoubleValue
0.000

@<TRIPOS>MOLECULE
guest-s12_vm2.mol2 : vm2 ligand conformer 77
          26          25           1
SMALL
USER_CHARGES
 
@<TRIPOS>ATOM
       1    N1      19.377099   19.287916   25.578923 N.4        1 MOL1        -0.4857
       2    H1      18.739309   18.547460   25.909915 H          1 MOL1         0.3650
       3    H2      18.881316   19.755037   24.804897 H          1 MOL1         0.3650
       4    C1      20.668178   18.675775   25.071919 C.3        1 MOL1         0.0209
       5    H3      21.155068   18.182736   25.917153 H          1 MOL1         0.0967
       6    H4      21.316263   19.488038   24.734718 H          1 MOL1         0.0967
       7    C2      20.470070   17.657173   23.930153 C.3        1 MOL1        -0.1378
       8    H5      21.447659   17.234751   23.662378 H          1 MOL1         0.0993
       9    H6      19.865956   16.817927   24.299634 H          1 MOL1         0.0993
      10    C3      19.804093   18.247061   22.661060 C.3        1 MOL1        -0.1338
      11    H7      18.789555   18.594328   22.897346 H          1 MOL1         0.0993
      12    H8      19.686149   17.435617   21.931251 H          1 MOL1         0.0993
      13    C4      20.618858   19.402081   22.024641 C.3        1 MOL1        -0.1338
      14    H9      20.757854   20.204410   22.761122 H          1 MOL1         0.0993
      15    H10     21.624624   19.045352   21.763106 H          1 MOL1         0.0993
      16    C5      19.946125   20.012989   20.771252 C.3        1 MOL1        -0.1313
      17    H11     20.524856   20.892136   20.454902 H          1 MOL1         0.0993
      18    H12     18.943874   20.382580   21.029415 H          1 MOL1         0.0993
      19    C6      19.847866   19.029929   19.582298 C.3        1 MOL1        -0.2328
      20    H13     19.174388   18.193026   19.804180 H          1 MOL1         0.1004
      21    H14     20.833469   18.620423   19.325625 H          1 MOL1         0.1004
      22    H15     19.455529   19.540737   18.693438 H          1 MOL1         0.1004
      23    C7      19.675709   20.277077   26.696753 C.3        1 MOL1        -0.0781
      24    H16     20.325798   21.066651   26.313524 H          1 MOL1         0.0978
      25    H17     18.738027   20.710775   27.051380 H          1 MOL1         0.0978
      26    H18     20.172966   19.753348   27.516120 H          1 MOL1         0.0978
@<TRIPOS>BOND
    1     1     2    1
    2     1     3    1
    3     1     4    1
    4     4     5    1
    5     4     6    1
    6     4     7    1
    7     7     8    1
    8     7     9    1
    9     7    10    1
   10    10    11    1
   11    10    12    1
   12    10    13    1
   13    13    14    1
   14    13    15    1
   15    13    16    1
   16    16    17    1
   17    16    18    1
   18    16    19    1
   19    19    20    1
   20    19    21    1
   21    19    22    1
   22     1    23    1
   23    23    24    1
   24    23    25    1
   25    23    26    1
@<TRIPOS>SUBSTRUCTURE
       1 MOL1            1 RESIDUE      1      MOL     
@<SCITEGIC>MOL_PROPERTY
VM2 Rank
SciTegic.value.IntegerValue
77

@<SCITEGIC>MOL_PROPERTY
Conf_Id
SciTegic.value.IntegerValue
69

@<SCITEGIC>MOL_PROPERTY
Probability
SciTegic.value.DoubleValue
0.28

@<SCITEGIC>MOL_PROPERTY
Sum Probability
SciTegic.value.DoubleValue
92.46

@<SCITEGIC>MOL_PROPERTY
Delta G
SciTegic.value.DoubleValue
1.886

@<SCITEGIC>MOL_PROPERTY
G
SciTegic.value.DoubleValue
77.352

@<SCITEGIC>MOL_PROPERTY
E
SciTegic.value.DoubleValue
44.823

@<SCITEGIC>MOL_PROPERTY
-TS
SciTegic.value.DoubleValue
32.530

@<SCITEGIC>MOL_PROPERTY
U+W
SciTegic.value.DoubleValue
23.361

@<SCITEGIC>MOL_PROPERTY
U
SciTegic.value.DoubleValue
72.579

@<SCITEGIC>MOL_PROPERTY
W
SciTegic.value.DoubleValue
-49.218

@<SCITEGIC>MOL_PROPERTY
W(PB)
SciTegic.value.DoubleValue
-51.496

@<SCITEGIC>MOL_PROPERTY
W(SA)
SciTegic.value.DoubleValue
2.279

@<SCITEGIC>MOL_PROPERTY
Valence
SciTegic.value.DoubleValue
2.678

@<SCITEGIC>MOL_PROPERTY
Coulomb
SciTegic.value.DoubleValue
69.622

@<SCITEGIC>MOL_PROPERTY
VdW
SciTegic.value.DoubleValue
0.279

@<SCITEGIC>MOL_PROPERTY
VdW6
SciTegic.value.DoubleValue
-7.328

@<SCITEGIC>MOL_PROPERTY
VdW12
SciTegic.value.DoubleValue
7.608

@<SCITEGIC>MOL_PROPERTY
Bond
SciTegic.value.DoubleValue
0.212

@<SCITEGIC>MOL_PROPERTY
Angle
SciTegic.value.DoubleValue
0.911

@<SCITEGIC>MOL_PROPERTY
Pdih
SciTegic.value.DoubleValue
1.555

@<SCITEGIC>MOL_PROPERTY
Idih
SciTegic.value.DoubleValue
0.000

@<SCITEGIC>MOL_PROPERTY
Tether
SciTegic.value.DoubleValue
0.000

@<TRIPOS>MOLECULE
guest-s12_vm2.mol2 : vm2 ligand conformer 78
          26          25           1
SMALL
USER_CHARGES
 
@<TRIPOS>ATOM
       1    N1      20.484093   18.832984   25.790246 N.4        1 MOL1        -0.4857
       2    H1      21.088611   18.153698   25.304747 H          1 MOL1         0.3650
       3    H2      20.464149   18.519228   26.773581 H          1 MOL1         0.3650
       4    C1      19.077783   18.786469   25.212805 C.3        1 MOL1         0.0209
       5    H3      18.474280   19.520923   25.752092 H          1 MOL1         0.0967
       6    H4      18.670161   17.795015   25.425998 H          1 MOL1         0.0967
       7    C2      18.980844   19.053328   23.694916 C.3        1 MOL1        -0.1378
       8    H5      17.922908   19.017509   23.403543 H          1 MOL1         0.0993
       9    H6      19.326892   20.072068   23.481967 H          1 MOL1         0.0993
      10    C3      19.779234   18.024743   22.855847 C.3        1 MOL1        -0.1338
      11    H7      19.470585   17.010879   23.146009 H          1 MOL1         0.0993
      12    H8      20.848943   18.095049   23.090758 H          1 MOL1         0.0993
      13    C4      19.572064   18.180939   21.327132 C.3        1 MOL1        -0.1338
      14    H9      20.140611   17.394117   20.812466 H          1 MOL1         0.0993
      15    H10     18.516242   17.993236   21.087929 H          1 MOL1         0.0993
      16    C5      19.979923   19.557525   20.742085 C.3        1 MOL1        -0.1313
      17    H11     19.334874   20.348550   21.147412 H          1 MOL1         0.0993
      18    H12     19.794315   19.545603   19.658959 H          1 MOL1         0.0993
      19    C6      21.462976   19.916735   20.988765 C.3        1 MOL1        -0.2328
      20    H13     21.670678   20.058543   22.056574 H          1 MOL1         0.1004
      21    H14     21.722685   20.851448   20.475252 H          1 MOL1         0.1004
      22    H15     22.127895   19.129737   20.610039 H          1 MOL1         0.1004
      23    C7      21.071083   20.237278   25.705206 C.3        1 MOL1        -0.0781
      24    H16     22.064466   20.237435   26.159337 H          1 MOL1         0.0978
      25    H17     21.146373   20.534251   24.657234 H          1 MOL1         0.0978
      26    H18     20.420213   20.931030   26.241733 H          1 MOL1         0.0978
@<TRIPOS>BOND
    1     1     2    1
    2     1     3    1
    3     1     4    1
    4     4     5    1
    5     4     6    1
    6     4     7    1
    7     7     8    1
    8     7     9    1
    9     7    10    1
   10    10    11    1
   11    10    12    1
   12    10    13    1
   13    13    14    1
   14    13    15    1
   15    13    16    1
   16    16    17    1
   17    16    18    1
   18    16    19    1
   19    19    20    1
   20    19    21    1
   21    19    22    1
   22     1    23    1
   23    23    24    1
   24    23    25    1
   25    23    26    1
@<TRIPOS>SUBSTRUCTURE
       1 MOL1            1 RESIDUE      1      MOL     
@<SCITEGIC>MOL_PROPERTY
VM2 Rank
SciTegic.value.IntegerValue
78

@<SCITEGIC>MOL_PROPERTY
Conf_Id
SciTegic.value.IntegerValue
837

@<SCITEGIC>MOL_PROPERTY
Probability
SciTegic.value.DoubleValue
0.28

@<SCITEGIC>MOL_PROPERTY
Sum Probability
SciTegic.value.DoubleValue
92.74

@<SCITEGIC>MOL_PROPERTY
Delta G
SciTegic.value.DoubleValue
1.894

@<SCITEGIC>MOL_PROPERTY
G
SciTegic.value.DoubleValue
77.361

@<SCITEGIC>MOL_PROPERTY
E
SciTegic.value.DoubleValue
44.398

@<SCITEGIC>MOL_PROPERTY
-TS
SciTegic.value.DoubleValue
32.963

@<SCITEGIC>MOL_PROPERTY
U+W
SciTegic.value.DoubleValue
22.936

@<SCITEGIC>MOL_PROPERTY
U
SciTegic.value.DoubleValue
72.925

@<SCITEGIC>MOL_PROPERTY
W
SciTegic.value.DoubleValue
-49.989

@<SCITEGIC>MOL_PROPERTY
W(PB)
SciTegic.value.DoubleValue
-52.182

@<SCITEGIC>MOL_PROPERTY
W(SA)
SciTegic.value.DoubleValue
2.192

@<SCITEGIC>MOL_PROPERTY
Valence
SciTegic.value.DoubleValue
3.007

@<SCITEGIC>MOL_PROPERTY
Coulomb
SciTegic.value.DoubleValue
69.583

@<SCITEGIC>MOL_PROPERTY
VdW
SciTegic.value.DoubleValue
0.336

@<SCITEGIC>MOL_PROPERTY
VdW6
SciTegic.value.DoubleValue
-8.608

@<SCITEGIC>MOL_PROPERTY
VdW12
SciTegic.value.DoubleValue
8.944

@<SCITEGIC>MOL_PROPERTY
Bond
SciTegic.value.DoubleValue
0.266

@<SCITEGIC>MOL_PROPERTY
Angle
SciTegic.value.DoubleValue
1.183

@<SCITEGIC>MOL_PROPERTY
Pdih
SciTegic.value.DoubleValue
1.559

@<SCITEGIC>MOL_PROPERTY
Idih
SciTegic.value.DoubleValue
0.000

@<SCITEGIC>MOL_PROPERTY
Tether
SciTegic.value.DoubleValue
0.000

@<TRIPOS>MOLECULE
guest-s12_vm2.mol2 : vm2 ligand conformer 79
          26          25           1
SMALL
USER_CHARGES
 
@<TRIPOS>ATOM
       1    N1      19.840303   19.208420   26.072769 N.4        1 MOL1        -0.4857
       2    H1      20.168211   18.348648   26.539248 H          1 MOL1         0.3650
       3    H2      19.087283   19.570046   26.679388 H          1 MOL1         0.3650
       4    C1      19.275049   18.879496   24.701518 C.3        1 MOL1         0.0209
       5    H3      18.985049   19.819299   24.225621 H          1 MOL1         0.0967
       6    H4      18.371831   18.283568   24.855146 H          1 MOL1         0.0967
       7    C2      20.238959   18.100366   23.782015 C.3        1 MOL1        -0.1378
       8    H5      21.149218   18.686849   23.607198 H          1 MOL1         0.0993
       9    H6      20.557874   17.182108   24.292366 H          1 MOL1         0.0993
      10    C3      19.592449   17.722011   22.426402 C.3        1 MOL1        -0.1338
      11    H7      18.759063   17.030120   22.610967 H          1 MOL1         0.0993
      12    H8      20.318949   17.156698   21.827550 H          1 MOL1         0.0993
      13    C4      19.063330   18.925576   21.600191 C.3        1 MOL1        -0.1338
      14    H9      18.650288   18.547468   20.654879 H          1 MOL1         0.0993
      15    H10     18.217227   19.386214   22.127689 H          1 MOL1         0.0993
      16    C5      20.113234   20.021401   21.284574 C.3        1 MOL1        -0.1313
      17    H11     20.464134   20.490306   22.213697 H          1 MOL1         0.0993
      18    H12     19.623421   20.820824   20.711227 H          1 MOL1         0.0993
      19    C6      21.321515   19.497810   20.475424 C.3        1 MOL1        -0.2328
      20    H13     20.994036   19.014392   19.545916 H          1 MOL1         0.1004
      21    H14     21.908127   18.771876   21.051968 H          1 MOL1         0.1004
      22    H15     21.991346   20.324541   20.205849 H          1 MOL1         0.1004
      23    C7      20.963161   20.234920   25.974108 C.3        1 MOL1        -0.0781
      24    H16     20.581815   21.138658   25.493857 H          1 MOL1         0.0978
      25    H17     21.318178   20.473371   26.979188 H          1 MOL1         0.0978
      26    H18     21.782850   19.819309   25.384729 H          1 MOL1         0.0978
@<TRIPOS>BOND
    1     1     2    1
    2     1     3    1
    3     1     4    1
    4     4     5    1
    5     4     6    1
    6     4     7    1
    7     7     8    1
    8     7     9    1
    9     7    10    1
   10    10    11    1
   11    10    12    1
   12    10    13    1
   13    13    14    1
   14    13    15    1
   15    13    16    1
   16    16    17    1
   17    16    18    1
   18    16    19    1
   19    19    20    1
   20    19    21    1
   21    19    22    1
   22     1    23    1
   23    23    24    1
   24    23    25    1
   25    23    26    1
@<TRIPOS>SUBSTRUCTURE
       1 MOL1            1 RESIDUE      1      MOL     
@<SCITEGIC>MOL_PROPERTY
VM2 Rank
SciTegic.value.IntegerValue
79

@<SCITEGIC>MOL_PROPERTY
Conf_Id
SciTegic.value.IntegerValue
956

@<SCITEGIC>MOL_PROPERTY
Probability
SciTegic.value.DoubleValue
0.28

@<SCITEGIC>MOL_PROPERTY
Sum Probability
SciTegic.value.DoubleValue
93.02

@<SCITEGIC>MOL_PROPERTY
Delta G
SciTegic.value.DoubleValue
1.898

@<SCITEGIC>MOL_PROPERTY
G
SciTegic.value.DoubleValue
77.365

@<SCITEGIC>MOL_PROPERTY
E
SciTegic.value.DoubleValue
44.358

@<SCITEGIC>MOL_PROPERTY
-TS
SciTegic.value.DoubleValue
33.007

@<SCITEGIC>MOL_PROPERTY
U+W
SciTegic.value.DoubleValue
22.896

@<SCITEGIC>MOL_PROPERTY
U
SciTegic.value.DoubleValue
72.761

@<SCITEGIC>MOL_PROPERTY
W
SciTegic.value.DoubleValue
-49.865

@<SCITEGIC>MOL_PROPERTY
W(PB)
SciTegic.value.DoubleValue
-52.062

@<SCITEGIC>MOL_PROPERTY
W(SA)
SciTegic.value.DoubleValue
2.196

@<SCITEGIC>MOL_PROPERTY
Valence
SciTegic.value.DoubleValue
3.172

@<SCITEGIC>MOL_PROPERTY
Coulomb
SciTegic.value.DoubleValue
69.298

@<SCITEGIC>MOL_PROPERTY
VdW
SciTegic.value.DoubleValue
0.291

@<SCITEGIC>MOL_PROPERTY
VdW6
SciTegic.value.DoubleValue
-8.615

@<SCITEGIC>MOL_PROPERTY
VdW12
SciTegic.value.DoubleValue
8.906

@<SCITEGIC>MOL_PROPERTY
Bond
SciTegic.value.DoubleValue
0.269

@<SCITEGIC>MOL_PROPERTY
Angle
SciTegic.value.DoubleValue
1.270

@<SCITEGIC>MOL_PROPERTY
Pdih
SciTegic.value.DoubleValue
1.633

@<SCITEGIC>MOL_PROPERTY
Idih
SciTegic.value.DoubleValue
0.000

@<SCITEGIC>MOL_PROPERTY
Tether
SciTegic.value.DoubleValue
0.000

@<TRIPOS>MOLECULE
guest-s12_vm2.mol2 : vm2 ligand conformer 80
          26          25           1
SMALL
USER_CHARGES
 
@<TRIPOS>ATOM
       1    N1      20.678128   18.990334   25.403472 N.4        1 MOL1        -0.4857
       2    H1      21.285350   19.074315   24.574441 H          1 MOL1         0.3650
       3    H2      20.873082   18.056681   25.797057 H          1 MOL1         0.3650
       4    C1      19.222622   19.088460   24.990381 C.3        1 MOL1         0.0209
       5    H3      19.054770   20.089082   24.585051 H          1 MOL1         0.0967
       6    H4      18.614150   18.981013   25.891925 H          1 MOL1         0.0967
       7    C2      18.795418   18.028410   23.954110 C.3        1 MOL1        -0.1378
       8    H5      18.916460   17.028270   24.390985 H          1 MOL1         0.0993
       9    H6      17.722325   18.146061   23.753018 H          1 MOL1         0.0993
      10    C3      19.577065   18.103007   22.618274 C.3        1 MOL1        -0.1338
      11    H7      19.207043   17.311763   21.951763 H          1 MOL1         0.0993
      12    H8      20.635625   17.878436   22.800062 H          1 MOL1         0.0993
      13    C4      19.435617   19.473114   21.907802 C.3        1 MOL1        -0.1338
      14    H9      18.368773   19.716692   21.808591 H          1 MOL1         0.0993
      15    H10     19.878354   20.267568   22.523318 H          1 MOL1         0.0993
      16    C5      20.079881   19.504116   20.500831 C.3        1 MOL1        -0.1313
      17    H11     19.843310   20.466498   20.025716 H          1 MOL1         0.0993
      18    H12     19.626714   18.729359   19.866634 H          1 MOL1         0.0993
      19    C6      21.615044   19.324602   20.524853 C.3        1 MOL1        -0.2328
      20    H13     22.031177   19.444158   19.516155 H          1 MOL1         0.1004
      21    H14     21.899343   18.326998   20.881669 H          1 MOL1         0.1004
      22    H15     22.090312   20.071518   21.173828 H          1 MOL1         0.1004
      23    C7      21.004224   20.077957   26.417279 C.3        1 MOL1        -0.0781
      24    H16     20.369914   19.950222   27.297193 H          1 MOL1         0.0978
      25    H17     22.054787   19.996314   26.704947 H          1 MOL1         0.0978
      26    H18     20.819869   21.055749   25.966901 H          1 MOL1         0.0978
@<TRIPOS>BOND
    1     1     2    1
    2     1     3    1
    3     1     4    1
    4     4     5    1
    5     4     6    1
    6     4     7    1
    7     7     8    1
    8     7     9    1
    9     7    10    1
   10    10    11    1
   11    10    12    1
   12    10    13    1
   13    13    14    1
   14    13    15    1
   15    13    16    1
   16    16    17    1
   17    16    18    1
   18    16    19    1
   19    19    20    1
   20    19    21    1
   21    19    22    1
   22     1    23    1
   23    23    24    1
   24    23    25    1
   25    23    26    1
@<TRIPOS>SUBSTRUCTURE
       1 MOL1            1 RESIDUE      1      MOL     
@<SCITEGIC>MOL_PROPERTY
VM2 Rank
SciTegic.value.IntegerValue
80

@<SCITEGIC>MOL_PROPERTY
Conf_Id
SciTegic.value.IntegerValue
789

@<SCITEGIC>MOL_PROPERTY
Probability
SciTegic.value.DoubleValue
0.28

@<SCITEGIC>MOL_PROPERTY
Sum Probability
SciTegic.value.DoubleValue
93.30

@<SCITEGIC>MOL_PROPERTY
Delta G
SciTegic.value.DoubleValue
1.900

@<SCITEGIC>MOL_PROPERTY
G
SciTegic.value.DoubleValue
77.367

@<SCITEGIC>MOL_PROPERTY
E
SciTegic.value.DoubleValue
44.800

@<SCITEGIC>MOL_PROPERTY
-TS
SciTegic.value.DoubleValue
32.567

@<SCITEGIC>MOL_PROPERTY
U+W
SciTegic.value.DoubleValue
23.338

@<SCITEGIC>MOL_PROPERTY
U
SciTegic.value.DoubleValue
72.650

@<SCITEGIC>MOL_PROPERTY
W
SciTegic.value.DoubleValue
-49.312

@<SCITEGIC>MOL_PROPERTY
W(PB)
SciTegic.value.DoubleValue
-51.570

@<SCITEGIC>MOL_PROPERTY
W(SA)
SciTegic.value.DoubleValue
2.258

@<SCITEGIC>MOL_PROPERTY
Valence
SciTegic.value.DoubleValue
2.607

@<SCITEGIC>MOL_PROPERTY
Coulomb
SciTegic.value.DoubleValue
69.873

@<SCITEGIC>MOL_PROPERTY
VdW
SciTegic.value.DoubleValue
0.170

@<SCITEGIC>MOL_PROPERTY
VdW6
SciTegic.value.DoubleValue
-7.459

@<SCITEGIC>MOL_PROPERTY
VdW12
SciTegic.value.DoubleValue
7.629

@<SCITEGIC>MOL_PROPERTY
Bond
SciTegic.value.DoubleValue
0.205

@<SCITEGIC>MOL_PROPERTY
Angle
SciTegic.value.DoubleValue
0.826

@<SCITEGIC>MOL_PROPERTY
Pdih
SciTegic.value.DoubleValue
1.577

@<SCITEGIC>MOL_PROPERTY
Idih
SciTegic.value.DoubleValue
0.000

@<SCITEGIC>MOL_PROPERTY
Tether
SciTegic.value.DoubleValue
0.000

@<TRIPOS>MOLECULE
guest-s12_vm2.mol2 : vm2 ligand conformer 81
          26          25           1
SMALL
USER_CHARGES
 
@<TRIPOS>ATOM
       1    N1      19.775902   18.416248   25.530645 N.4        1 MOL1        -0.4857
       2    H1      20.306335   17.575918   25.253197 H          1 MOL1         0.3650
       3    H2      18.871134   18.347078   25.041054 H          1 MOL1         0.3650
       4    C1      20.511821   19.666850   25.089926 C.3        1 MOL1         0.0209
       5    H3      21.461107   19.698816   25.630696 H          1 MOL1         0.0967
       6    H4      19.917316   20.532490   25.392665 H          1 MOL1         0.0967
       7    C2      20.784515   19.729351   23.574293 C.3        1 MOL1        -0.1378
       8    H5      21.400247   20.614797   23.368078 H          1 MOL1         0.0993
       9    H6      21.380351   18.856009   23.280162 H          1 MOL1         0.0993
      10    C3      19.482882   19.803549   22.737570 C.3        1 MOL1        -0.1338
      11    H7      18.861276   20.626255   23.117462 H          1 MOL1         0.0993
      12    H8      18.891428   18.889335   22.874406 H          1 MOL1         0.0993
      13    C4      19.733783   20.039654   21.225693 C.3        1 MOL1        -0.1338
      14    H9      18.763918   20.118519   20.715413 H          1 MOL1         0.0993
      15    H10     20.222739   21.014521   21.092274 H          1 MOL1         0.0993
      16    C5      20.584748   18.953425   20.519136 C.3        1 MOL1        -0.1313
      17    H11     21.602071   18.939210   20.932638 H          1 MOL1         0.0993
      18    H12     20.695295   19.229701   19.461204 H          1 MOL1         0.0993
      19    C6      19.968273   17.538422   20.601552 C.3        1 MOL1        -0.2328
      20    H13     20.557318   16.827315   20.008081 H          1 MOL1         0.1004
      21    H14     18.942095   17.531648   20.211877 H          1 MOL1         0.1004
      22    H15     19.947024   17.168056   21.633901 H          1 MOL1         0.1004
      23    C7      19.566077   18.442500   27.038184 C.3        1 MOL1        -0.0781
      24    H16     18.976432   19.322788   27.303414 H          1 MOL1         0.0978
      25    H17     19.035134   17.537531   27.341904 H          1 MOL1         0.0978
      26    H18     20.537741   18.484414   27.535214 H          1 MOL1         0.0978
@<TRIPOS>BOND
    1     1     2    1
    2     1     3    1
    3     1     4    1
    4     4     5    1
    5     4     6    1
    6     4     7    1
    7     7     8    1
    8     7     9    1
    9     7    10    1
   10    10    11    1
   11    10    12    1
   12    10    13    1
   13    13    14    1
   14    13    15    1
   15    13    16    1
   16    16    17    1
   17    16    18    1
   18    16    19    1
   19    19    20    1
   20    19    21    1
   21    19    22    1
   22     1    23    1
   23    23    24    1
   24    23    25    1
   25    23    26    1
@<TRIPOS>SUBSTRUCTURE
       1 MOL1            1 RESIDUE      1      MOL     
@<SCITEGIC>MOL_PROPERTY
VM2 Rank
SciTegic.value.IntegerValue
81

@<SCITEGIC>MOL_PROPERTY
Conf_Id
SciTegic.value.IntegerValue
804

@<SCITEGIC>MOL_PROPERTY
Probability
SciTegic.value.DoubleValue
0.27

@<SCITEGIC>MOL_PROPERTY
Sum Probability
SciTegic.value.DoubleValue
93.56

@<SCITEGIC>MOL_PROPERTY
Delta G
SciTegic.value.DoubleValue
1.920

@<SCITEGIC>MOL_PROPERTY
G
SciTegic.value.DoubleValue
77.386

@<SCITEGIC>MOL_PROPERTY
E
SciTegic.value.DoubleValue
44.700

@<SCITEGIC>MOL_PROPERTY
-TS
SciTegic.value.DoubleValue
32.687

@<SCITEGIC>MOL_PROPERTY
U+W
SciTegic.value.DoubleValue
23.238

@<SCITEGIC>MOL_PROPERTY
U
SciTegic.value.DoubleValue
72.709

@<SCITEGIC>MOL_PROPERTY
W
SciTegic.value.DoubleValue
-49.471

@<SCITEGIC>MOL_PROPERTY
W(PB)
SciTegic.value.DoubleValue
-51.723

@<SCITEGIC>MOL_PROPERTY
W(SA)
SciTegic.value.DoubleValue
2.252

@<SCITEGIC>MOL_PROPERTY
Valence
SciTegic.value.DoubleValue
2.790

@<SCITEGIC>MOL_PROPERTY
Coulomb
SciTegic.value.DoubleValue
69.679

@<SCITEGIC>MOL_PROPERTY
VdW
SciTegic.value.DoubleValue
0.240

@<SCITEGIC>MOL_PROPERTY
VdW6
SciTegic.value.DoubleValue
-7.473

@<SCITEGIC>MOL_PROPERTY
VdW12
SciTegic.value.DoubleValue
7.714

@<SCITEGIC>MOL_PROPERTY
Bond
SciTegic.value.DoubleValue
0.222

@<SCITEGIC>MOL_PROPERTY
Angle
SciTegic.value.DoubleValue
1.030

@<SCITEGIC>MOL_PROPERTY
Pdih
SciTegic.value.DoubleValue
1.538

@<SCITEGIC>MOL_PROPERTY
Idih
SciTegic.value.DoubleValue
0.000

@<SCITEGIC>MOL_PROPERTY
Tether
SciTegic.value.DoubleValue
0.000

@<TRIPOS>MOLECULE
guest-s12_vm2.mol2 : vm2 ligand conformer 82
          26          25           1
SMALL
USER_CHARGES
 
@<TRIPOS>ATOM
       1    N1      19.307541   18.849335   25.354913 N.4        1 MOL1        -0.4857
       2    H1      19.279439   17.892746   25.740624 H          1 MOL1         0.3650
       3    H2      18.755502   18.814038   24.484815 H          1 MOL1         0.3650
       4    C1      20.737960   19.244338   25.044048 C.3        1 MOL1         0.0209
       5    H3      21.290920   19.256370   25.986732 H          1 MOL1         0.0967
       6    H4      20.726799   20.261081   24.644271 H          1 MOL1         0.0967
       7    C2      21.443272   18.300800   24.047885 C.3        1 MOL1        -0.1378
       8    H5      22.481405   18.635660   23.921561 H          1 MOL1         0.0993
       9    H6      21.497868   17.293823   24.482406 H          1 MOL1         0.0993
      10    C3      20.758255   18.224506   22.660109 C.3        1 MOL1        -0.1338
      11    H7      19.757407   17.788059   22.768959 H          1 MOL1         0.0993
      12    H8      21.327177   17.529861   22.026851 H          1 MOL1         0.0993
      13    C4      20.667510   19.599830   21.951436 C.3        1 MOL1        -0.1338
      14    H9      20.030500   20.283205   22.528717 H          1 MOL1         0.0993
      15    H10     21.666804   20.055968   21.925387 H          1 MOL1         0.0993
      16    C5      20.130492   19.509293   20.502637 C.3        1 MOL1        -0.1313
      17    H11     20.774949   18.847402   19.907330 H          1 MOL1         0.0993
      18    H12     20.199145   20.503051   20.038299 H          1 MOL1         0.0993
      19    C6      18.666041   19.021279   20.420461 C.3        1 MOL1        -0.2328
      20    H13     18.305936   19.060973   19.384276 H          1 MOL1         0.1004
      21    H14     18.004624   19.651310   21.029166 H          1 MOL1         0.1004
      22    H15     18.566216   17.984179   20.763708 H          1 MOL1         0.1004
      23    C7      18.696930   19.840619   26.335510 C.3        1 MOL1        -0.0781
      24    H16     18.709710   20.838683   25.892101 H          1 MOL1         0.0978
      25    H17     17.667399   19.545014   26.549479 H          1 MOL1         0.0978
      26    H18     19.280746   19.838199   27.258584 H          1 MOL1         0.0978
@<TRIPOS>BOND
    1     1     2    1
    2     1     3    1
    3     1     4    1
    4     4     5    1
    5     4     6    1
    6     4     7    1
    7     7     8    1
    8     7     9    1
    9     7    10    1
   10    10    11    1
   11    10    12    1
   12    10    13    1
   13    13    14    1
   14    13    15    1
   15    13    16    1
   16    16    17    1
   17    16    18    1
   18    16    19    1
   19    19    20    1
   20    19    21    1
   21    19    22    1
   22     1    23    1
   23    23    24    1
   24    23    25    1
   25    23    26    1
@<TRIPOS>SUBSTRUCTURE
       1 MOL1            1 RESIDUE      1      MOL     
@<SCITEGIC>MOL_PROPERTY
VM2 Rank
SciTegic.value.IntegerValue
82

@<SCITEGIC>MOL_PROPERTY
Conf_Id
SciTegic.value.IntegerValue
416

@<SCITEGIC>MOL_PROPERTY
Probability
SciTegic.value.DoubleValue
0.26

@<SCITEGIC>MOL_PROPERTY
Sum Probability
SciTegic.value.DoubleValue
93.82

@<SCITEGIC>MOL_PROPERTY
Delta G
SciTegic.value.DoubleValue
1.942

@<SCITEGIC>MOL_PROPERTY
G
SciTegic.value.DoubleValue
77.408

@<SCITEGIC>MOL_PROPERTY
E
SciTegic.value.DoubleValue
44.841

@<SCITEGIC>MOL_PROPERTY
-TS
SciTegic.value.DoubleValue
32.567

@<SCITEGIC>MOL_PROPERTY
U+W
SciTegic.value.DoubleValue
23.379

@<SCITEGIC>MOL_PROPERTY
U
SciTegic.value.DoubleValue
72.650

@<SCITEGIC>MOL_PROPERTY
W
SciTegic.value.DoubleValue
-49.271

@<SCITEGIC>MOL_PROPERTY
W(PB)
SciTegic.value.DoubleValue
-51.523

@<SCITEGIC>MOL_PROPERTY
W(SA)
SciTegic.value.DoubleValue
2.252

@<SCITEGIC>MOL_PROPERTY
Valence
SciTegic.value.DoubleValue
2.607

@<SCITEGIC>MOL_PROPERTY
Coulomb
SciTegic.value.DoubleValue
69.873

@<SCITEGIC>MOL_PROPERTY
VdW
SciTegic.value.DoubleValue
0.170

@<SCITEGIC>MOL_PROPERTY
VdW6
SciTegic.value.DoubleValue
-7.459

@<SCITEGIC>MOL_PROPERTY
VdW12
SciTegic.value.DoubleValue
7.629

@<SCITEGIC>MOL_PROPERTY
Bond
SciTegic.value.DoubleValue
0.205

@<SCITEGIC>MOL_PROPERTY
Angle
SciTegic.value.DoubleValue
0.826

@<SCITEGIC>MOL_PROPERTY
Pdih
SciTegic.value.DoubleValue
1.577

@<SCITEGIC>MOL_PROPERTY
Idih
SciTegic.value.DoubleValue
0.000

@<SCITEGIC>MOL_PROPERTY
Tether
SciTegic.value.DoubleValue
0.000

@<TRIPOS>MOLECULE
guest-s12_vm2.mol2 : vm2 ligand conformer 83
          26          25           1
SMALL
USER_CHARGES
 
@<TRIPOS>ATOM
       1    N1      20.125184   18.964999   26.427682 N.4        1 MOL1        -0.4857
       2    H1      20.814326   18.209517   26.563879 H          1 MOL1         0.3650
       3    H2      19.683423   19.086441   27.352824 H          1 MOL1         0.3650
       4    C1      19.064938   18.534249   25.423147 C.3        1 MOL1         0.0209
       5    H3      18.360318   19.358275   25.286251 H          1 MOL1         0.0967
       6    H4      18.522369   17.708723   25.891041 H          1 MOL1         0.0967
       7    C2      19.588954   18.047249   24.053420 C.3        1 MOL1        -0.1378
       8    H5      20.555543   17.541783   24.179336 H          1 MOL1         0.0993
       9    H6      18.890702   17.287903   23.677080 H          1 MOL1         0.0993
      10    C3      19.696295   19.175850   22.999534 C.3        1 MOL1        -0.1338
      11    H7      20.402876   19.944653   23.333232 H          1 MOL1         0.0993
      12    H8      18.720231   19.669535   22.894504 H          1 MOL1         0.0993
      13    C4      20.150123   18.635062   21.624388 C.3        1 MOL1        -0.1338
      14    H9      21.124740   18.138327   21.728751 H          1 MOL1         0.0993
      15    H10     19.440438   17.871688   21.276404 H          1 MOL1         0.0993
      16    C5      20.255438   19.758555   20.568936 C.3        1 MOL1        -0.1313
      17    H11     20.966782   20.523566   20.910594 H          1 MOL1         0.0993
      18    H12     19.282245   20.257458   20.459494 H          1 MOL1         0.0993
      19    C6      20.708787   19.214577   19.197288 C.3        1 MOL1        -0.2328
      20    H13     21.695933   18.739386   19.267543 H          1 MOL1         0.1004
      21    H14     20.777621   20.026486   18.461701 H          1 MOL1         0.1004
      22    H15     19.998249   18.471297   18.812748 H          1 MOL1         0.1004
      23    C7      20.818280   20.259459   26.022605 C.3        1 MOL1        -0.0781
      24    H16     20.065743   21.030689   25.844662 H          1 MOL1         0.0978
      25    H17     21.485185   20.573338   26.828702 H          1 MOL1         0.0978
      26    H18     21.400937   20.087326   25.116221 H          1 MOL1         0.0978
@<TRIPOS>BOND
    1     1     2    1
    2     1     3    1
    3     1     4    1
    4     4     5    1
    5     4     6    1
    6     4     7    1
    7     7     8    1
    8     7     9    1
    9     7    10    1
   10    10    11    1
   11    10    12    1
   12    10    13    1
   13    13    14    1
   14    13    15    1
   15    13    16    1
   16    16    17    1
   17    16    18    1
   18    16    19    1
   19    19    20    1
   20    19    21    1
   21    19    22    1
   22     1    23    1
   23    23    24    1
   24    23    25    1
   25    23    26    1
@<TRIPOS>SUBSTRUCTURE
       1 MOL1            1 RESIDUE      1      MOL     
@<SCITEGIC>MOL_PROPERTY
VM2 Rank
SciTegic.value.IntegerValue
83

@<SCITEGIC>MOL_PROPERTY
Conf_Id
SciTegic.value.IntegerValue
1544

@<SCITEGIC>MOL_PROPERTY
Probability
SciTegic.value.DoubleValue
0.26

@<SCITEGIC>MOL_PROPERTY
Sum Probability
SciTegic.value.DoubleValue
94.08

@<SCITEGIC>MOL_PROPERTY
Delta G
SciTegic.value.DoubleValue
1.945

@<SCITEGIC>MOL_PROPERTY
G
SciTegic.value.DoubleValue
77.412

@<SCITEGIC>MOL_PROPERTY
E
SciTegic.value.DoubleValue
45.184

@<SCITEGIC>MOL_PROPERTY
-TS
SciTegic.value.DoubleValue
32.227

@<SCITEGIC>MOL_PROPERTY
U+W
SciTegic.value.DoubleValue
23.722

@<SCITEGIC>MOL_PROPERTY
U
SciTegic.value.DoubleValue
72.994

@<SCITEGIC>MOL_PROPERTY
W
SciTegic.value.DoubleValue
-49.271

@<SCITEGIC>MOL_PROPERTY
W(PB)
SciTegic.value.DoubleValue
-51.555

@<SCITEGIC>MOL_PROPERTY
W(SA)
SciTegic.value.DoubleValue
2.284

@<SCITEGIC>MOL_PROPERTY
Valence
SciTegic.value.DoubleValue
3.858

@<SCITEGIC>MOL_PROPERTY
Coulomb
SciTegic.value.DoubleValue
68.737

@<SCITEGIC>MOL_PROPERTY
VdW
SciTegic.value.DoubleValue
0.399

@<SCITEGIC>MOL_PROPERTY
VdW6
SciTegic.value.DoubleValue
-6.843

@<SCITEGIC>MOL_PROPERTY
VdW12
SciTegic.value.DoubleValue
7.242

@<SCITEGIC>MOL_PROPERTY
Bond
SciTegic.value.DoubleValue
0.196

@<SCITEGIC>MOL_PROPERTY
Angle
SciTegic.value.DoubleValue
0.970

@<SCITEGIC>MOL_PROPERTY
Pdih
SciTegic.value.DoubleValue
2.692

@<SCITEGIC>MOL_PROPERTY
Idih
SciTegic.value.DoubleValue
0.000

@<SCITEGIC>MOL_PROPERTY
Tether
SciTegic.value.DoubleValue
0.000

@<TRIPOS>MOLECULE
guest-s12_vm2.mol2 : vm2 ligand conformer 84
          26          25           1
SMALL
USER_CHARGES
 
@<TRIPOS>ATOM
       1    N1      20.293877   18.468432   25.548848 N.4        1 MOL1        -0.4857
       2    H1      21.226291   18.584509   25.124324 H          1 MOL1         0.3650
       3    H2      19.962368   17.541233   25.240801 H          1 MOL1         0.3650
       4    C1      19.356118   19.550341   25.048949 C.3        1 MOL1         0.0209
       5    H3      19.743449   20.514946   25.386487 H          1 MOL1         0.0967
       6    H4      18.384038   19.388584   25.521699 H          1 MOL1         0.0967
       7    C2      19.183216   19.567978   23.517544 C.3        1 MOL1        -0.1378
       8    H5      18.795740   18.595414   23.188543 H          1 MOL1         0.0993
       9    H6      18.419144   20.314182   23.262517 H          1 MOL1         0.0993
      10    C3      20.499186   19.906411   22.773539 C.3        1 MOL1        -0.1338
      11    H7      21.250218   19.127809   22.958079 H          1 MOL1         0.0993
      12    H8      20.915794   20.834031   23.190090 H          1 MOL1         0.0993
      13    C4      20.312785   20.098108   21.246133 C.3        1 MOL1        -0.1338
      14    H9      19.649531   20.956549   21.071724 H          1 MOL1         0.0993
      15    H10     21.280690   20.372658   20.804513 H          1 MOL1         0.0993
      16    C5      19.747637   18.868691   20.489564 C.3        1 MOL1        -0.1313
      17    H11     19.658610   19.124617   19.424507 H          1 MOL1         0.0993
      18    H12     18.727211   18.648677   20.830824 H          1 MOL1         0.0993
      19    C6      20.627014   17.604828   20.625263 C.3        1 MOL1        -0.2328
      20    H13     21.658639   17.805909   20.308637 H          1 MOL1         0.1004
      21    H14     20.235055   16.794528   19.997063 H          1 MOL1         0.1004
      22    H15     20.649281   17.238994   21.659206 H          1 MOL1         0.1004
      23    C7      20.388166   18.525212   27.067160 C.3        1 MOL1        -0.0781
      24    H16     20.770462   19.503447   27.366891 H          1 MOL1         0.0978
      25    H17     19.395273   18.369058   27.494603 H          1 MOL1         0.0978
      26    H18     21.066241   17.742084   27.413628 H          1 MOL1         0.0978
@<TRIPOS>BOND
    1     1     2    1
    2     1     3    1
    3     1     4    1
    4     4     5    1
    5     4     6    1
    6     4     7    1
    7     7     8    1
    8     7     9    1
    9     7    10    1
   10    10    11    1
   11    10    12    1
   12    10    13    1
   13    13    14    1
   14    13    15    1
   15    13    16    1
   16    16    17    1
   17    16    18    1
   18    16    19    1
   19    19    20    1
   20    19    21    1
   21    19    22    1
   22     1    23    1
   23    23    24    1
   24    23    25    1
   25    23    26    1
@<TRIPOS>SUBSTRUCTURE
       1 MOL1            1 RESIDUE      1      MOL     
@<SCITEGIC>MOL_PROPERTY
VM2 Rank
SciTegic.value.IntegerValue
84

@<SCITEGIC>MOL_PROPERTY
Conf_Id
SciTegic.value.IntegerValue
534

@<SCITEGIC>MOL_PROPERTY
Probability
SciTegic.value.DoubleValue
0.25

@<SCITEGIC>MOL_PROPERTY
Sum Probability
SciTegic.value.DoubleValue
94.33

@<SCITEGIC>MOL_PROPERTY
Delta G
SciTegic.value.DoubleValue
1.967

@<SCITEGIC>MOL_PROPERTY
G
SciTegic.value.DoubleValue
77.433

@<SCITEGIC>MOL_PROPERTY
E
SciTegic.value.DoubleValue
44.747

@<SCITEGIC>MOL_PROPERTY
-TS
SciTegic.value.DoubleValue
32.686

@<SCITEGIC>MOL_PROPERTY
U+W
SciTegic.value.DoubleValue
23.285

@<SCITEGIC>MOL_PROPERTY
U
SciTegic.value.DoubleValue
72.709

@<SCITEGIC>MOL_PROPERTY
W
SciTegic.value.DoubleValue
-49.424

@<SCITEGIC>MOL_PROPERTY
W(PB)
SciTegic.value.DoubleValue
-51.677

@<SCITEGIC>MOL_PROPERTY
W(SA)
SciTegic.value.DoubleValue
2.253

@<SCITEGIC>MOL_PROPERTY
Valence
SciTegic.value.DoubleValue
2.790

@<SCITEGIC>MOL_PROPERTY
Coulomb
SciTegic.value.DoubleValue
69.679

@<SCITEGIC>MOL_PROPERTY
VdW
SciTegic.value.DoubleValue
0.240

@<SCITEGIC>MOL_PROPERTY
VdW6
SciTegic.value.DoubleValue
-7.473

@<SCITEGIC>MOL_PROPERTY
VdW12
SciTegic.value.DoubleValue
7.714

@<SCITEGIC>MOL_PROPERTY
Bond
SciTegic.value.DoubleValue
0.222

@<SCITEGIC>MOL_PROPERTY
Angle
SciTegic.value.DoubleValue
1.030

@<SCITEGIC>MOL_PROPERTY
Pdih
SciTegic.value.DoubleValue
1.538

@<SCITEGIC>MOL_PROPERTY
Idih
SciTegic.value.DoubleValue
0.000

@<SCITEGIC>MOL_PROPERTY
Tether
SciTegic.value.DoubleValue
0.000

@<TRIPOS>MOLECULE
guest-s12_vm2.mol2 : vm2 ligand conformer 85
          26          25           1
SMALL
USER_CHARGES
 
@<TRIPOS>ATOM
       1    N1      19.780686   18.929673   26.415409 N.4        1 MOL1        -0.4857
       2    H1      20.122902   19.130781   27.368421 H          1 MOL1         0.3650
       3    H2      19.250280   18.049727   26.508060 H          1 MOL1         0.3650
       4    C1      20.973802   18.729166   25.490735 C.3        1 MOL1         0.0209
       5    H3      21.637752   18.026865   26.001367 H          1 MOL1         0.0967
       6    H4      21.505328   19.679470   25.397713 H          1 MOL1         0.0967
       7    C2      20.656266   18.156234   24.091152 C.3        1 MOL1        -0.1378
       8    H5      21.518336   17.556700   23.769922 H          1 MOL1         0.0993
       9    H6      19.805610   17.464684   24.152689 H          1 MOL1         0.0993
      10    C3      20.396659   19.247397   23.024424 C.3        1 MOL1        -0.1338
      11    H7      21.257298   19.929440   22.984757 H          1 MOL1         0.0993
      12    H8      19.527244   19.854525   23.302231 H          1 MOL1         0.0993
      13    C4      20.159589   18.636009   21.624625 C.3        1 MOL1        -0.1338
      14    H9      21.031962   18.034979   21.332714 H          1 MOL1         0.0993
      15    H10     19.301069   17.951225   21.663741 H          1 MOL1         0.0993
      16    C5      19.903022   19.722591   20.556534 C.3        1 MOL1        -0.1313
      17    H11     20.759992   20.409350   20.512355 H          1 MOL1         0.0993
      18    H12     19.029034   20.324822   20.841920 H          1 MOL1         0.0993
      19    C6      19.667085   19.108164   19.160229 C.3        1 MOL1        -0.2328
      20    H13     19.486860   19.894669   18.415950 H          1 MOL1         0.1004
      21    H14     18.794444   18.442072   19.164168 H          1 MOL1         0.1004
      22    H15     20.538902   18.527378   18.831865 H          1 MOL1         0.1004
      23    C7      18.870890   20.060765   25.953892 C.3        1 MOL1        -0.0781
      24    H16     19.463045   20.969151   25.823661 H          1 MOL1         0.0978
      25    H17     18.399683   19.781353   25.010211 H          1 MOL1         0.0978
      26    H18     18.099733   20.227845   26.709191 H          1 MOL1         0.0978
@<TRIPOS>BOND
    1     1     2    1
    2     1     3    1
    3     1     4    1
    4     4     5    1
    5     4     6    1
    6     4     7    1
    7     7     8    1
    8     7     9    1
    9     7    10    1
   10    10    11    1
   11    10    12    1
   12    10    13    1
   13    13    14    1
   14    13    15    1
   15    13    16    1
   16    16    17    1
   17    16    18    1
   18    16    19    1
   19    19    20    1
   20    19    21    1
   21    19    22    1
   22     1    23    1
   23    23    24    1
   24    23    25    1
   25    23    26    1
@<TRIPOS>SUBSTRUCTURE
       1 MOL1            1 RESIDUE      1      MOL     
@<SCITEGIC>MOL_PROPERTY
VM2 Rank
SciTegic.value.IntegerValue
85

@<SCITEGIC>MOL_PROPERTY
Conf_Id
SciTegic.value.IntegerValue
759

@<SCITEGIC>MOL_PROPERTY
Probability
SciTegic.value.DoubleValue
0.24

@<SCITEGIC>MOL_PROPERTY
Sum Probability
SciTegic.value.DoubleValue
94.57

@<SCITEGIC>MOL_PROPERTY
Delta G
SciTegic.value.DoubleValue
1.975

@<SCITEGIC>MOL_PROPERTY
G
SciTegic.value.DoubleValue
77.441

@<SCITEGIC>MOL_PROPERTY
E
SciTegic.value.DoubleValue
45.216

@<SCITEGIC>MOL_PROPERTY
-TS
SciTegic.value.DoubleValue
32.225

@<SCITEGIC>MOL_PROPERTY
U+W
SciTegic.value.DoubleValue
23.755

@<SCITEGIC>MOL_PROPERTY
U
SciTegic.value.DoubleValue
72.994

@<SCITEGIC>MOL_PROPERTY
W
SciTegic.value.DoubleValue
-49.239

@<SCITEGIC>MOL_PROPERTY
W(PB)
SciTegic.value.DoubleValue
-51.517

@<SCITEGIC>MOL_PROPERTY
W(SA)
SciTegic.value.DoubleValue
2.277

@<SCITEGIC>MOL_PROPERTY
Valence
SciTegic.value.DoubleValue
3.858

@<SCITEGIC>MOL_PROPERTY
Coulomb
SciTegic.value.DoubleValue
68.737

@<SCITEGIC>MOL_PROPERTY
VdW
SciTegic.value.DoubleValue
0.399

@<SCITEGIC>MOL_PROPERTY
VdW6
SciTegic.value.DoubleValue
-6.843

@<SCITEGIC>MOL_PROPERTY
VdW12
SciTegic.value.DoubleValue
7.242

@<SCITEGIC>MOL_PROPERTY
Bond
SciTegic.value.DoubleValue
0.196

@<SCITEGIC>MOL_PROPERTY
Angle
SciTegic.value.DoubleValue
0.971

@<SCITEGIC>MOL_PROPERTY
Pdih
SciTegic.value.DoubleValue
2.691

@<SCITEGIC>MOL_PROPERTY
Idih
SciTegic.value.DoubleValue
0.000

@<SCITEGIC>MOL_PROPERTY
Tether
SciTegic.value.DoubleValue
0.000

@<TRIPOS>MOLECULE
guest-s12_vm2.mol2 : vm2 ligand conformer 86
          26          25           1
SMALL
USER_CHARGES
 
@<TRIPOS>ATOM
       1    N1      20.177974   18.510004   26.002054 N.4        1 MOL1        -0.4857
       2    H1      21.112978   18.271611   25.639362 H          1 MOL1         0.3650
       3    H2      19.988365   17.808600   26.735477 H          1 MOL1         0.3650
       4    C1      19.140267   18.384077   24.897291 C.3        1 MOL1         0.0209
       5    H3      18.170848   18.653975   25.323750 H          1 MOL1         0.0967
       6    H4      19.097924   17.331041   24.607596 H          1 MOL1         0.0967
       7    C2      19.405601   19.239863   23.639161 C.3        1 MOL1        -0.1378
       8    H5      18.564853   19.092444   22.950103 H          1 MOL1         0.0993
       9    H6      19.405562   20.304577   23.905433 H          1 MOL1         0.0993
      10    C3      20.733104   18.869859   22.931204 C.3        1 MOL1        -0.1338
      11    H7      20.720727   17.808518   22.649712 H          1 MOL1         0.0993
      12    H8      21.565983   18.986081   23.637070 H          1 MOL1         0.0993
      13    C4      21.036899   19.744334   21.686860 C.3        1 MOL1        -0.1338
      14    H9      21.151196   20.789938   22.004481 H          1 MOL1         0.0993
      15    H10     22.012563   19.447075   21.278267 H          1 MOL1         0.0993
      16    C5      19.980741   19.679357   20.553793 C.3        1 MOL1        -0.1313
      17    H11     20.309432   20.331538   19.732579 H          1 MOL1         0.0993
      18    H12     19.024872   20.094333   20.900284 H          1 MOL1         0.0993
      19    C6      19.760470   18.253870   19.998435 C.3        1 MOL1        -0.2328
      20    H13     20.706912   17.810268   19.663184 H          1 MOL1         0.1004
      21    H14     19.077667   18.277113   19.139315 H          1 MOL1         0.1004
      22    H15     19.318298   17.591858   20.753302 H          1 MOL1         0.1004
      23    C7      20.172945   19.908636   26.608202 C.3        1 MOL1        -0.0781
      24    H16     20.437383   20.636561   25.838553 H          1 MOL1         0.0978
      25    H17     19.176587   20.126728   26.998695 H          1 MOL1         0.0978
      26    H18     20.903881   19.949410   27.418823 H          1 MOL1         0.0978
@<TRIPOS>BOND
    1     1     2    1
    2     1     3    1
    3     1     4    1
    4     4     5    1
    5     4     6    1
    6     4     7    1
    7     7     8    1
    8     7     9    1
    9     7    10    1
   10    10    11    1
   11    10    12    1
   12    10    13    1
   13    13    14    1
   14    13    15    1
   15    13    16    1
   16    16    17    1
   17    16    18    1
   18    16    19    1
   19    19    20    1
   20    19    21    1
   21    19    22    1
   22     1    23    1
   23    23    24    1
   24    23    25    1
   25    23    26    1
@<TRIPOS>SUBSTRUCTURE
       1 MOL1            1 RESIDUE      1      MOL     
@<SCITEGIC>MOL_PROPERTY
VM2 Rank
SciTegic.value.IntegerValue
86

@<SCITEGIC>MOL_PROPERTY
Conf_Id
SciTegic.value.IntegerValue
533

@<SCITEGIC>MOL_PROPERTY
Probability
SciTegic.value.DoubleValue
0.24

@<SCITEGIC>MOL_PROPERTY
Sum Probability
SciTegic.value.DoubleValue
94.81

@<SCITEGIC>MOL_PROPERTY
Delta G
SciTegic.value.DoubleValue
1.981

@<SCITEGIC>MOL_PROPERTY
G
SciTegic.value.DoubleValue
77.448

@<SCITEGIC>MOL_PROPERTY
E
SciTegic.value.DoubleValue
44.560

@<SCITEGIC>MOL_PROPERTY
-TS
SciTegic.value.DoubleValue
32.888

@<SCITEGIC>MOL_PROPERTY
U+W
SciTegic.value.DoubleValue
23.098

@<SCITEGIC>MOL_PROPERTY
U
SciTegic.value.DoubleValue
72.739

@<SCITEGIC>MOL_PROPERTY
W
SciTegic.value.DoubleValue
-49.641

@<SCITEGIC>MOL_PROPERTY
W(PB)
SciTegic.value.DoubleValue
-51.847

@<SCITEGIC>MOL_PROPERTY
W(SA)
SciTegic.value.DoubleValue
2.206

@<SCITEGIC>MOL_PROPERTY
Valence
SciTegic.value.DoubleValue
3.076

@<SCITEGIC>MOL_PROPERTY
Coulomb
SciTegic.value.DoubleValue
69.128

@<SCITEGIC>MOL_PROPERTY
VdW
SciTegic.value.DoubleValue
0.535

@<SCITEGIC>MOL_PROPERTY
VdW6
SciTegic.value.DoubleValue
-8.276

@<SCITEGIC>MOL_PROPERTY
VdW12
SciTegic.value.DoubleValue
8.811

@<SCITEGIC>MOL_PROPERTY
Bond
SciTegic.value.DoubleValue
0.270

@<SCITEGIC>MOL_PROPERTY
Angle
SciTegic.value.DoubleValue
1.277

@<SCITEGIC>MOL_PROPERTY
Pdih
SciTegic.value.DoubleValue
1.529

@<SCITEGIC>MOL_PROPERTY
Idih
SciTegic.value.DoubleValue
0.000

@<SCITEGIC>MOL_PROPERTY
Tether
SciTegic.value.DoubleValue
0.000

@<TRIPOS>MOLECULE
guest-s12_vm2.mol2 : vm2 ligand conformer 87
          26          25           1
SMALL
USER_CHARGES
 
@<TRIPOS>ATOM
       1    N1      19.851194   18.476552   25.990549 N.4        1 MOL1        -0.4857
       2    H1      20.127095   17.822870   26.740487 H          1 MOL1         0.3650
       3    H2      19.011517   18.056388   25.565095 H          1 MOL1         0.3650
       4    C1      20.967597   18.571144   24.962008 C.3        1 MOL1         0.0209
       5    H3      21.242325   17.550567   24.683535 H          1 MOL1         0.0967
       6    H4      21.830083   19.028572   25.453297 H          1 MOL1         0.0967
       7    C2      20.623275   19.364521   23.682298 C.3        1 MOL1        -0.1378
       8    H5      20.389146   20.405260   23.940294 H          1 MOL1         0.0993
       9    H6      21.522601   19.395296   23.054879 H          1 MOL1         0.0993
      10    C3      19.451056   18.738566   22.885773 C.3        1 MOL1        -0.1338
      11    H7      18.564546   18.678734   23.530723 H          1 MOL1         0.0993
      12    H8      19.697683   17.703748   22.613449 H          1 MOL1         0.0993
      13    C4      19.064475   19.542370   21.616973 C.3        1 MOL1        -0.1338
      14    H9      18.200242   19.056729   21.143176 H          1 MOL1         0.0993
      15    H10     18.718947   20.540886   21.918316 H          1 MOL1         0.0993
      16    C5      20.188644   19.700658   20.561164 C.3        1 MOL1        -0.1313
      17    H11     21.014085   20.297985   20.970790 H          1 MOL1         0.0993
      18    H12     19.793113   20.278729   19.714312 H          1 MOL1         0.0993
      19    C6      20.731193   18.353288   20.032784 C.3        1 MOL1        -0.2328
      20    H13     19.919969   17.729769   19.635206 H          1 MOL1         0.1004
      21    H14     21.244186   17.789025   20.821482 H          1 MOL1         0.1004
      22    H15     21.453647   18.520425   19.223479 H          1 MOL1         0.1004
      23    C7      19.530565   19.842900   26.585451 C.3        1 MOL1        -0.0781
      24    H16     19.178587   20.507619   25.793983 H          1 MOL1         0.0978
      25    H17     18.751746   19.729070   27.342762 H          1 MOL1         0.0978
      26    H18     20.432370   20.255476   27.042951 H          1 MOL1         0.0978
@<TRIPOS>BOND
    1     1     2    1
    2     1     3    1
    3     1     4    1
    4     4     5    1
    5     4     6    1
    6     4     7    1
    7     7     8    1
    8     7     9    1
    9     7    10    1
   10    10    11    1
   11    10    12    1
   12    10    13    1
   13    13    14    1
   14    13    15    1
   15    13    16    1
   16    16    17    1
   17    16    18    1
   18    16    19    1
   19    19    20    1
   20    19    21    1
   21    19    22    1
   22     1    23    1
   23    23    24    1
   24    23    25    1
   25    23    26    1
@<TRIPOS>SUBSTRUCTURE
       1 MOL1            1 RESIDUE      1      MOL     
@<SCITEGIC>MOL_PROPERTY
VM2 Rank
SciTegic.value.IntegerValue
87

@<SCITEGIC>MOL_PROPERTY
Conf_Id
SciTegic.value.IntegerValue
1590

@<SCITEGIC>MOL_PROPERTY
Probability
SciTegic.value.DoubleValue
0.24

@<SCITEGIC>MOL_PROPERTY
Sum Probability
SciTegic.value.DoubleValue
95.05

@<SCITEGIC>MOL_PROPERTY
Delta G
SciTegic.value.DoubleValue
1.997

@<SCITEGIC>MOL_PROPERTY
G
SciTegic.value.DoubleValue
77.464

@<SCITEGIC>MOL_PROPERTY
E
SciTegic.value.DoubleValue
44.575

@<SCITEGIC>MOL_PROPERTY
-TS
SciTegic.value.DoubleValue
32.888

@<SCITEGIC>MOL_PROPERTY
U+W
SciTegic.value.DoubleValue
23.114

@<SCITEGIC>MOL_PROPERTY
U
SciTegic.value.DoubleValue
72.739

@<SCITEGIC>MOL_PROPERTY
W
SciTegic.value.DoubleValue
-49.625

@<SCITEGIC>MOL_PROPERTY
W(PB)
SciTegic.value.DoubleValue
-51.868

@<SCITEGIC>MOL_PROPERTY
W(SA)
SciTegic.value.DoubleValue
2.243

@<SCITEGIC>MOL_PROPERTY
Valence
SciTegic.value.DoubleValue
3.076

@<SCITEGIC>MOL_PROPERTY
Coulomb
SciTegic.value.DoubleValue
69.128

@<SCITEGIC>MOL_PROPERTY
VdW
SciTegic.value.DoubleValue
0.535

@<SCITEGIC>MOL_PROPERTY
VdW6
SciTegic.value.DoubleValue
-8.276

@<SCITEGIC>MOL_PROPERTY
VdW12
SciTegic.value.DoubleValue
8.810

@<SCITEGIC>MOL_PROPERTY
Bond
SciTegic.value.DoubleValue
0.270

@<SCITEGIC>MOL_PROPERTY
Angle
SciTegic.value.DoubleValue
1.278

@<SCITEGIC>MOL_PROPERTY
Pdih
SciTegic.value.DoubleValue
1.529

@<SCITEGIC>MOL_PROPERTY
Idih
SciTegic.value.DoubleValue
0.000

@<SCITEGIC>MOL_PROPERTY
Tether
SciTegic.value.DoubleValue
0.000

@<TRIPOS>MOLECULE
guest-s12_vm2.mol2 : vm2 ligand conformer 88
          26          25           1
SMALL
USER_CHARGES
 
@<TRIPOS>ATOM
       1    N1      20.044129   18.229561   25.499321 N.4        1 MOL1        -0.4857
       2    H1      20.530354   17.370818   25.802348 H          1 MOL1         0.3650
       3    H2      19.221935   17.902589   24.970488 H          1 MOL1         0.3650
       4    C1      20.956436   19.039792   24.592210 C.3        1 MOL1         0.0209
       5    H3      21.349615   18.359995   23.832280 H          1 MOL1         0.0967
       6    H4      21.797486   19.391098   25.195239 H          1 MOL1         0.0967
       7    C2      20.283045   20.241434   23.891952 C.3        1 MOL1        -0.1378
       8    H5      19.961123   20.970119   24.646989 H          1 MOL1         0.0993
       9    H6      21.034192   20.760684   23.283455 H          1 MOL1         0.0993
      10    C3      19.069342   19.855471   23.006161 C.3        1 MOL1        -0.1338
      11    H7      18.683678   20.762013   22.519708 H          1 MOL1         0.0993
      12    H8      18.254357   19.494440   23.647897 H          1 MOL1         0.0993
      13    C4      19.365405   18.786597   21.922191 C.3        1 MOL1        -0.1338
      14    H9      19.664492   17.841798   22.395069 H          1 MOL1         0.0993
      15    H10     18.432083   18.572564   21.383224 H          1 MOL1         0.0993
      16    C5      20.444528   19.222532   20.903030 C.3        1 MOL1        -0.1313
      17    H11     21.406214   19.374643   21.410916 H          1 MOL1         0.0993
      18    H12     20.164469   20.186474   20.455670 H          1 MOL1         0.0993
      19    C6      20.629079   18.173894   19.785431 C.3        1 MOL1        -0.2328
      20    H13     21.399123   18.497763   19.073293 H          1 MOL1         0.1004
      21    H14     19.696215   18.023314   19.226629 H          1 MOL1         0.1004
      22    H15     20.939441   17.205837   20.199815 H          1 MOL1         0.1004
      23    C7      19.616036   19.040718   26.716706 C.3        1 MOL1        -0.0781
      24    H16     19.050636   19.914786   26.387370 H          1 MOL1         0.0978
      25    H17     18.988987   18.418022   27.358634 H          1 MOL1         0.0978
      26    H18     20.504670   19.359071   27.266010 H          1 MOL1         0.0978
@<TRIPOS>BOND
    1     1     2    1
    2     1     3    1
    3     1     4    1
    4     4     5    1
    5     4     6    1
    6     4     7    1
    7     7     8    1
    8     7     9    1
    9     7    10    1
   10    10    11    1
   11    10    12    1
   12    10    13    1
   13    13    14    1
   14    13    15    1
   15    13    16    1
   16    16    17    1
   17    16    18    1
   18    16    19    1
   19    19    20    1
   20    19    21    1
   21    19    22    1
   22     1    23    1
   23    23    24    1
   24    23    25    1
   25    23    26    1
@<TRIPOS>SUBSTRUCTURE
       1 MOL1            1 RESIDUE      1      MOL     
@<SCITEGIC>MOL_PROPERTY
VM2 Rank
SciTegic.value.IntegerValue
88

@<SCITEGIC>MOL_PROPERTY
Conf_Id
SciTegic.value.IntegerValue
1046

@<SCITEGIC>MOL_PROPERTY
Probability
SciTegic.value.DoubleValue
0.23

@<SCITEGIC>MOL_PROPERTY
Sum Probability
SciTegic.value.DoubleValue
95.28

@<SCITEGIC>MOL_PROPERTY
Delta G
SciTegic.value.DoubleValue
2.012

@<SCITEGIC>MOL_PROPERTY
G
SciTegic.value.DoubleValue
77.478

@<SCITEGIC>MOL_PROPERTY
E
SciTegic.value.DoubleValue
44.553

@<SCITEGIC>MOL_PROPERTY
-TS
SciTegic.value.DoubleValue
32.926

@<SCITEGIC>MOL_PROPERTY
U+W
SciTegic.value.DoubleValue
23.091

@<SCITEGIC>MOL_PROPERTY
U
SciTegic.value.DoubleValue
72.939

@<SCITEGIC>MOL_PROPERTY
W
SciTegic.value.DoubleValue
-49.849

@<SCITEGIC>MOL_PROPERTY
W(PB)
SciTegic.value.DoubleValue
-52.092

@<SCITEGIC>MOL_PROPERTY
W(SA)
SciTegic.value.DoubleValue
2.244

@<SCITEGIC>MOL_PROPERTY
Valence
SciTegic.value.DoubleValue
2.864

@<SCITEGIC>MOL_PROPERTY
Coulomb
SciTegic.value.DoubleValue
69.814

@<SCITEGIC>MOL_PROPERTY
VdW
SciTegic.value.DoubleValue
0.261

@<SCITEGIC>MOL_PROPERTY
VdW6
SciTegic.value.DoubleValue
-8.512

@<SCITEGIC>MOL_PROPERTY
VdW12
SciTegic.value.DoubleValue
8.773

@<SCITEGIC>MOL_PROPERTY
Bond
SciTegic.value.DoubleValue
0.254

@<SCITEGIC>MOL_PROPERTY
Angle
SciTegic.value.DoubleValue
1.081

@<SCITEGIC>MOL_PROPERTY
Pdih
SciTegic.value.DoubleValue
1.529

@<SCITEGIC>MOL_PROPERTY
Idih
SciTegic.value.DoubleValue
0.000

@<SCITEGIC>MOL_PROPERTY
Tether
SciTegic.value.DoubleValue
0.000

@<TRIPOS>MOLECULE
guest-s12_vm2.mol2 : vm2 ligand conformer 89
          26          25           1
SMALL
USER_CHARGES
 
@<TRIPOS>ATOM
       1    N1      20.072586   18.232447   25.500267 N.4        1 MOL1        -0.4857
       2    H1      20.978716   18.081221   25.032677 H          1 MOL1         0.3650
       3    H2      19.748887   17.291346   25.774541 H          1 MOL1         0.3650
       4    C1      19.081872   18.849247   24.525758 C.3        1 MOL1         0.0209
       5    H3      18.147247   19.020024   25.065888 H          1 MOL1         0.0967
       6    H4      18.887563   18.109749   23.744993 H          1 MOL1         0.0967
       7    C2      19.547357   20.166687   23.865888 C.3        1 MOL1        -0.1378
       8    H5      18.751681   20.528688   23.202589 H          1 MOL1         0.0993
       9    H6      19.662543   20.939792   24.636434 H          1 MOL1         0.0993
      10    C3      20.872875   20.038896   23.070063 C.3        1 MOL1        -0.1338
      11    H7      21.696807   19.844546   23.769871 H          1 MOL1         0.0993
      12    H8      21.101519   21.007889   22.605341 H          1 MOL1         0.0993
      13    C4      20.874413   18.940035   21.975695 C.3        1 MOL1        -0.1338
      14    H9      21.867126   18.921825   21.504977 H          1 MOL1         0.0993
      15    H10     20.738983   17.951069   22.433207 H          1 MOL1         0.0993
      16    C5      19.803792   19.157355   20.880352 C.3        1 MOL1        -0.1313
      17    H11     19.914984   20.161075   20.446845 H          1 MOL1         0.0993
      18    H12     18.797989   19.109412   21.318517 H          1 MOL1         0.0993
      19    C6      19.912590   18.101001   19.760082 C.3        1 MOL1        -0.2328
      20    H13     20.893503   18.144998   19.269119 H          1 MOL1         0.1004
      21    H14     19.145004   18.268522   18.993436 H          1 MOL1         0.1004
      22    H15     19.774901   17.087392   20.158593 H          1 MOL1         0.1004
      23    C7      20.242514   19.104332   26.738895 C.3        1 MOL1        -0.0781
      24    H16     20.935216   18.615690   27.427665 H          1 MOL1         0.0978
      25    H17     20.642526   20.076480   26.443850 H          1 MOL1         0.0978
      26    H18     19.271730   19.233779   27.222193 H          1 MOL1         0.0978
@<TRIPOS>BOND
    1     1     2    1
    2     1     3    1
    3     1     4    1
    4     4     5    1
    5     4     6    1
    6     4     7    1
    7     7     8    1
    8     7     9    1
    9     7    10    1
   10    10    11    1
   11    10    12    1
   12    10    13    1
   13    13    14    1
   14    13    15    1
   15    13    16    1
   16    16    17    1
   17    16    18    1
   18    16    19    1
   19    19    20    1
   20    19    21    1
   21    19    22    1
   22     1    23    1
   23    23    24    1
   24    23    25    1
   25    23    26    1
@<TRIPOS>SUBSTRUCTURE
       1 MOL1            1 RESIDUE      1      MOL     
@<SCITEGIC>MOL_PROPERTY
VM2 Rank
SciTegic.value.IntegerValue
89

@<SCITEGIC>MOL_PROPERTY
Conf_Id
SciTegic.value.IntegerValue
1629

@<SCITEGIC>MOL_PROPERTY
Probability
SciTegic.value.DoubleValue
0.23

@<SCITEGIC>MOL_PROPERTY
Sum Probability
SciTegic.value.DoubleValue
95.50

@<SCITEGIC>MOL_PROPERTY
Delta G
SciTegic.value.DoubleValue
2.021

@<SCITEGIC>MOL_PROPERTY
G
SciTegic.value.DoubleValue
77.487

@<SCITEGIC>MOL_PROPERTY
E
SciTegic.value.DoubleValue
44.562

@<SCITEGIC>MOL_PROPERTY
-TS
SciTegic.value.DoubleValue
32.926

@<SCITEGIC>MOL_PROPERTY
U+W
SciTegic.value.DoubleValue
23.100

@<SCITEGIC>MOL_PROPERTY
U
SciTegic.value.DoubleValue
72.940

@<SCITEGIC>MOL_PROPERTY
W
SciTegic.value.DoubleValue
-49.840

@<SCITEGIC>MOL_PROPERTY
W(PB)
SciTegic.value.DoubleValue
-52.062

@<SCITEGIC>MOL_PROPERTY
W(SA)
SciTegic.value.DoubleValue
2.222

@<SCITEGIC>MOL_PROPERTY
Valence
SciTegic.value.DoubleValue
2.864

@<SCITEGIC>MOL_PROPERTY
Coulomb
SciTegic.value.DoubleValue
69.814

@<SCITEGIC>MOL_PROPERTY
VdW
SciTegic.value.DoubleValue
0.261

@<SCITEGIC>MOL_PROPERTY
VdW6
SciTegic.value.DoubleValue
-8.512

@<SCITEGIC>MOL_PROPERTY
VdW12
SciTegic.value.DoubleValue
8.773

@<SCITEGIC>MOL_PROPERTY
Bond
SciTegic.value.DoubleValue
0.254

@<SCITEGIC>MOL_PROPERTY
Angle
SciTegic.value.DoubleValue
1.081

@<SCITEGIC>MOL_PROPERTY
Pdih
SciTegic.value.DoubleValue
1.530

@<SCITEGIC>MOL_PROPERTY
Idih
SciTegic.value.DoubleValue
0.000

@<SCITEGIC>MOL_PROPERTY
Tether
SciTegic.value.DoubleValue
0.000

@<TRIPOS>MOLECULE
guest-s12_vm2.mol2 : vm2 ligand conformer 90
          26          25           1
SMALL
USER_CHARGES
 
@<TRIPOS>ATOM
       1    N1      20.624579   19.644098   25.588064 N.4        1 MOL1        -0.4857
       2    H1      20.734448   20.305321   24.804835 H          1 MOL1         0.3650
       3    H2      21.496700   19.724981   26.134514 H          1 MOL1         0.3650
       4    C1      20.485608   18.226783   25.055426 C.3        1 MOL1         0.0209
       5    H3      20.352832   17.561802   25.912528 H          1 MOL1         0.0967
       6    H4      21.430510   17.965056   24.573265 H          1 MOL1         0.0967
       7    C2      19.329723   18.013201   24.051646 C.3        1 MOL1        -0.1378
       8    H5      19.332377   16.962541   23.732756 H          1 MOL1         0.0993
       9    H6      18.371086   18.170230   24.562734 H          1 MOL1         0.0993
      10    C3      19.397593   18.926219   22.801403 C.3        1 MOL1        -0.1338
      11    H7      19.315777   19.978781   23.103563 H          1 MOL1         0.0993
      12    H8      18.516902   18.717863   22.180227 H          1 MOL1         0.0993
      13    C4      20.684330   18.718078   21.962529 C.3        1 MOL1        -0.1338
      14    H9      21.566934   18.896707   22.590515 H          1 MOL1         0.0993
      15    H10     20.746339   17.671493   21.633858 H          1 MOL1         0.0993
      16    C5      20.774417   19.651690   20.730873 C.3        1 MOL1        -0.1313
      17    H11     21.759579   19.520683   20.261624 H          1 MOL1         0.0993
      18    H12     20.726201   20.700786   21.054627 H          1 MOL1         0.0993
      19    C6      19.680865   19.383443   19.671706 C.3        1 MOL1        -0.2328
      20    H13     19.849360   20.002303   18.780896 H          1 MOL1         0.1004
      21    H14     18.680812   19.622817   20.053576 H          1 MOL1         0.1004
      22    H15     19.686472   18.332308   19.355365 H          1 MOL1         0.1004
      23    C7      19.430885   20.026488   26.455352 C.3        1 MOL1        -0.0781
      24    H16     18.521639   19.995592   25.851615 H          1 MOL1         0.0978
      25    H17     19.349604   19.320688   27.284810 H          1 MOL1         0.0978
      26    H18     19.580054   21.036434   26.843651 H          1 MOL1         0.0978
@<TRIPOS>BOND
    1     1     2    1
    2     1     3    1
    3     1     4    1
    4     4     5    1
    5     4     6    1
    6     4     7    1
    7     7     8    1
    8     7     9    1
    9     7    10    1
   10    10    11    1
   11    10    12    1
   12    10    13    1
   13    13    14    1
   14    13    15    1
   15    13    16    1
   16    16    17    1
   17    16    18    1
   18    16    19    1
   19    19    20    1
   20    19    21    1
   21    19    22    1
   22     1    23    1
   23    23    24    1
   24    23    25    1
   25    23    26    1
@<TRIPOS>SUBSTRUCTURE
       1 MOL1            1 RESIDUE      1      MOL     
@<SCITEGIC>MOL_PROPERTY
VM2 Rank
SciTegic.value.IntegerValue
90

@<SCITEGIC>MOL_PROPERTY
Conf_Id
SciTegic.value.IntegerValue
1015

@<SCITEGIC>MOL_PROPERTY
Probability
SciTegic.value.DoubleValue
0.21

@<SCITEGIC>MOL_PROPERTY
Sum Probability
SciTegic.value.DoubleValue
95.71

@<SCITEGIC>MOL_PROPERTY
Delta G
SciTegic.value.DoubleValue
2.068

@<SCITEGIC>MOL_PROPERTY
G
SciTegic.value.DoubleValue
77.535

@<SCITEGIC>MOL_PROPERTY
E
SciTegic.value.DoubleValue
44.759

@<SCITEGIC>MOL_PROPERTY
-TS
SciTegic.value.DoubleValue
32.776

@<SCITEGIC>MOL_PROPERTY
U+W
SciTegic.value.DoubleValue
23.297

@<SCITEGIC>MOL_PROPERTY
U
SciTegic.value.DoubleValue
73.041

@<SCITEGIC>MOL_PROPERTY
W
SciTegic.value.DoubleValue
-49.744

@<SCITEGIC>MOL_PROPERTY
W(PB)
SciTegic.value.DoubleValue
-51.968

@<SCITEGIC>MOL_PROPERTY
W(SA)
SciTegic.value.DoubleValue
2.224

@<SCITEGIC>MOL_PROPERTY
Valence
SciTegic.value.DoubleValue
2.938

@<SCITEGIC>MOL_PROPERTY
Coulomb
SciTegic.value.DoubleValue
69.625

@<SCITEGIC>MOL_PROPERTY
VdW
SciTegic.value.DoubleValue
0.478

@<SCITEGIC>MOL_PROPERTY
VdW6
SciTegic.value.DoubleValue
-8.181

@<SCITEGIC>MOL_PROPERTY
VdW12
SciTegic.value.DoubleValue
8.660

@<SCITEGIC>MOL_PROPERTY
Bond
SciTegic.value.DoubleValue
0.253

@<SCITEGIC>MOL_PROPERTY
Angle
SciTegic.value.DoubleValue
1.038

@<SCITEGIC>MOL_PROPERTY
Pdih
SciTegic.value.DoubleValue
1.647

@<SCITEGIC>MOL_PROPERTY
Idih
SciTegic.value.DoubleValue
0.000

@<SCITEGIC>MOL_PROPERTY
Tether
SciTegic.value.DoubleValue
0.000

@<TRIPOS>MOLECULE
guest-s12_vm2.mol2 : vm2 ligand conformer 91
          26          25           1
SMALL
USER_CHARGES
 
@<TRIPOS>ATOM
       1    N1      19.213841   19.498681   25.537911 N.4        1 MOL1        -0.4857
       2    H1      18.307563   19.396372   26.021580 H          1 MOL1         0.3650
       3    H2      19.026505   20.129067   24.744028 H          1 MOL1         0.3650
       4    C1      19.675485   18.143151   25.026811 C.3        1 MOL1         0.0209
       5    H3      18.839793   17.697846   24.481699 H          1 MOL1         0.0967
       6    H4      19.880609   17.513156   25.895996 H          1 MOL1         0.0967
       7    C2      20.917979   18.176514   24.107923 C.3        1 MOL1        -0.1378
       8    H5      21.786454   18.521579   24.683716 H          1 MOL1         0.0993
       9    H6      21.151467   17.149635   23.797135 H          1 MOL1         0.0993
      10    C3      20.753427   19.065706   22.849521 C.3        1 MOL1        -0.1338
      11    H7      21.699281   19.045237   22.292899 H          1 MOL1         0.0993
      12    H8      20.598260   20.110704   23.149165 H          1 MOL1         0.0993
      13    C4      19.597668   18.606459   21.924296 C.3        1 MOL1        -0.1338
      14    H9      19.772751   17.571503   21.599611 H          1 MOL1         0.0993
      15    H10     18.655501   18.597487   22.487773 H          1 MOL1         0.0993
      16    C5      19.406042   19.511128   20.682696 C.3        1 MOL1        -0.1313
      17    H11     19.217503   20.545811   21.001488 H          1 MOL1         0.0993
      18    H12     18.503210   19.186161   20.146791 H          1 MOL1         0.0993
      19    C6      20.602474   19.478117   19.704376 C.3        1 MOL1        -0.2328
      20    H13     20.374440   20.056297   18.799595 H          1 MOL1         0.1004
      21    H14     20.832458   18.450041   19.395905 H          1 MOL1         0.1004
      22    H15     21.503973   19.912754   20.153398 H          1 MOL1         0.1004
      23    C7      20.241084   20.110244   26.483466 C.3        1 MOL1        -0.0781
      24    H16     21.177422   20.269455   25.944851 H          1 MOL1         0.0978
      25    H17     19.862546   21.065887   26.852886 H          1 MOL1         0.0978
      26    H18     20.406372   19.430072   27.321802 H          1 MOL1         0.0978
@<TRIPOS>BOND
    1     1     2    1
    2     1     3    1
    3     1     4    1
    4     4     5    1
    5     4     6    1
    6     4     7    1
    7     7     8    1
    8     7     9    1
    9     7    10    1
   10    10    11    1
   11    10    12    1
   12    10    13    1
   13    13    14    1
   14    13    15    1
   15    13    16    1
   16    16    17    1
   17    16    18    1
   18    16    19    1
   19    19    20    1
   20    19    21    1
   21    19    22    1
   22     1    23    1
   23    23    24    1
   24    23    25    1
   25    23    26    1
@<TRIPOS>SUBSTRUCTURE
       1 MOL1            1 RESIDUE      1      MOL     
@<SCITEGIC>MOL_PROPERTY
VM2 Rank
SciTegic.value.IntegerValue
91

@<SCITEGIC>MOL_PROPERTY
Conf_Id
SciTegic.value.IntegerValue
690

@<SCITEGIC>MOL_PROPERTY
Probability
SciTegic.value.DoubleValue
0.21

@<SCITEGIC>MOL_PROPERTY
Sum Probability
SciTegic.value.DoubleValue
95.92

@<SCITEGIC>MOL_PROPERTY
Delta G
SciTegic.value.DoubleValue
2.069

@<SCITEGIC>MOL_PROPERTY
G
SciTegic.value.DoubleValue
77.535

@<SCITEGIC>MOL_PROPERTY
E
SciTegic.value.DoubleValue
44.759

@<SCITEGIC>MOL_PROPERTY
-TS
SciTegic.value.DoubleValue
32.776

@<SCITEGIC>MOL_PROPERTY
U+W
SciTegic.value.DoubleValue
23.297

@<SCITEGIC>MOL_PROPERTY
U
SciTegic.value.DoubleValue
73.042

@<SCITEGIC>MOL_PROPERTY
W
SciTegic.value.DoubleValue
-49.745

@<SCITEGIC>MOL_PROPERTY
W(PB)
SciTegic.value.DoubleValue
-52.024

@<SCITEGIC>MOL_PROPERTY
W(SA)
SciTegic.value.DoubleValue
2.279

@<SCITEGIC>MOL_PROPERTY
Valence
SciTegic.value.DoubleValue
2.938

@<SCITEGIC>MOL_PROPERTY
Coulomb
SciTegic.value.DoubleValue
69.626

@<SCITEGIC>MOL_PROPERTY
VdW
SciTegic.value.DoubleValue
0.478

@<SCITEGIC>MOL_PROPERTY
VdW6
SciTegic.value.DoubleValue
-8.183

@<SCITEGIC>MOL_PROPERTY
VdW12
SciTegic.value.DoubleValue
8.661

@<SCITEGIC>MOL_PROPERTY
Bond
SciTegic.value.DoubleValue
0.253

@<SCITEGIC>MOL_PROPERTY
Angle
SciTegic.value.DoubleValue
1.038

@<SCITEGIC>MOL_PROPERTY
Pdih
SciTegic.value.DoubleValue
1.647

@<SCITEGIC>MOL_PROPERTY
Idih
SciTegic.value.DoubleValue
0.000

@<SCITEGIC>MOL_PROPERTY
Tether
SciTegic.value.DoubleValue
0.000

@<TRIPOS>MOLECULE
guest-s12_vm2.mol2 : vm2 ligand conformer 92
          26          25           1
SMALL
USER_CHARGES
 
@<TRIPOS>ATOM
       1    N1      20.413963   19.004302   26.220667 N.4        1 MOL1        -0.4857
       2    H1      21.321601   18.632071   25.902646 H          1 MOL1         0.3650
       3    H2      20.360634   18.756632   27.221407 H          1 MOL1         0.3650
       4    C1      19.274606   18.328288   25.474742 C.3        1 MOL1         0.0209
       5    H3      18.408202   18.994005   25.497009 H          1 MOL1         0.0967
       6    H4      19.017543   17.429583   26.041294 H          1 MOL1         0.0967
       7    C2      19.589323   17.903307   24.022889 C.3        1 MOL1        -0.1378
       8    H5      20.433221   17.200810   24.023879 H          1 MOL1         0.0993
       9    H6      18.724450   17.346110   23.639060 H          1 MOL1         0.0993
      10    C3      19.892906   19.084830   23.071952 C.3        1 MOL1        -0.1338
      11    H7      20.821951   19.580018   23.382952 H          1 MOL1         0.0993
      12    H8      19.088743   19.830276   23.143355 H          1 MOL1         0.0993
      13    C4      20.038432   18.619944   21.604974 C.3        1 MOL1        -0.1338
      14    H9      20.838521   17.869966   21.534868 H          1 MOL1         0.0993
      15    H10     19.111465   18.126513   21.281347 H          1 MOL1         0.0993
      16    C5      20.352075   19.797955   20.655683 C.3        1 MOL1        -0.1313
      17    H11     21.280381   20.293514   20.972933 H          1 MOL1         0.0993
      18    H12     19.553342   20.550111   20.721075 H          1 MOL1         0.0993
      19    C6      20.496240   19.330462   19.191609 C.3        1 MOL1        -0.2328
      20    H13     19.570584   18.860933   18.833976 H          1 MOL1         0.1004
      21    H14     21.311071   18.602096   19.088023 H          1 MOL1         0.1004
      22    H15     20.718699   20.180303   18.533351 H          1 MOL1         0.1004
      23    C7      20.350455   20.520911   26.074483 C.3        1 MOL1        -0.0781
      24    H16     21.171224   20.968144   26.639627 H          1 MOL1         0.0978
      25    H17     20.438664   20.793807   25.022196 H          1 MOL1         0.0978
      26    H18     19.396394   20.877842   26.468414 H          1 MOL1         0.0978
@<TRIPOS>BOND
    1     1     2    1
    2     1     3    1
    3     1     4    1
    4     4     5    1
    5     4     6    1
    6     4     7    1
    7     7     8    1
    8     7     9    1
    9     7    10    1
   10    10    11    1
   11    10    12    1
   12    10    13    1
   13    13    14    1
   14    13    15    1
   15    13    16    1
   16    16    17    1
   17    16    18    1
   18    16    19    1
   19    19    20    1
   20    19    21    1
   21    19    22    1
   22     1    23    1
   23    23    24    1
   24    23    25    1
   25    23    26    1
@<TRIPOS>SUBSTRUCTURE
       1 MOL1            1 RESIDUE      1      MOL     
@<SCITEGIC>MOL_PROPERTY
VM2 Rank
SciTegic.value.IntegerValue
92

@<SCITEGIC>MOL_PROPERTY
Conf_Id
SciTegic.value.IntegerValue
1598

@<SCITEGIC>MOL_PROPERTY
Probability
SciTegic.value.DoubleValue
0.20

@<SCITEGIC>MOL_PROPERTY
Sum Probability
SciTegic.value.DoubleValue
96.12

@<SCITEGIC>MOL_PROPERTY
Delta G
SciTegic.value.DoubleValue
2.104

@<SCITEGIC>MOL_PROPERTY
G
SciTegic.value.DoubleValue
77.570

@<SCITEGIC>MOL_PROPERTY
E
SciTegic.value.DoubleValue
45.060

@<SCITEGIC>MOL_PROPERTY
-TS
SciTegic.value.DoubleValue
32.510

@<SCITEGIC>MOL_PROPERTY
U+W
SciTegic.value.DoubleValue
23.598

@<SCITEGIC>MOL_PROPERTY
U
SciTegic.value.DoubleValue
72.879

@<SCITEGIC>MOL_PROPERTY
W
SciTegic.value.DoubleValue
-49.281

@<SCITEGIC>MOL_PROPERTY
W(PB)
SciTegic.value.DoubleValue
-51.581

@<SCITEGIC>MOL_PROPERTY
W(SA)
SciTegic.value.DoubleValue
2.300

@<SCITEGIC>MOL_PROPERTY
Valence
SciTegic.value.DoubleValue
3.733

@<SCITEGIC>MOL_PROPERTY
Coulomb
SciTegic.value.DoubleValue
68.869

@<SCITEGIC>MOL_PROPERTY
VdW
SciTegic.value.DoubleValue
0.277

@<SCITEGIC>MOL_PROPERTY
VdW6
SciTegic.value.DoubleValue
-6.946

@<SCITEGIC>MOL_PROPERTY
VdW12
SciTegic.value.DoubleValue
7.223

@<SCITEGIC>MOL_PROPERTY
Bond
SciTegic.value.DoubleValue
0.187

@<SCITEGIC>MOL_PROPERTY
Angle
SciTegic.value.DoubleValue
0.835

@<SCITEGIC>MOL_PROPERTY
Pdih
SciTegic.value.DoubleValue
2.712

@<SCITEGIC>MOL_PROPERTY
Idih
SciTegic.value.DoubleValue
0.000

@<SCITEGIC>MOL_PROPERTY
Tether
SciTegic.value.DoubleValue
0.000

@<TRIPOS>MOLECULE
guest-s12_vm2.mol2 : vm2 ligand conformer 93
          26          25           1
SMALL
USER_CHARGES
 
@<TRIPOS>ATOM
       1    N1      19.505418   18.911173   26.188559 N.4        1 MOL1        -0.4857
       2    H1      19.537711   18.672272   27.192325 H          1 MOL1         0.3650
       3    H2      18.716518   18.365069   25.810524 H          1 MOL1         0.3650
       4    C1      20.807412   18.485369   25.528989 C.3        1 MOL1         0.0209
       5    H3      21.200948   17.653331   26.118542 H          1 MOL1         0.0967
       6    H4      21.517266   19.312623   25.607029 H          1 MOL1         0.0967
       7    C2      20.687629   18.015882   24.061762 C.3        1 MOL1        -0.1378
       8    H5      21.672103   17.648122   23.743386 H          1 MOL1         0.0993
       9    H6      20.005509   17.157064   24.008740 H          1 MOL1         0.0993
      10    C3      20.218378   19.118234   23.083467 C.3        1 MOL1        -0.1338
      11    H7      20.847918   20.010547   23.205621 H          1 MOL1         0.0993
      12    H8      19.188865   19.412789   23.325122 H          1 MOL1         0.0993
      13    C4      20.273048   18.644005   21.613285 C.3        1 MOL1        -0.1338
      14    H9      21.301051   18.350785   21.358906 H          1 MOL1         0.0993
      15    H10     19.648279   17.748093   21.492751 H          1 MOL1         0.0993
      16    C5      19.794657   19.740849   20.635888 C.3        1 MOL1        -0.1313
      17    H11     20.417973   20.638663   20.751616 H          1 MOL1         0.0993
      18    H12     18.765349   20.035910   20.883766 H          1 MOL1         0.0993
      19    C6      19.851044   19.264282   19.168731 C.3        1 MOL1        -0.2328
      20    H13     19.209854   18.386780   19.013604 H          1 MOL1         0.1004
      21    H14     20.875322   18.994443   18.880214 H          1 MOL1         0.1004
      22    H15     19.507804   20.056144   18.490380 H          1 MOL1         0.1004
      23    C7      19.270415   20.410206   26.036318 C.3        1 MOL1        -0.0781
      24    H16     20.102455   20.950185   26.493425 H          1 MOL1         0.0978
      25    H17     19.202541   20.667112   24.978512 H          1 MOL1         0.0978
      26    H18     18.338598   20.677817   26.539474 H          1 MOL1         0.0978
@<TRIPOS>BOND
    1     1     2    1
    2     1     3    1
    3     1     4    1
    4     4     5    1
    5     4     6    1
    6     4     7    1
    7     7     8    1
    8     7     9    1
    9     7    10    1
   10    10    11    1
   11    10    12    1
   12    10    13    1
   13    13    14    1
   14    13    15    1
   15    13    16    1
   16    16    17    1
   17    16    18    1
   18    16    19    1
   19    19    20    1
   20    19    21    1
   21    19    22    1
   22     1    23    1
   23    23    24    1
   24    23    25    1
   25    23    26    1
@<TRIPOS>SUBSTRUCTURE
       1 MOL1            1 RESIDUE      1      MOL     
@<SCITEGIC>MOL_PROPERTY
VM2 Rank
SciTegic.value.IntegerValue
93

@<SCITEGIC>MOL_PROPERTY
Conf_Id
SciTegic.value.IntegerValue
1075

@<SCITEGIC>MOL_PROPERTY
Probability
SciTegic.value.DoubleValue
0.20

@<SCITEGIC>MOL_PROPERTY
Sum Probability
SciTegic.value.DoubleValue
96.31

@<SCITEGIC>MOL_PROPERTY
Delta G
SciTegic.value.DoubleValue
2.105

@<SCITEGIC>MOL_PROPERTY
G
SciTegic.value.DoubleValue
77.572

@<SCITEGIC>MOL_PROPERTY
E
SciTegic.value.DoubleValue
45.062

@<SCITEGIC>MOL_PROPERTY
-TS
SciTegic.value.DoubleValue
32.510

@<SCITEGIC>MOL_PROPERTY
U+W
SciTegic.value.DoubleValue
23.600

@<SCITEGIC>MOL_PROPERTY
U
SciTegic.value.DoubleValue
72.879

@<SCITEGIC>MOL_PROPERTY
W
SciTegic.value.DoubleValue
-49.278

@<SCITEGIC>MOL_PROPERTY
W(PB)
SciTegic.value.DoubleValue
-51.547

@<SCITEGIC>MOL_PROPERTY
W(SA)
SciTegic.value.DoubleValue
2.268

@<SCITEGIC>MOL_PROPERTY
Valence
SciTegic.value.DoubleValue
3.733

@<SCITEGIC>MOL_PROPERTY
Coulomb
SciTegic.value.DoubleValue
68.869

@<SCITEGIC>MOL_PROPERTY
VdW
SciTegic.value.DoubleValue
0.277

@<SCITEGIC>MOL_PROPERTY
VdW6
SciTegic.value.DoubleValue
-6.946

@<SCITEGIC>MOL_PROPERTY
VdW12
SciTegic.value.DoubleValue
7.223

@<SCITEGIC>MOL_PROPERTY
Bond
SciTegic.value.DoubleValue
0.187

@<SCITEGIC>MOL_PROPERTY
Angle
SciTegic.value.DoubleValue
0.835

@<SCITEGIC>MOL_PROPERTY
Pdih
SciTegic.value.DoubleValue
2.712

@<SCITEGIC>MOL_PROPERTY
Idih
SciTegic.value.DoubleValue
0.000

@<SCITEGIC>MOL_PROPERTY
Tether
SciTegic.value.DoubleValue
0.000

@<TRIPOS>MOLECULE
guest-s12_vm2.mol2 : vm2 ligand conformer 94
          26          25           1
SMALL
USER_CHARGES
 
@<TRIPOS>ATOM
       1    N1      20.676948   18.445423   25.339516 N.4        1 MOL1        -0.4857
       2    H1      21.264871   18.489772   24.493902 H          1 MOL1         0.3650
       3    H2      20.894703   17.534332   25.773400 H          1 MOL1         0.3650
       4    C1      19.207206   18.488027   24.952257 C.3        1 MOL1         0.0209
       5    H3      18.619929   18.458567   25.873498 H          1 MOL1         0.0967
       6    H4      18.991759   17.576777   24.389033 H          1 MOL1         0.0967
       7    C2      18.786358   19.713137   24.109115 C.3        1 MOL1        -0.1378
       8    H5      17.714438   19.632651   23.885327 H          1 MOL1         0.0993
       9    H6      18.901445   20.625655   24.708209 H          1 MOL1         0.0993
      10    C3      19.575115   19.866927   22.784570 C.3        1 MOL1        -0.1338
      11    H7      20.633856   20.047460   23.009641 H          1 MOL1         0.0993
      12    H8      19.215368   20.765783   22.265212 H          1 MOL1         0.0993
      13    C4      19.427594   18.643703   21.844482 C.3        1 MOL1        -0.1338
      14    H9      19.855594   17.748715   22.315202 H          1 MOL1         0.0993
      15    H10     18.359425   18.433762   21.695311 H          1 MOL1         0.0993
      16    C5      20.085835   18.851775   20.459200 C.3        1 MOL1        -0.1313
      17    H11     19.647307   19.731097   19.966964 H          1 MOL1         0.0993
      18    H12     19.844012   17.990460   19.820817 H          1 MOL1         0.0993
      19    C6      21.622484   19.005704   20.526856 C.3        1 MOL1        -0.2328
      20    H13     22.047439   19.060555   19.516244 H          1 MOL1         0.1004
      21    H14     22.083388   18.150525   21.037860 H          1 MOL1         0.1004
      22    H15     21.913659   19.921406   21.056073 H          1 MOL1         0.1004
      23    C7      21.026461   19.575304   26.301004 C.3        1 MOL1        -0.0781
      24    H16     20.401453   19.493332   27.192859 H          1 MOL1         0.0978
      25    H17     22.079441   19.494602   26.579815 H          1 MOL1         0.0978
      26    H18     20.848747   20.534460   25.810483 H          1 MOL1         0.0978
@<TRIPOS>BOND
    1     1     2    1
    2     1     3    1
    3     1     4    1
    4     4     5    1
    5     4     6    1
    6     4     7    1
    7     7     8    1
    8     7     9    1
    9     7    10    1
   10    10    11    1
   11    10    12    1
   12    10    13    1
   13    13    14    1
   14    13    15    1
   15    13    16    1
   16    16    17    1
   17    16    18    1
   18    16    19    1
   19    19    20    1
   20    19    21    1
   21    19    22    1
   22     1    23    1
   23    23    24    1
   24    23    25    1
   25    23    26    1
@<TRIPOS>SUBSTRUCTURE
       1 MOL1            1 RESIDUE      1      MOL     
@<SCITEGIC>MOL_PROPERTY
VM2 Rank
SciTegic.value.IntegerValue
94

@<SCITEGIC>MOL_PROPERTY
Conf_Id
SciTegic.value.IntegerValue
174

@<SCITEGIC>MOL_PROPERTY
Probability
SciTegic.value.DoubleValue
0.19

@<SCITEGIC>MOL_PROPERTY
Sum Probability
SciTegic.value.DoubleValue
96.50

@<SCITEGIC>MOL_PROPERTY
Delta G
SciTegic.value.DoubleValue
2.140

@<SCITEGIC>MOL_PROPERTY
G
SciTegic.value.DoubleValue
77.606

@<SCITEGIC>MOL_PROPERTY
E
SciTegic.value.DoubleValue
44.798

@<SCITEGIC>MOL_PROPERTY
-TS
SciTegic.value.DoubleValue
32.808

@<SCITEGIC>MOL_PROPERTY
U+W
SciTegic.value.DoubleValue
23.337

@<SCITEGIC>MOL_PROPERTY
U
SciTegic.value.DoubleValue
73.121

@<SCITEGIC>MOL_PROPERTY
W
SciTegic.value.DoubleValue
-49.785

@<SCITEGIC>MOL_PROPERTY
W(PB)
SciTegic.value.DoubleValue
-52.012

@<SCITEGIC>MOL_PROPERTY
W(SA)
SciTegic.value.DoubleValue
2.227

@<SCITEGIC>MOL_PROPERTY
Valence
SciTegic.value.DoubleValue
2.868

@<SCITEGIC>MOL_PROPERTY
Coulomb
SciTegic.value.DoubleValue
69.886

@<SCITEGIC>MOL_PROPERTY
VdW
SciTegic.value.DoubleValue
0.367

@<SCITEGIC>MOL_PROPERTY
VdW6
SciTegic.value.DoubleValue
-8.311

@<SCITEGIC>MOL_PROPERTY
VdW12
SciTegic.value.DoubleValue
8.678

@<SCITEGIC>MOL_PROPERTY
Bond
SciTegic.value.DoubleValue
0.246

@<SCITEGIC>MOL_PROPERTY
Angle
SciTegic.value.DoubleValue
0.961

@<SCITEGIC>MOL_PROPERTY
Pdih
SciTegic.value.DoubleValue
1.661

@<SCITEGIC>MOL_PROPERTY
Idih
SciTegic.value.DoubleValue
0.000

@<SCITEGIC>MOL_PROPERTY
Tether
SciTegic.value.DoubleValue
0.000

@<TRIPOS>MOLECULE
guest-s12_vm2.mol2 : vm2 ligand conformer 95
          26          25           1
SMALL
USER_CHARGES
 
@<TRIPOS>ATOM
       1    N1      20.725935   18.631211   25.843469 N.4        1 MOL1        -0.4857
       2    H1      21.604171   18.927566   26.298140 H          1 MOL1         0.3650
       3    H2      20.894683   17.657627   25.547024 H          1 MOL1         0.3650
       4    C1      20.458238   19.510551   24.633461 C.3        1 MOL1         0.0209
       5    H3      21.382648   19.548636   24.052156 H          1 MOL1         0.0967
       6    H4      20.240451   20.519792   24.991594 H          1 MOL1         0.0967
       7    C2      19.312780   19.017957   23.723785 C.3        1 MOL1        -0.1378
       8    H5      19.513066   17.987920   23.402969 H          1 MOL1         0.0993
       9    H6      18.378088   18.984928   24.297955 H          1 MOL1         0.0993
      10    C3      19.100276   19.926125   22.487025 C.3        1 MOL1        -0.1338
      11    H7      18.783621   20.921411   22.828294 H          1 MOL1         0.0993
      12    H8      18.261203   19.536038   21.895610 H          1 MOL1         0.0993
      13    C4      20.346056   20.089001   21.574558 C.3        1 MOL1        -0.1338
      14    H9      20.076364   20.731500   20.725051 H          1 MOL1         0.0993
      15    H10     21.128612   20.634583   22.118784 H          1 MOL1         0.0993
      16    C5      20.942737   18.765927   21.030508 C.3        1 MOL1        -0.1313
      17    H11     21.318023   18.149532   21.858344 H          1 MOL1         0.0993
      18    H12     21.819647   19.005238   20.412855 H          1 MOL1         0.0993
      19    C6      19.944643   17.946980   20.180806 C.3        1 MOL1        -0.2328
      20    H13     19.100219   17.590675   20.783725 H          1 MOL1         0.1004
      21    H14     20.438209   17.066198   19.750165 H          1 MOL1         0.1004
      22    H15     19.546555   18.547206   19.352447 H          1 MOL1         0.1004
      23    C7      19.577335   18.702248   26.843389 C.3        1 MOL1        -0.0781
      24    H16     18.665874   18.325368   26.375218 H          1 MOL1         0.0978
      25    H17     19.823060   18.089495   27.713575 H          1 MOL1         0.0978
      26    H18     19.434102   19.740065   27.152004 H          1 MOL1         0.0978
@<TRIPOS>BOND
    1     1     2    1
    2     1     3    1
    3     1     4    1
    4     4     5    1
    5     4     6    1
    6     4     7    1
    7     7     8    1
    8     7     9    1
    9     7    10    1
   10    10    11    1
   11    10    12    1
   12    10    13    1
   13    13    14    1
   14    13    15    1
   15    13    16    1
   16    16    17    1
   17    16    18    1
   18    16    19    1
   19    19    20    1
   20    19    21    1
   21    19    22    1
   22     1    23    1
   23    23    24    1
   24    23    25    1
   25    23    26    1
@<TRIPOS>SUBSTRUCTURE
       1 MOL1            1 RESIDUE      1      MOL     
@<SCITEGIC>MOL_PROPERTY
VM2 Rank
SciTegic.value.IntegerValue
95

@<SCITEGIC>MOL_PROPERTY
Conf_Id
SciTegic.value.IntegerValue
791

@<SCITEGIC>MOL_PROPERTY
Probability
SciTegic.value.DoubleValue
0.18

@<SCITEGIC>MOL_PROPERTY
Sum Probability
SciTegic.value.DoubleValue
96.68

@<SCITEGIC>MOL_PROPERTY
Delta G
SciTegic.value.DoubleValue
2.143

@<SCITEGIC>MOL_PROPERTY
G
SciTegic.value.DoubleValue
77.610

@<SCITEGIC>MOL_PROPERTY
E
SciTegic.value.DoubleValue
44.605

@<SCITEGIC>MOL_PROPERTY
-TS
SciTegic.value.DoubleValue
33.005

@<SCITEGIC>MOL_PROPERTY
U+W
SciTegic.value.DoubleValue
23.144

@<SCITEGIC>MOL_PROPERTY
U
SciTegic.value.DoubleValue
72.963

@<SCITEGIC>MOL_PROPERTY
W
SciTegic.value.DoubleValue
-49.820

@<SCITEGIC>MOL_PROPERTY
W(PB)
SciTegic.value.DoubleValue
-52.038

@<SCITEGIC>MOL_PROPERTY
W(SA)
SciTegic.value.DoubleValue
2.218

@<SCITEGIC>MOL_PROPERTY
Valence
SciTegic.value.DoubleValue
3.204

@<SCITEGIC>MOL_PROPERTY
Coulomb
SciTegic.value.DoubleValue
69.346

@<SCITEGIC>MOL_PROPERTY
VdW
SciTegic.value.DoubleValue
0.413

@<SCITEGIC>MOL_PROPERTY
VdW6
SciTegic.value.DoubleValue
-8.434

@<SCITEGIC>MOL_PROPERTY
VdW12
SciTegic.value.DoubleValue
8.847

@<SCITEGIC>MOL_PROPERTY
Bond
SciTegic.value.DoubleValue
0.271

@<SCITEGIC>MOL_PROPERTY
Angle
SciTegic.value.DoubleValue
1.306

@<SCITEGIC>MOL_PROPERTY
Pdih
SciTegic.value.DoubleValue
1.627

@<SCITEGIC>MOL_PROPERTY
Idih
SciTegic.value.DoubleValue
0.000

@<SCITEGIC>MOL_PROPERTY
Tether
SciTegic.value.DoubleValue
0.000

@<TRIPOS>MOLECULE
guest-s12_vm2.mol2 : vm2 ligand conformer 96
          26          25           1
SMALL
USER_CHARGES
 
@<TRIPOS>ATOM
       1    N1      19.301292   18.486669   25.792902 N.4        1 MOL1        -0.4857
       2    H1      19.352230   17.501212   25.492064 H          1 MOL1         0.3650
       3    H2      18.351883   18.597683   26.182966 H          1 MOL1         0.3650
       4    C1      19.471248   19.410640   24.598577 C.3        1 MOL1         0.0209
       5    H3      19.456510   20.440415   24.964097 H          1 MOL1         0.0967
       6    H4      18.601027   19.266752   23.953668 H          1 MOL1         0.0967
       7    C2      20.753089   19.164502   23.774846 C.3        1 MOL1        -0.1378
       8    H5      21.632843   19.315791   24.413247 H          1 MOL1         0.0993
       9    H6      20.786675   18.117514   23.448197 H          1 MOL1         0.0993
      10    C3      20.864923   20.105530   22.549504 C.3        1 MOL1        -0.1338
      11    H7      21.804595   19.896159   22.021142 H          1 MOL1         0.0993
      12    H8      20.950443   21.141717   22.904936 H          1 MOL1         0.0993
      13    C4      19.678883   20.021180   21.550859 C.3        1 MOL1        -0.1338
      14    H9      18.766493   20.394559   22.034977 H          1 MOL1         0.0993
      15    H10     19.872831   20.710714   20.717718 H          1 MOL1         0.0993
      16    C5      19.399827   18.609053   20.975903 C.3        1 MOL1        -0.1313
      17    H11     18.538223   18.671628   20.296596 H          1 MOL1         0.0993
      18    H12     19.098935   17.924028   21.779832 H          1 MOL1         0.0993
      19    C6      20.599167   18.013325   20.204182 C.3        1 MOL1        -0.2328
      20    H13     20.324071   17.054355   19.746433 H          1 MOL1         0.1004
      21    H14     21.453592   17.829775   20.867344 H          1 MOL1         0.1004
      22    H15     20.925577   18.687071   19.401409 H          1 MOL1         0.1004
      23    C7      20.339571   18.779102   26.870225 C.3        1 MOL1        -0.0781
      24    H16     20.250024   19.822299   27.180945 H          1 MOL1         0.0978
      25    H17     20.161359   18.123220   27.725286 H          1 MOL1         0.0978
      26    H18     21.338521   18.595887   26.469584 H          1 MOL1         0.0978
@<TRIPOS>BOND
    1     1     2    1
    2     1     3    1
    3     1     4    1
    4     4     5    1
    5     4     6    1
    6     4     7    1
    7     7     8    1
    8     7     9    1
    9     7    10    1
   10    10    11    1
   11    10    12    1
   12    10    13    1
   13    13    14    1
   14    13    15    1
   15    13    16    1
   16    16    17    1
   17    16    18    1
   18    16    19    1
   19    19    20    1
   20    19    21    1
   21    19    22    1
   22     1    23    1
   23    23    24    1
   24    23    25    1
   25    23    26    1
@<TRIPOS>SUBSTRUCTURE
       1 MOL1            1 RESIDUE      1      MOL     
@<SCITEGIC>MOL_PROPERTY
VM2 Rank
SciTegic.value.IntegerValue
96

@<SCITEGIC>MOL_PROPERTY
Conf_Id
SciTegic.value.IntegerValue
553

@<SCITEGIC>MOL_PROPERTY
Probability
SciTegic.value.DoubleValue
0.18

@<SCITEGIC>MOL_PROPERTY
Sum Probability
SciTegic.value.DoubleValue
96.86

@<SCITEGIC>MOL_PROPERTY
Delta G
SciTegic.value.DoubleValue
2.160

@<SCITEGIC>MOL_PROPERTY
G
SciTegic.value.DoubleValue
77.627

@<SCITEGIC>MOL_PROPERTY
E
SciTegic.value.DoubleValue
44.622

@<SCITEGIC>MOL_PROPERTY
-TS
SciTegic.value.DoubleValue
33.005

@<SCITEGIC>MOL_PROPERTY
U+W
SciTegic.value.DoubleValue
23.160

@<SCITEGIC>MOL_PROPERTY
U
SciTegic.value.DoubleValue
72.963

@<SCITEGIC>MOL_PROPERTY
W
SciTegic.value.DoubleValue
-49.803

@<SCITEGIC>MOL_PROPERTY
W(PB)
SciTegic.value.DoubleValue
-52.050

@<SCITEGIC>MOL_PROPERTY
W(SA)
SciTegic.value.DoubleValue
2.247

@<SCITEGIC>MOL_PROPERTY
Valence
SciTegic.value.DoubleValue
3.204

@<SCITEGIC>MOL_PROPERTY
Coulomb
SciTegic.value.DoubleValue
69.346

@<SCITEGIC>MOL_PROPERTY
VdW
SciTegic.value.DoubleValue
0.414

@<SCITEGIC>MOL_PROPERTY
VdW6
SciTegic.value.DoubleValue
-8.434

@<SCITEGIC>MOL_PROPERTY
VdW12
SciTegic.value.DoubleValue
8.848

@<SCITEGIC>MOL_PROPERTY
Bond
SciTegic.value.DoubleValue
0.271

@<SCITEGIC>MOL_PROPERTY
Angle
SciTegic.value.DoubleValue
1.306

@<SCITEGIC>MOL_PROPERTY
Pdih
SciTegic.value.DoubleValue
1.627

@<SCITEGIC>MOL_PROPERTY
Idih
SciTegic.value.DoubleValue
0.000

@<SCITEGIC>MOL_PROPERTY
Tether
SciTegic.value.DoubleValue
0.000

@<TRIPOS>MOLECULE
guest-s12_vm2.mol2 : vm2 ligand conformer 97
          26          25           1
SMALL
USER_CHARGES
 
@<TRIPOS>ATOM
       1    N1      19.422491   18.317594   25.295179 N.4        1 MOL1        -0.4857
       2    H1      19.362948   17.378237   25.719233 H          1 MOL1         0.3650
       3    H2      18.898339   18.248622   24.410199 H          1 MOL1         0.3650
       4    C1      20.876928   18.658214   25.011426 C.3        1 MOL1         0.0209
       5    H3      21.310442   17.813093   24.471194 H          1 MOL1         0.0967
       6    H4      21.392155   18.741142   25.971693 H          1 MOL1         0.0967
       7    C2      21.100237   19.948959   24.191059 C.3        1 MOL1        -0.1378
       8    H5      20.761970   20.815282   24.774072 H          1 MOL1         0.0993
       9    H6      22.179367   20.087726   24.043436 H          1 MOL1         0.0993
      10    C3      20.391376   19.950058   22.813480 C.3        1 MOL1        -0.1338
      11    H7      20.598003   20.906673   22.314193 H          1 MOL1         0.0993
      12    H8      19.304870   19.911841   22.962569 H          1 MOL1         0.0993
      13    C4      20.847915   18.788443   21.894772 C.3        1 MOL1        -0.1338
      14    H9      21.944250   18.799155   21.822342 H          1 MOL1         0.0993
      15    H10     20.577145   17.822210   22.340690 H          1 MOL1         0.0993
      16    C5      20.260002   18.869534   20.465310 C.3        1 MOL1        -0.1313
      17    H11     20.714546   18.079200   19.851601 H          1 MOL1         0.0993
      18    H12     20.545768   19.822681   19.998771 H          1 MOL1         0.0993
      19    C6      18.722970   18.710215   20.423991 C.3        1 MOL1        -0.2328
      20    H13     18.409158   17.776099   20.907559 H          1 MOL1         0.1004
      21    H14     18.367583   18.685508   19.385713 H          1 MOL1         0.1004
      22    H15     18.216911   19.544688   20.924915 H          1 MOL1         0.1004
      23    C7      18.786080   19.346982   26.221784 C.3        1 MOL1        -0.0781
      24    H16     17.754043   19.053850   26.426690 H          1 MOL1         0.0978
      25    H17     19.350739   19.386170   27.155801 H          1 MOL1         0.0978
      26    H18     18.800877   20.325776   25.738135 H          1 MOL1         0.0978
@<TRIPOS>BOND
    1     1     2    1
    2     1     3    1
    3     1     4    1
    4     4     5    1
    5     4     6    1
    6     4     7    1
    7     7     8    1
    8     7     9    1
    9     7    10    1
   10    10    11    1
   11    10    12    1
   12    10    13    1
   13    13    14    1
   14    13    15    1
   15    13    16    1
   16    16    17    1
   17    16    18    1
   18    16    19    1
   19    19    20    1
   20    19    21    1
   21    19    22    1
   22     1    23    1
   23    23    24    1
   24    23    25    1
   25    23    26    1
@<TRIPOS>SUBSTRUCTURE
       1 MOL1            1 RESIDUE      1      MOL     
@<SCITEGIC>MOL_PROPERTY
VM2 Rank
SciTegic.value.IntegerValue
97

@<SCITEGIC>MOL_PROPERTY
Conf_Id
SciTegic.value.IntegerValue
512

@<SCITEGIC>MOL_PROPERTY
Probability
SciTegic.value.DoubleValue
0.18

@<SCITEGIC>MOL_PROPERTY
Sum Probability
SciTegic.value.DoubleValue
97.04

@<SCITEGIC>MOL_PROPERTY
Delta G
SciTegic.value.DoubleValue
2.171

@<SCITEGIC>MOL_PROPERTY
G
SciTegic.value.DoubleValue
77.637

@<SCITEGIC>MOL_PROPERTY
E
SciTegic.value.DoubleValue
44.830

@<SCITEGIC>MOL_PROPERTY
-TS
SciTegic.value.DoubleValue
32.808

@<SCITEGIC>MOL_PROPERTY
U+W
SciTegic.value.DoubleValue
23.368

@<SCITEGIC>MOL_PROPERTY
U
SciTegic.value.DoubleValue
73.121

@<SCITEGIC>MOL_PROPERTY
W
SciTegic.value.DoubleValue
-49.754

@<SCITEGIC>MOL_PROPERTY
W(PB)
SciTegic.value.DoubleValue
-51.988

@<SCITEGIC>MOL_PROPERTY
W(SA)
SciTegic.value.DoubleValue
2.234

@<SCITEGIC>MOL_PROPERTY
Valence
SciTegic.value.DoubleValue
2.869

@<SCITEGIC>MOL_PROPERTY
Coulomb
SciTegic.value.DoubleValue
69.885

@<SCITEGIC>MOL_PROPERTY
VdW
SciTegic.value.DoubleValue
0.367

@<SCITEGIC>MOL_PROPERTY
VdW6
SciTegic.value.DoubleValue
-8.311

@<SCITEGIC>MOL_PROPERTY
VdW12
SciTegic.value.DoubleValue
8.678

@<SCITEGIC>MOL_PROPERTY
Bond
SciTegic.value.DoubleValue
0.246

@<SCITEGIC>MOL_PROPERTY
Angle
SciTegic.value.DoubleValue
0.961

@<SCITEGIC>MOL_PROPERTY
Pdih
SciTegic.value.DoubleValue
1.661

@<SCITEGIC>MOL_PROPERTY
Idih
SciTegic.value.DoubleValue
0.000

@<SCITEGIC>MOL_PROPERTY
Tether
SciTegic.value.DoubleValue
0.000

@<TRIPOS>MOLECULE
guest-s12_vm2.mol2 : vm2 ligand conformer 98
          26          25           1
SMALL
USER_CHARGES
 
@<TRIPOS>ATOM
       1    N1      20.506237   18.911530   26.197974 N.4        1 MOL1        -0.4857
       2    H1      21.466209   18.575946   26.024991 H          1 MOL1         0.3650
       3    H2      20.323585   18.683485   27.188119 H          1 MOL1         0.3650
       4    C1      19.516822   18.152169   25.324368 C.3        1 MOL1         0.0209
       5    H3      18.516230   18.553678   25.502726 H          1 MOL1         0.0967
       6    H4      19.527716   17.119760   25.683252 H          1 MOL1         0.0967
       7    C2      19.822830   18.133301   23.809650 C.3        1 MOL1        -0.1378
       8    H5      20.908006   18.089274   23.654347 H          1 MOL1         0.0993
       9    H6      19.412505   17.202017   23.397405 H          1 MOL1         0.0993
      10    C3      19.197792   19.324518   23.039616 C.3        1 MOL1        -0.1338
      11    H7      19.653890   20.269992   23.354951 H          1 MOL1         0.0993
      12    H8      18.132456   19.395863   23.299045 H          1 MOL1         0.0993
      13    C4      19.319941   19.194575   21.501258 C.3        1 MOL1        -0.1338
      14    H9      18.839777   18.263460   21.169938 H          1 MOL1         0.0993
      15    H10     18.754601   20.014173   21.036414 H          1 MOL1         0.0993
      16    C5      20.780253   19.238842   20.991854 C.3        1 MOL1        -0.1313
      17    H11     21.345493   18.383662   21.385492 H          1 MOL1         0.0993
      18    H12     21.275821   20.146530   21.363729 H          1 MOL1         0.0993
      19    C6      20.846412   19.215534   19.449768 C.3        1 MOL1        -0.2328
      20    H13     20.384817   18.303794   19.048694 H          1 MOL1         0.1004
      21    H14     21.888491   19.244651   19.105914 H          1 MOL1         0.1004
      22    H15     20.325679   20.080445   19.018548 H          1 MOL1         0.1004
      23    C7      20.417712   20.419531   26.002512 C.3        1 MOL1        -0.0781
      24    H16     19.382839   20.740657   26.139184 H          1 MOL1         0.0978
      25    H17     21.057077   20.911473   26.738903 H          1 MOL1         0.0978
      26    H18     20.760596   20.673853   24.998680 H          1 MOL1         0.0978
@<TRIPOS>BOND
    1     1     2    1
    2     1     3    1
    3     1     4    1
    4     4     5    1
    5     4     6    1
    6     4     7    1
    7     7     8    1
    8     7     9    1
    9     7    10    1
   10    10    11    1
   11    10    12    1
   12    10    13    1
   13    13    14    1
   14    13    15    1
   15    13    16    1
   16    16    17    1
   17    16    18    1
   18    16    19    1
   19    19    20    1
   20    19    21    1
   21    19    22    1
   22     1    23    1
   23    23    24    1
   24    23    25    1
   25    23    26    1
@<TRIPOS>SUBSTRUCTURE
       1 MOL1            1 RESIDUE      1      MOL     
@<SCITEGIC>MOL_PROPERTY
VM2 Rank
SciTegic.value.IntegerValue
98

@<SCITEGIC>MOL_PROPERTY
Conf_Id
SciTegic.value.IntegerValue
277

@<SCITEGIC>MOL_PROPERTY
Probability
SciTegic.value.DoubleValue
0.15

@<SCITEGIC>MOL_PROPERTY
Sum Probability
SciTegic.value.DoubleValue
97.19

@<SCITEGIC>MOL_PROPERTY
Delta G
SciTegic.value.DoubleValue
2.275

@<SCITEGIC>MOL_PROPERTY
G
SciTegic.value.DoubleValue
77.742

@<SCITEGIC>MOL_PROPERTY
E
SciTegic.value.DoubleValue
45.736

@<SCITEGIC>MOL_PROPERTY
-TS
SciTegic.value.DoubleValue
32.006

@<SCITEGIC>MOL_PROPERTY
U+W
SciTegic.value.DoubleValue
24.274

@<SCITEGIC>MOL_PROPERTY
U
SciTegic.value.DoubleValue
73.883

@<SCITEGIC>MOL_PROPERTY
W
SciTegic.value.DoubleValue
-49.610

@<SCITEGIC>MOL_PROPERTY
W(PB)
SciTegic.value.DoubleValue
-51.834

@<SCITEGIC>MOL_PROPERTY
W(SA)
SciTegic.value.DoubleValue
2.224

@<SCITEGIC>MOL_PROPERTY
Valence
SciTegic.value.DoubleValue
4.358

@<SCITEGIC>MOL_PROPERTY
Coulomb
SciTegic.value.DoubleValue
69.048

@<SCITEGIC>MOL_PROPERTY
VdW
SciTegic.value.DoubleValue
0.477

@<SCITEGIC>MOL_PROPERTY
VdW6
SciTegic.value.DoubleValue
-7.515

@<SCITEGIC>MOL_PROPERTY
VdW12
SciTegic.value.DoubleValue
7.992

@<SCITEGIC>MOL_PROPERTY
Bond
SciTegic.value.DoubleValue
0.237

@<SCITEGIC>MOL_PROPERTY
Angle
SciTegic.value.DoubleValue
1.263

@<SCITEGIC>MOL_PROPERTY
Pdih
SciTegic.value.DoubleValue
2.857

@<SCITEGIC>MOL_PROPERTY
Idih
SciTegic.value.DoubleValue
0.000

@<SCITEGIC>MOL_PROPERTY
Tether
SciTegic.value.DoubleValue
0.000

@<TRIPOS>MOLECULE
guest-s12_vm2.mol2 : vm2 ligand conformer 99
          26          25           1
SMALL
USER_CHARGES
 
@<TRIPOS>ATOM
       1    N1      19.435343   18.801390   26.159915 N.4        1 MOL1        -0.4857
       2    H1      19.589979   18.606276   27.161799 H          1 MOL1         0.3650
       3    H2      18.577278   18.280888   25.921412 H          1 MOL1         0.3650
       4    C1      20.616544   18.264358   25.362970 C.3        1 MOL1         0.0209
       5    H3      20.789415   17.248343   25.727135 H          1 MOL1         0.0967
       6    H4      21.500330   18.858397   25.608414 H          1 MOL1         0.0967
       7    C2      20.427630   18.195459   23.830668 C.3        1 MOL1        -0.1378
       8    H5      21.046873   17.370473   23.454452 H          1 MOL1         0.0993
       9    H6      19.387768   17.932577   23.599908 H          1 MOL1         0.0993
      10    C3      20.849274   19.494909   23.098371 C.3        1 MOL1        -0.1338
      11    H7      21.856558   19.780226   23.432001 H          1 MOL1         0.0993
      12    H8      20.188647   20.324984   23.373895 H          1 MOL1         0.0993
      13    C4      20.865275   19.354343   21.556185 C.3        1 MOL1        -0.1338
      14    H9      21.282659   20.275621   21.126690 H          1 MOL1         0.0993
      15    H10     21.547725   18.543476   21.266253 H          1 MOL1         0.0993
      16    C5      19.466451   19.103184   20.944485 C.3        1 MOL1        -0.1313
      17    H11     18.770892   19.887703   21.273886 H          1 MOL1         0.0993
      18    H12     19.061448   18.147659   21.303274 H          1 MOL1         0.0993
      19    C6      19.515622   19.078374   19.401786 C.3        1 MOL1        -0.2328
      20    H13     18.516537   18.896589   18.984898 H          1 MOL1         0.1004
      21    H14     20.180897   18.283164   19.040885 H          1 MOL1         0.1004
      22    H15     19.877850   20.034609   19.002302 H          1 MOL1         0.1004
      23    C7      19.231861   20.297982   25.962620 C.3        1 MOL1        -0.0781
      24    H16     20.168729   20.819621   26.169820 H          1 MOL1         0.0978
      25    H17     18.915806   20.486771   24.935796 H          1 MOL1         0.0978
      26    H18     18.456646   20.644818   26.649506 H          1 MOL1         0.0978
@<TRIPOS>BOND
    1     1     2    1
    2     1     3    1
    3     1     4    1
    4     4     5    1
    5     4     6    1
    6     4     7    1
    7     7     8    1
    8     7     9    1
    9     7    10    1
   10    10    11    1
   11    10    12    1
   12    10    13    1
   13    13    14    1
   14    13    15    1
   15    13    16    1
   16    16    17    1
   17    16    18    1
   18    16    19    1
   19    19    20    1
   20    19    21    1
   21    19    22    1
   22     1    23    1
   23    23    24    1
   24    23    25    1
   25    23    26    1
@<TRIPOS>SUBSTRUCTURE
       1 MOL1            1 RESIDUE      1      MOL     
@<SCITEGIC>MOL_PROPERTY
VM2 Rank
SciTegic.value.IntegerValue
99

@<SCITEGIC>MOL_PROPERTY
Conf_Id
SciTegic.value.IntegerValue
559

@<SCITEGIC>MOL_PROPERTY
Probability
SciTegic.value.DoubleValue
0.15

@<SCITEGIC>MOL_PROPERTY
Sum Probability
SciTegic.value.DoubleValue
97.33

@<SCITEGIC>MOL_PROPERTY
Delta G
SciTegic.value.DoubleValue
2.283

@<SCITEGIC>MOL_PROPERTY
G
SciTegic.value.DoubleValue
77.750

@<SCITEGIC>MOL_PROPERTY
E
SciTegic.value.DoubleValue
45.764

@<SCITEGIC>MOL_PROPERTY
-TS
SciTegic.value.DoubleValue
31.986

@<SCITEGIC>MOL_PROPERTY
U+W
SciTegic.value.DoubleValue
24.302

@<SCITEGIC>MOL_PROPERTY
U
SciTegic.value.DoubleValue
73.883

@<SCITEGIC>MOL_PROPERTY
W
SciTegic.value.DoubleValue
-49.581

@<SCITEGIC>MOL_PROPERTY
W(PB)
SciTegic.value.DoubleValue
-51.845

@<SCITEGIC>MOL_PROPERTY
W(SA)
SciTegic.value.DoubleValue
2.264

@<SCITEGIC>MOL_PROPERTY
Valence
SciTegic.value.DoubleValue
4.358

@<SCITEGIC>MOL_PROPERTY
Coulomb
SciTegic.value.DoubleValue
69.048

@<SCITEGIC>MOL_PROPERTY
VdW
SciTegic.value.DoubleValue
0.477

@<SCITEGIC>MOL_PROPERTY
VdW6
SciTegic.value.DoubleValue
-7.513

@<SCITEGIC>MOL_PROPERTY
VdW12
SciTegic.value.DoubleValue
7.990

@<SCITEGIC>MOL_PROPERTY
Bond
SciTegic.value.DoubleValue
0.237

@<SCITEGIC>MOL_PROPERTY
Angle
SciTegic.value.DoubleValue
1.265

@<SCITEGIC>MOL_PROPERTY
Pdih
SciTegic.value.DoubleValue
2.855

@<SCITEGIC>MOL_PROPERTY
Idih
SciTegic.value.DoubleValue
0.000

@<SCITEGIC>MOL_PROPERTY
Tether
SciTegic.value.DoubleValue
0.000

@<TRIPOS>MOLECULE
guest-s12_vm2.mol2 : vm2 ligand conformer 100
          26          25           1
SMALL
USER_CHARGES
 
@<TRIPOS>ATOM
       1    N1      19.681357   18.940725   25.672031 N.4        1 MOL1        -0.4857
       2    H1      19.887257   18.047312   26.145270 H          1 MOL1         0.3650
       3    H2      18.775872   18.801059   25.199245 H          1 MOL1         0.3650
       4    C1      20.757065   19.248744   24.649131 C.3        1 MOL1         0.0209
       5    H3      21.700781   19.370203   25.186876 H          1 MOL1         0.0967
       6    H4      20.509403   20.202292   24.176644 H          1 MOL1         0.0967
       7    C2      20.918327   18.160138   23.568537 C.3        1 MOL1        -0.1378
       8    H5      21.760534   18.429668   22.918507 H          1 MOL1         0.0993
       9    H6      21.201445   17.214511   24.049430 H          1 MOL1         0.0993
      10    C3      19.647407   17.935805   22.707711 C.3        1 MOL1        -0.1338
      11    H7      18.855568   17.506019   23.335608 H          1 MOL1         0.0993
      12    H8      19.861652   17.171641   21.948717 H          1 MOL1         0.0993
      13    C4      19.096526   19.211852   22.015447 C.3        1 MOL1        -0.1338
      14    H9      18.211245   18.936735   21.425708 H          1 MOL1         0.0993
      15    H10     18.735726   19.915243   22.777806 H          1 MOL1         0.0993
      16    C5      20.102534   19.946526   21.093131 C.3        1 MOL1        -0.1313
      17    H11     20.952732   20.320273   21.679260 H          1 MOL1         0.0993
      18    H12     19.610184   20.836448   20.676766 H          1 MOL1         0.0993
      19    C6      20.617190   19.072067   19.927243 C.3        1 MOL1        -0.2328
      20    H13     19.783373   18.675555   19.333574 H          1 MOL1         0.1004
      21    H14     21.212957   18.225821   20.291125 H          1 MOL1         0.1004
      22    H15     21.255824   19.661736   19.256968 H          1 MOL1         0.1004
      23    C7      19.587595   20.074142   26.683770 C.3        1 MOL1        -0.0781
      24    H16     20.548435   20.182198   27.191723 H          1 MOL1         0.0978
      25    H17     19.338080   21.001014   26.162666 H          1 MOL1         0.0978
      26    H18     18.809067   19.839786   27.413198 H          1 MOL1         0.0978
@<TRIPOS>BOND
    1     1     2    1
    2     1     3    1
    3     1     4    1
    4     4     5    1
    5     4     6    1
    6     4     7    1
    7     7     8    1
    8     7     9    1
    9     7    10    1
   10    10    11    1
   11    10    12    1
   12    10    13    1
   13    13    14    1
   14    13    15    1
   15    13    16    1
   16    16    17    1
   17    16    18    1
   18    16    19    1
   19    19    20    1
   20    19    21    1
   21    19    22    1
   22     1    23    1
   23    23    24    1
   24    23    25    1
   25    23    26    1
@<TRIPOS>SUBSTRUCTURE
       1 MOL1            1 RESIDUE      1      MOL     
@<SCITEGIC>MOL_PROPERTY
VM2 Rank
SciTegic.value.IntegerValue
100

@<SCITEGIC>MOL_PROPERTY
Conf_Id
SciTegic.value.IntegerValue
1312

@<SCITEGIC>MOL_PROPERTY
Probability
SciTegic.value.DoubleValue
0.13

@<SCITEGIC>MOL_PROPERTY
Sum Probability
SciTegic.value.DoubleValue
97.47

@<SCITEGIC>MOL_PROPERTY
Delta G
SciTegic.value.DoubleValue
2.329

@<SCITEGIC>MOL_PROPERTY
G
SciTegic.value.DoubleValue
77.795

@<SCITEGIC>MOL_PROPERTY
E
SciTegic.value.DoubleValue
44.774

@<SCITEGIC>MOL_PROPERTY
-TS
SciTegic.value.DoubleValue
33.021

@<SCITEGIC>MOL_PROPERTY
U+W
SciTegic.value.DoubleValue
23.313

@<SCITEGIC>MOL_PROPERTY
U
SciTegic.value.DoubleValue
72.853

@<SCITEGIC>MOL_PROPERTY
W
SciTegic.value.DoubleValue
-49.541

@<SCITEGIC>MOL_PROPERTY
W(PB)
SciTegic.value.DoubleValue
-51.773

@<SCITEGIC>MOL_PROPERTY
W(SA)
SciTegic.value.DoubleValue
2.233

@<SCITEGIC>MOL_PROPERTY
Valence
SciTegic.value.DoubleValue
3.035

@<SCITEGIC>MOL_PROPERTY
Coulomb
SciTegic.value.DoubleValue
69.793

@<SCITEGIC>MOL_PROPERTY
VdW
SciTegic.value.DoubleValue
0.025

@<SCITEGIC>MOL_PROPERTY
VdW6
SciTegic.value.DoubleValue
-8.577

@<SCITEGIC>MOL_PROPERTY
VdW12
SciTegic.value.DoubleValue
8.602

@<SCITEGIC>MOL_PROPERTY
Bond
SciTegic.value.DoubleValue
0.254

@<SCITEGIC>MOL_PROPERTY
Angle
SciTegic.value.DoubleValue
1.267

@<SCITEGIC>MOL_PROPERTY
Pdih
SciTegic.value.DoubleValue
1.514

@<SCITEGIC>MOL_PROPERTY
Idih
SciTegic.value.DoubleValue
0.000

@<SCITEGIC>MOL_PROPERTY
Tether
SciTegic.value.DoubleValue
0.000

@<TRIPOS>MOLECULE
guest-s12_vm2.mol2 : vm2 ligand conformer 101
          26          25           1
SMALL
USER_CHARGES
 
@<TRIPOS>ATOM
       1    N1      20.272277   19.001374   25.693014 N.4        1 MOL1        -0.4857
       2    H1      21.218103   19.051824   25.285824 H          1 MOL1         0.3650
       3    H2      20.219336   18.081322   26.156955 H          1 MOL1         0.3650
       4    C1      19.230772   19.092195   24.595119 C.3        1 MOL1         0.0209
       5    H3      19.312346   20.079542   24.134331 H          1 MOL1         0.0967
       6    H4      18.246752   19.015840   25.064584 H          1 MOL1         0.0967
       7    C2      19.369688   18.001331   23.513696 C.3        1 MOL1        -0.1378
       8    H5      19.251278   17.014495   23.980339 H          1 MOL1         0.0993
       9    H6      18.537928   18.099136   22.804395 H          1 MOL1         0.0993
      10    C3      20.716759   18.045606   22.745563 C.3        1 MOL1        -0.1338
      11    H7      20.715624   17.259301   21.978985 H          1 MOL1         0.0993
      12    H8      21.533387   17.780903   23.430421 H          1 MOL1         0.0993
      13    C4      21.044431   19.411761   22.084321 C.3        1 MOL1        -0.1338
      14    H9      21.200801   20.168268   22.864944 H          1 MOL1         0.0993
      15    H10     22.006168   19.326136   21.559980 H          1 MOL1         0.0993
      16    C5      19.977385   19.933647   21.088573 C.3        1 MOL1        -0.1313
      17    H11     20.306892   20.907882   20.701253 H          1 MOL1         0.0993
      18    H12     19.030156   20.122977   21.611051 H          1 MOL1         0.0993
      19    C6      19.733698   18.981304   19.895884 C.3        1 MOL1        -0.2328
      20    H13     20.670068   18.766442   19.364883 H          1 MOL1         0.1004
      21    H14     19.037215   19.433916   19.178329 H          1 MOL1         0.1004
      22    H15     19.298027   18.029215   20.223295 H          1 MOL1         0.1004
      23    C7      20.062990   20.122783   26.700830 C.3        1 MOL1        -0.0781
      24    H16     19.067087   20.029824   27.139517 H          1 MOL1         0.0978
      25    H17     20.819905   20.045999   27.484588 H          1 MOL1         0.0978
      26    H18     20.154987   21.084801   26.191952 H          1 MOL1         0.0978
@<TRIPOS>BOND
    1     1     2    1
    2     1     3    1
    3     1     4    1
    4     4     5    1
    5     4     6    1
    6     4     7    1
    7     7     8    1
    8     7     9    1
    9     7    10    1
   10    10    11    1
   11    10    12    1
   12    10    13    1
   13    13    14    1
   14    13    15    1
   15    13    16    1
   16    16    17    1
   17    16    18    1
   18    16    19    1
   19    19    20    1
   20    19    21    1
   21    19    22    1
   22     1    23    1
   23    23    24    1
   24    23    25    1
   25    23    26    1
@<TRIPOS>SUBSTRUCTURE
       1 MOL1            1 RESIDUE      1      MOL     
@<SCITEGIC>MOL_PROPERTY
VM2 Rank
SciTegic.value.IntegerValue
101

@<SCITEGIC>MOL_PROPERTY
Conf_Id
SciTegic.value.IntegerValue
532

@<SCITEGIC>MOL_PROPERTY
Probability
SciTegic.value.DoubleValue
0.12

@<SCITEGIC>MOL_PROPERTY
Sum Probability
SciTegic.value.DoubleValue
97.58

@<SCITEGIC>MOL_PROPERTY
Delta G
SciTegic.value.DoubleValue
2.419

@<SCITEGIC>MOL_PROPERTY
G
SciTegic.value.DoubleValue
77.885

@<SCITEGIC>MOL_PROPERTY
E
SciTegic.value.DoubleValue
44.865

@<SCITEGIC>MOL_PROPERTY
-TS
SciTegic.value.DoubleValue
33.021

@<SCITEGIC>MOL_PROPERTY
U+W
SciTegic.value.DoubleValue
23.403

@<SCITEGIC>MOL_PROPERTY
U
SciTegic.value.DoubleValue
72.853

@<SCITEGIC>MOL_PROPERTY
W
SciTegic.value.DoubleValue
-49.450

@<SCITEGIC>MOL_PROPERTY
W(PB)
SciTegic.value.DoubleValue
-51.679

@<SCITEGIC>MOL_PROPERTY
W(SA)
SciTegic.value.DoubleValue
2.229

@<SCITEGIC>MOL_PROPERTY
Valence
SciTegic.value.DoubleValue
3.035

@<SCITEGIC>MOL_PROPERTY
Coulomb
SciTegic.value.DoubleValue
69.793

@<SCITEGIC>MOL_PROPERTY
VdW
SciTegic.value.DoubleValue
0.025

@<SCITEGIC>MOL_PROPERTY
VdW6
SciTegic.value.DoubleValue
-8.576

@<SCITEGIC>MOL_PROPERTY
VdW12
SciTegic.value.DoubleValue
8.601

@<SCITEGIC>MOL_PROPERTY
Bond
SciTegic.value.DoubleValue
0.254

@<SCITEGIC>MOL_PROPERTY
Angle
SciTegic.value.DoubleValue
1.267

@<SCITEGIC>MOL_PROPERTY
Pdih
SciTegic.value.DoubleValue
1.514

@<SCITEGIC>MOL_PROPERTY
Idih
SciTegic.value.DoubleValue
0.000

@<SCITEGIC>MOL_PROPERTY
Tether
SciTegic.value.DoubleValue
0.000

@<TRIPOS>MOLECULE
guest-s12_vm2.mol2 : vm2 ligand conformer 102
          26          25           1
SMALL
USER_CHARGES
 
@<TRIPOS>ATOM
       1    N1      20.694741   19.218369   25.640319 N.4        1 MOL1        -0.4857
       2    H1      21.450781   19.752323   26.097430 H          1 MOL1         0.3650
       3    H2      21.157705   18.397511   25.222721 H          1 MOL1         0.3650
       4    C1      20.058152   20.065866   24.550330 C.3        1 MOL1         0.0209
       5    H3      20.866677   20.467949   23.934925 H          1 MOL1         0.0967
       6    H4      19.555249   20.906662   25.034641 H          1 MOL1         0.0967
       7    C2      19.057973   19.318119   23.640325 C.3        1 MOL1        -0.1378
       8    H5      18.201635   18.980864   24.238262 H          1 MOL1         0.0993
       9    H6      18.647570   20.027642   22.910716 H          1 MOL1         0.0993
      10    C3      19.671647   18.103085   22.896708 C.3        1 MOL1        -0.1338
      11    H7      18.900738   17.648183   22.260669 H          1 MOL1         0.0993
      12    H8      19.937263   17.328732   23.628802 H          1 MOL1         0.0993
      13    C4      20.923717   18.429448   22.038375 C.3        1 MOL1        -0.1338
      14    H9      21.747665   18.738768   22.695066 H          1 MOL1         0.0993
      15    H10     21.265586   17.505795   21.551361 H          1 MOL1         0.0993
      16    C5      20.713301   19.517142   20.954341 C.3        1 MOL1        -0.1313
      17    H11     21.664340   19.673651   20.426371 H          1 MOL1         0.0993
      18    H12     20.468593   20.479341   21.423745 H          1 MOL1         0.0993
      19    C6      19.625211   19.149942   19.919897 C.3        1 MOL1        -0.2328
      20    H13     19.841249   18.183572   19.446222 H          1 MOL1         0.1004
      21    H14     19.575839   19.908340   19.127923 H          1 MOL1         0.1004
      22    H15     18.632560   19.091327   20.383250 H          1 MOL1         0.1004
      23    C7      19.663259   18.788030   26.676705 C.3        1 MOL1        -0.0781
      24    H16     20.161320   18.209378   27.457797 H          1 MOL1         0.0978
      25    H17     19.201574   19.676249   27.113357 H          1 MOL1         0.0978
      26    H18     18.901111   18.173263   26.193673 H          1 MOL1         0.0978
@<TRIPOS>BOND
    1     1     2    1
    2     1     3    1
    3     1     4    1
    4     4     5    1
    5     4     6    1
    6     4     7    1
    7     7     8    1
    8     7     9    1
    9     7    10    1
   10    10    11    1
   11    10    12    1
   12    10    13    1
   13    13    14    1
   14    13    15    1
   15    13    16    1
   16    16    17    1
   17    16    18    1
   18    16    19    1
   19    19    20    1
   20    19    21    1
   21    19    22    1
   22     1    23    1
   23    23    24    1
   24    23    25    1
   25    23    26    1
@<TRIPOS>SUBSTRUCTURE
       1 MOL1            1 RESIDUE      1      MOL     
@<SCITEGIC>MOL_PROPERTY
VM2 Rank
SciTegic.value.IntegerValue
102

@<SCITEGIC>MOL_PROPERTY
Conf_Id
SciTegic.value.IntegerValue
1358

@<SCITEGIC>MOL_PROPERTY
Probability
SciTegic.value.DoubleValue
0.11

@<SCITEGIC>MOL_PROPERTY
Sum Probability
SciTegic.value.DoubleValue
97.69

@<SCITEGIC>MOL_PROPERTY
Delta G
SciTegic.value.DoubleValue
2.473

@<SCITEGIC>MOL_PROPERTY
G
SciTegic.value.DoubleValue
77.939

@<SCITEGIC>MOL_PROPERTY
E
SciTegic.value.DoubleValue
44.698

@<SCITEGIC>MOL_PROPERTY
-TS
SciTegic.value.DoubleValue
33.241

@<SCITEGIC>MOL_PROPERTY
U+W
SciTegic.value.DoubleValue
23.236

@<SCITEGIC>MOL_PROPERTY
U
SciTegic.value.DoubleValue
73.340

@<SCITEGIC>MOL_PROPERTY
W
SciTegic.value.DoubleValue
-50.104

@<SCITEGIC>MOL_PROPERTY
W(PB)
SciTegic.value.DoubleValue
-52.276

@<SCITEGIC>MOL_PROPERTY
W(SA)
SciTegic.value.DoubleValue
2.172

@<SCITEGIC>MOL_PROPERTY
Valence
SciTegic.value.DoubleValue
3.289

@<SCITEGIC>MOL_PROPERTY
Coulomb
SciTegic.value.DoubleValue
69.804

@<SCITEGIC>MOL_PROPERTY
VdW
SciTegic.value.DoubleValue
0.247

@<SCITEGIC>MOL_PROPERTY
VdW6
SciTegic.value.DoubleValue
-9.372

@<SCITEGIC>MOL_PROPERTY
VdW12
SciTegic.value.DoubleValue
9.619

@<SCITEGIC>MOL_PROPERTY
Bond
SciTegic.value.DoubleValue
0.294

@<SCITEGIC>MOL_PROPERTY
Angle
SciTegic.value.DoubleValue
1.399

@<SCITEGIC>MOL_PROPERTY
Pdih
SciTegic.value.DoubleValue
1.596

@<SCITEGIC>MOL_PROPERTY
Idih
SciTegic.value.DoubleValue
0.000

@<SCITEGIC>MOL_PROPERTY
Tether
SciTegic.value.DoubleValue
0.000

@<TRIPOS>MOLECULE
guest-s12_vm2.mol2 : vm2 ligand conformer 103
          26          25           1
SMALL
USER_CHARGES
 
@<TRIPOS>ATOM
       1    N1      19.944324   19.105906   26.324113 N.4        1 MOL1        -0.4857
       2    H1      20.467896   19.137732   27.213281 H          1 MOL1         0.3650
       3    H2      19.062480   18.623810   26.556771 H          1 MOL1         0.3650
       4    C1      20.736604   18.292039   25.309886 C.3        1 MOL1         0.0209
       5    H3      21.024301   17.369537   25.820786 H          1 MOL1         0.0967
       6    H4      21.652968   18.835757   25.067232 H          1 MOL1         0.0967
       7    C2      19.985566   17.907406   24.015274 C.3        1 MOL1        -0.1378
       8    H5      20.384064   16.944489   23.669159 H          1 MOL1         0.0993
       9    H6      18.922534   17.740550   24.233720 H          1 MOL1         0.0993
      10    C3      20.153522   18.941539   22.875797 C.3        1 MOL1        -0.1338
      11    H7      21.224497   19.097788   22.691404 H          1 MOL1         0.0993
      12    H8      19.739598   19.911199   23.175343 H          1 MOL1         0.0993
      13    C4      19.458503   18.475515   21.573633 C.3        1 MOL1        -0.1338
      14    H9      19.910356   17.535727   21.227307 H          1 MOL1         0.0993
      15    H10     18.405101   18.250127   21.790350 H          1 MOL1         0.0993
      16    C5      19.512148   19.523990   20.435929 C.3        1 MOL1        -0.1313
      17    H11     19.037928   20.458032   20.768331 H          1 MOL1         0.0993
      18    H12     18.911328   19.158617   19.591304 H          1 MOL1         0.0993
      19    C6      20.945479   19.817668   19.937176 C.3        1 MOL1        -0.2328
      20    H13     20.920364   20.493996   19.072958 H          1 MOL1         0.1004
      21    H14     21.452387   18.895005   19.626157 H          1 MOL1         0.1004
      22    H15     21.552431   20.298843   20.714019 H          1 MOL1         0.1004
      23    C7      19.671855   20.525938   25.845192 C.3        1 MOL1        -0.0781
      24    H16     20.615380   20.998744   25.564151 H          1 MOL1         0.0978
      25    H17     18.998051   20.493558   24.987590 H          1 MOL1         0.0978
      26    H18     19.202636   21.090320   26.654128 H          1 MOL1         0.0978
@<TRIPOS>BOND
    1     1     2    1
    2     1     3    1
    3     1     4    1
    4     4     5    1
    5     4     6    1
    6     4     7    1
    7     7     8    1
    8     7     9    1
    9     7    10    1
   10    10    11    1
   11    10    12    1
   12    10    13    1
   13    13    14    1
   14    13    15    1
   15    13    16    1
   16    16    17    1
   17    16    18    1
   18    16    19    1
   19    19    20    1
   20    19    21    1
   21    19    22    1
   22     1    23    1
   23    23    24    1
   24    23    25    1
   25    23    26    1
@<TRIPOS>SUBSTRUCTURE
       1 MOL1            1 RESIDUE      1      MOL     
@<SCITEGIC>MOL_PROPERTY
VM2 Rank
SciTegic.value.IntegerValue
103

@<SCITEGIC>MOL_PROPERTY
Conf_Id
SciTegic.value.IntegerValue
1071

@<SCITEGIC>MOL_PROPERTY
Probability
SciTegic.value.DoubleValue
0.10

@<SCITEGIC>MOL_PROPERTY
Sum Probability
SciTegic.value.DoubleValue
97.79

@<SCITEGIC>MOL_PROPERTY
Delta G
SciTegic.value.DoubleValue
2.504

@<SCITEGIC>MOL_PROPERTY
G
SciTegic.value.DoubleValue
77.971

@<SCITEGIC>MOL_PROPERTY
E
SciTegic.value.DoubleValue
45.666

@<SCITEGIC>MOL_PROPERTY
-TS
SciTegic.value.DoubleValue
32.305

@<SCITEGIC>MOL_PROPERTY
U+W
SciTegic.value.DoubleValue
24.204

@<SCITEGIC>MOL_PROPERTY
U
SciTegic.value.DoubleValue
73.665

@<SCITEGIC>MOL_PROPERTY
W
SciTegic.value.DoubleValue
-49.461

@<SCITEGIC>MOL_PROPERTY
W(PB)
SciTegic.value.DoubleValue
-51.723

@<SCITEGIC>MOL_PROPERTY
W(SA)
SciTegic.value.DoubleValue
2.262

@<SCITEGIC>MOL_PROPERTY
Valence
SciTegic.value.DoubleValue
4.363

@<SCITEGIC>MOL_PROPERTY
Coulomb
SciTegic.value.DoubleValue
68.783

@<SCITEGIC>MOL_PROPERTY
VdW
SciTegic.value.DoubleValue
0.520

@<SCITEGIC>MOL_PROPERTY
VdW6
SciTegic.value.DoubleValue
-7.471

@<SCITEGIC>MOL_PROPERTY
VdW12
SciTegic.value.DoubleValue
7.991

@<SCITEGIC>MOL_PROPERTY
Bond
SciTegic.value.DoubleValue
0.232

@<SCITEGIC>MOL_PROPERTY
Angle
SciTegic.value.DoubleValue
1.226

@<SCITEGIC>MOL_PROPERTY
Pdih
SciTegic.value.DoubleValue
2.905

@<SCITEGIC>MOL_PROPERTY
Idih
SciTegic.value.DoubleValue
0.000

@<SCITEGIC>MOL_PROPERTY
Tether
SciTegic.value.DoubleValue
0.000

@<TRIPOS>MOLECULE
guest-s12_vm2.mol2 : vm2 ligand conformer 104
          26          25           1
SMALL
USER_CHARGES
 
@<TRIPOS>ATOM
       1    N1      19.228350   19.068176   25.588390 N.4        1 MOL1        -0.4857
       2    H1      18.971516   18.173644   25.145241 H          1 MOL1         0.3650
       3    H2      18.349781   19.434708   25.987673 H          1 MOL1         0.3650
       4    C1      19.754877   20.034860   24.539645 C.3        1 MOL1         0.0209
       5    H3      20.042003   20.956529   25.051986 H          1 MOL1         0.0967
       6    H4      18.926785   20.269380   23.866315 H          1 MOL1         0.0967
       7    C2      20.946903   19.511667   23.707215 C.3        1 MOL1        -0.1378
       8    H5      21.255145   20.294802   23.003034 H          1 MOL1         0.0993
       9    H6      21.809823   19.350520   24.365990 H          1 MOL1         0.0993
      10    C3      20.645514   18.202897   22.931228 C.3        1 MOL1        -0.1338
      11    H7      20.491569   17.385594   23.648482 H          1 MOL1         0.0993
      12    H8      21.535150   17.918033   22.354009 H          1 MOL1         0.0993
      13    C4      19.416534   18.275164   21.985020 C.3        1 MOL1        -0.1338
      14    H9      19.303628   17.304910   21.481980 H          1 MOL1         0.0993
      15    H10     18.503120   18.406663   22.580166 H          1 MOL1         0.0993
      16    C5      19.477836   19.390587   20.910518 C.3        1 MOL1        -0.1313
      17    H11     19.489188   20.379050   21.388914 H          1 MOL1         0.0993
      18    H12     18.554189   19.355063   20.316097 H          1 MOL1         0.0993
      19    C6      20.687493   19.258613   19.957539 C.3        1 MOL1        -0.2328
      20    H13     20.637665   20.016868   19.165457 H          1 MOL1         0.1004
      21    H14     20.705323   18.271884   19.476960 H          1 MOL1         0.1004
      22    H15     21.636492   19.398933   20.489704 H          1 MOL1         0.1004
      23    C7      20.250494   18.848035   26.697444 C.3        1 MOL1        -0.0781
      24    H16     21.153218   18.403836   26.273294 H          1 MOL1         0.0978
      25    H17     20.491071   19.808124   27.159075 H          1 MOL1         0.0978
      26    H18     19.826490   18.174854   27.445812 H          1 MOL1         0.0978
@<TRIPOS>BOND
    1     1     2    1
    2     1     3    1
    3     1     4    1
    4     4     5    1
    5     4     6    1
    6     4     7    1
    7     7     8    1
    8     7     9    1
    9     7    10    1
   10    10    11    1
   11    10    12    1
   12    10    13    1
   13    13    14    1
   14    13    15    1
   15    13    16    1
   16    16    17    1
   17    16    18    1
   18    16    19    1
   19    19    20    1
   20    19    21    1
   21    19    22    1
   22     1    23    1
   23    23    24    1
   24    23    25    1
   25    23    26    1
@<TRIPOS>SUBSTRUCTURE
       1 MOL1            1 RESIDUE      1      MOL     
@<SCITEGIC>MOL_PROPERTY
VM2 Rank
SciTegic.value.IntegerValue
104

@<SCITEGIC>MOL_PROPERTY
Conf_Id
SciTegic.value.IntegerValue
1080

@<SCITEGIC>MOL_PROPERTY
Probability
SciTegic.value.DoubleValue
0.09

@<SCITEGIC>MOL_PROPERTY
Sum Probability
SciTegic.value.DoubleValue
97.88

@<SCITEGIC>MOL_PROPERTY
Delta G
SciTegic.value.DoubleValue
2.557

@<SCITEGIC>MOL_PROPERTY
G
SciTegic.value.DoubleValue
78.023

@<SCITEGIC>MOL_PROPERTY
E
SciTegic.value.DoubleValue
44.782

@<SCITEGIC>MOL_PROPERTY
-TS
SciTegic.value.DoubleValue
33.241

@<SCITEGIC>MOL_PROPERTY
U+W
SciTegic.value.DoubleValue
23.320

@<SCITEGIC>MOL_PROPERTY
U
SciTegic.value.DoubleValue
73.340

@<SCITEGIC>MOL_PROPERTY
W
SciTegic.value.DoubleValue
-50.020

@<SCITEGIC>MOL_PROPERTY
W(PB)
SciTegic.value.DoubleValue
-52.188

@<SCITEGIC>MOL_PROPERTY
W(SA)
SciTegic.value.DoubleValue
2.168

@<SCITEGIC>MOL_PROPERTY
Valence
SciTegic.value.DoubleValue
3.289

@<SCITEGIC>MOL_PROPERTY
Coulomb
SciTegic.value.DoubleValue
69.804

@<SCITEGIC>MOL_PROPERTY
VdW
SciTegic.value.DoubleValue
0.247

@<SCITEGIC>MOL_PROPERTY
VdW6
SciTegic.value.DoubleValue
-9.372

@<SCITEGIC>MOL_PROPERTY
VdW12
SciTegic.value.DoubleValue
9.619

@<SCITEGIC>MOL_PROPERTY
Bond
SciTegic.value.DoubleValue
0.294

@<SCITEGIC>MOL_PROPERTY
Angle
SciTegic.value.DoubleValue
1.399

@<SCITEGIC>MOL_PROPERTY
Pdih
SciTegic.value.DoubleValue
1.596

@<SCITEGIC>MOL_PROPERTY
Idih
SciTegic.value.DoubleValue
0.000

@<SCITEGIC>MOL_PROPERTY
Tether
SciTegic.value.DoubleValue
0.000

@<TRIPOS>MOLECULE
guest-s12_vm2.mol2 : vm2 ligand conformer 105
          26          25           1
SMALL
USER_CHARGES
 
@<TRIPOS>ATOM
       1    N1      19.699017   19.006025   26.234486 N.4        1 MOL1        -0.4857
       2    H1      19.860307   19.406038   27.172429 H          1 MOL1         0.3650
       3    H2      19.472383   18.014727   26.408163 H          1 MOL1         0.3650
       4    C1      20.980554   19.116682   25.419423 C.3        1 MOL1         0.0209
       5    H3      21.778773   18.725745   26.055671 H          1 MOL1         0.0967
       6    H4      21.188224   20.174423   25.239701 H          1 MOL1         0.0967
       7    C2      21.003777   18.334696   24.086828 C.3        1 MOL1        -0.1378
       8    H5      22.037859   18.014470   23.902785 H          1 MOL1         0.0993
       9    H6      20.408498   17.416730   24.179704 H          1 MOL1         0.0993
      10    C3      20.528794   19.172595   22.875085 C.3        1 MOL1        -0.1338
      11    H7      21.140873   20.081888   22.799352 H          1 MOL1         0.0993
      12    H8      19.495188   19.500209   23.028573 H          1 MOL1         0.0993
      13    C4      20.626729   18.373690   21.552947 C.3        1 MOL1        -0.1338
      14    H9      21.652963   17.999409   21.434078 H          1 MOL1         0.0993
      15    H10     19.979359   17.487495   21.606830 H          1 MOL1         0.0993
      16    C5      20.259918   19.205696   20.300003 C.3        1 MOL1        -0.1313
      17    H11     20.458285   18.600032   19.404626 H          1 MOL1         0.0993
      18    H12     20.919094   20.082244   20.229583 H          1 MOL1         0.0993
      19    C6      18.783205   19.662205   20.274619 C.3        1 MOL1        -0.2328
      20    H13     18.103246   18.806391   20.375756 H          1 MOL1         0.1004
      21    H14     18.552538   20.163183   19.325547 H          1 MOL1         0.1004
      22    H15     18.565934   20.371988   21.082301 H          1 MOL1         0.1004
      23    C7      18.526005   19.718412   25.573610 C.3        1 MOL1        -0.0781
      24    H16     18.804687   20.753457   25.364350 H          1 MOL1         0.0978
      25    H17     18.268936   19.204089   24.646156 H          1 MOL1         0.0978
      26    H18     17.669099   19.696398   26.250591 H          1 MOL1         0.0978
@<TRIPOS>BOND
    1     1     2    1
    2     1     3    1
    3     1     4    1
    4     4     5    1
    5     4     6    1
    6     4     7    1
    7     7     8    1
    8     7     9    1
    9     7    10    1
   10    10    11    1
   11    10    12    1
   12    10    13    1
   13    13    14    1
   14    13    15    1
   15    13    16    1
   16    16    17    1
   17    16    18    1
   18    16    19    1
   19    19    20    1
   20    19    21    1
   21    19    22    1
   22     1    23    1
   23    23    24    1
   24    23    25    1
   25    23    26    1
@<TRIPOS>SUBSTRUCTURE
       1 MOL1            1 RESIDUE      1      MOL     
@<SCITEGIC>MOL_PROPERTY
VM2 Rank
SciTegic.value.IntegerValue
105

@<SCITEGIC>MOL_PROPERTY
Conf_Id
SciTegic.value.IntegerValue
1369

@<SCITEGIC>MOL_PROPERTY
Probability
SciTegic.value.DoubleValue
0.09

@<SCITEGIC>MOL_PROPERTY
Sum Probability
SciTegic.value.DoubleValue
97.97

@<SCITEGIC>MOL_PROPERTY
Delta G
SciTegic.value.DoubleValue
2.596

@<SCITEGIC>MOL_PROPERTY
G
SciTegic.value.DoubleValue
78.063

@<SCITEGIC>MOL_PROPERTY
E
SciTegic.value.DoubleValue
45.697

@<SCITEGIC>MOL_PROPERTY
-TS
SciTegic.value.DoubleValue
32.366

@<SCITEGIC>MOL_PROPERTY
U+W
SciTegic.value.DoubleValue
24.235

@<SCITEGIC>MOL_PROPERTY
U
SciTegic.value.DoubleValue
73.765

@<SCITEGIC>MOL_PROPERTY
W
SciTegic.value.DoubleValue
-49.530

@<SCITEGIC>MOL_PROPERTY
W(PB)
SciTegic.value.DoubleValue
-51.770

@<SCITEGIC>MOL_PROPERTY
W(SA)
SciTegic.value.DoubleValue
2.240

@<SCITEGIC>MOL_PROPERTY
Valence
SciTegic.value.DoubleValue
4.369

@<SCITEGIC>MOL_PROPERTY
Coulomb
SciTegic.value.DoubleValue
68.893

@<SCITEGIC>MOL_PROPERTY
VdW
SciTegic.value.DoubleValue
0.503

@<SCITEGIC>MOL_PROPERTY
VdW6
SciTegic.value.DoubleValue
-7.520

@<SCITEGIC>MOL_PROPERTY
VdW12
SciTegic.value.DoubleValue
8.024

@<SCITEGIC>MOL_PROPERTY
Bond
SciTegic.value.DoubleValue
0.234

@<SCITEGIC>MOL_PROPERTY
Angle
SciTegic.value.DoubleValue
1.195

@<SCITEGIC>MOL_PROPERTY
Pdih
SciTegic.value.DoubleValue
2.941

@<SCITEGIC>MOL_PROPERTY
Idih
SciTegic.value.DoubleValue
0.000

@<SCITEGIC>MOL_PROPERTY
Tether
SciTegic.value.DoubleValue
0.000

@<TRIPOS>MOLECULE
guest-s12_vm2.mol2 : vm2 ligand conformer 106
          26          25           1
SMALL
USER_CHARGES
 
@<TRIPOS>ATOM
       1    N1      19.747550   19.312031   25.914573 N.4        1 MOL1        -0.4857
       2    H1      20.622621   19.783901   26.188311 H          1 MOL1         0.3650
       3    H2      19.289088   19.065733   26.805985 H          1 MOL1         0.3650
       4    C1      20.054081   18.038946   25.140963 C.3        1 MOL1         0.0209
       5    H3      19.178070   17.778856   24.542269 H          1 MOL1         0.0967
       6    H4      20.192093   17.249522   25.884229 H          1 MOL1         0.0967
       7    C2      21.323639   18.085465   24.258847 C.3        1 MOL1        -0.1378
       8    H5      22.186305   18.340266   24.888428 H          1 MOL1         0.0993
       9    H6      21.516398   17.073048   23.879953 H          1 MOL1         0.0993
      10    C3      21.262029   19.062305   23.058694 C.3        1 MOL1        -0.1338
      11    H7      22.219795   19.014938   22.522288 H          1 MOL1         0.0993
      12    H8      21.172917   20.094241   23.421356 H          1 MOL1         0.0993
      13    C4      20.115561   18.741564   22.069425 C.3        1 MOL1        -0.1338
      14    H9      20.223244   17.710076   21.706495 H          1 MOL1         0.0993
      15    H10     19.146711   18.796113   22.582497 H          1 MOL1         0.0993
      16    C5      20.106860   19.711850   20.867372 C.3        1 MOL1        -0.1313
      17    H11     21.068487   19.656271   20.338093 H          1 MOL1         0.0993
      18    H12     20.001837   20.745545   21.225672 H          1 MOL1         0.0993
      19    C6      18.961508   19.392858   19.882918 C.3        1 MOL1        -0.2328
      20    H13     19.057936   18.375766   19.481155 H          1 MOL1         0.1004
      21    H14     18.972077   20.091585   19.036352 H          1 MOL1         0.1004
      22    H15     17.983500   19.474797   20.374824 H          1 MOL1         0.1004
      23    C7      18.836772   20.244982   25.124207 C.3        1 MOL1        -0.0781
      24    H16     18.621955   21.129228   25.728361 H          1 MOL1         0.0978
      25    H17     19.330391   20.544908   24.199146 H          1 MOL1         0.0978
      26    H18     17.905549   19.723471   24.892745 H          1 MOL1         0.0978
@<TRIPOS>BOND
    1     1     2    1
    2     1     3    1
    3     1     4    1
    4     4     5    1
    5     4     6    1
    6     4     7    1
    7     7     8    1
    8     7     9    1
    9     7    10    1
   10    10    11    1
   11    10    12    1
   12    10    13    1
   13    13    14    1
   14    13    15    1
   15    13    16    1
   16    16    17    1
   17    16    18    1
   18    16    19    1
   19    19    20    1
   20    19    21    1
   21    19    22    1
   22     1    23    1
   23    23    24    1
   24    23    25    1
   25    23    26    1
@<TRIPOS>SUBSTRUCTURE
       1 MOL1            1 RESIDUE      1      MOL     
@<SCITEGIC>MOL_PROPERTY
VM2 Rank
SciTegic.value.IntegerValue
106

@<SCITEGIC>MOL_PROPERTY
Conf_Id
SciTegic.value.IntegerValue
1356

@<SCITEGIC>MOL_PROPERTY
Probability
SciTegic.value.DoubleValue
0.08

@<SCITEGIC>MOL_PROPERTY
Sum Probability
SciTegic.value.DoubleValue
98.05

@<SCITEGIC>MOL_PROPERTY
Delta G
SciTegic.value.DoubleValue
2.618

@<SCITEGIC>MOL_PROPERTY
G
SciTegic.value.DoubleValue
78.085

@<SCITEGIC>MOL_PROPERTY
E
SciTegic.value.DoubleValue
45.148

@<SCITEGIC>MOL_PROPERTY
-TS
SciTegic.value.DoubleValue
32.936

@<SCITEGIC>MOL_PROPERTY
U+W
SciTegic.value.DoubleValue
23.687

@<SCITEGIC>MOL_PROPERTY
U
SciTegic.value.DoubleValue
73.514

@<SCITEGIC>MOL_PROPERTY
W
SciTegic.value.DoubleValue
-49.827

@<SCITEGIC>MOL_PROPERTY
W(PB)
SciTegic.value.DoubleValue
-52.066

@<SCITEGIC>MOL_PROPERTY
W(SA)
SciTegic.value.DoubleValue
2.238

@<SCITEGIC>MOL_PROPERTY
Valence
SciTegic.value.DoubleValue
4.050

@<SCITEGIC>MOL_PROPERTY
Coulomb
SciTegic.value.DoubleValue
69.538

@<SCITEGIC>MOL_PROPERTY
VdW
SciTegic.value.DoubleValue
-0.074

@<SCITEGIC>MOL_PROPERTY
VdW6
SciTegic.value.DoubleValue
-8.211

@<SCITEGIC>MOL_PROPERTY
VdW12
SciTegic.value.DoubleValue
8.137

@<SCITEGIC>MOL_PROPERTY
Bond
SciTegic.value.DoubleValue
0.215

@<SCITEGIC>MOL_PROPERTY
Angle
SciTegic.value.DoubleValue
1.189

@<SCITEGIC>MOL_PROPERTY
Pdih
SciTegic.value.DoubleValue
2.646

@<SCITEGIC>MOL_PROPERTY
Idih
SciTegic.value.DoubleValue
0.000

@<SCITEGIC>MOL_PROPERTY
Tether
SciTegic.value.DoubleValue
0.000

@<TRIPOS>MOLECULE
guest-s12_vm2.mol2 : vm2 ligand conformer 107
          26          25           1
SMALL
USER_CHARGES
 
@<TRIPOS>ATOM
       1    N1      20.115297   19.349813   25.927534 N.4        1 MOL1        -0.4857
       2    H1      20.550665   19.195309   26.850597 H          1 MOL1         0.3650
       3    H2      19.145718   19.632343   26.135950 H          1 MOL1         0.3650
       4    C1      20.128356   18.046563   25.143599 C.3        1 MOL1         0.0209
       5    H3      20.101694   17.240274   25.881074 H          1 MOL1         0.0967
       6    H4      21.078629   17.973894   24.609580 H          1 MOL1         0.0967
       7    C2      18.940694   17.840827   24.174475 C.3        1 MOL1        -0.1378
       8    H5      18.984384   16.813105   23.790308 H          1 MOL1         0.0993
       9    H6      18.002363   17.910755   24.740277 H          1 MOL1         0.0993
      10    C3      18.886667   18.818438   22.974585 C.3        1 MOL1        -0.1338
      11    H7      18.738866   19.844349   23.335164 H          1 MOL1         0.0993
      12    H8      17.998417   18.581531   22.372773 H          1 MOL1         0.0993
      13    C4      20.140784   18.744174   22.070380 C.3        1 MOL1        -0.1338
      14    H9      21.040022   18.990626   22.649622 H          1 MOL1         0.0993
      15    H10     20.270440   17.714917   21.708302 H          1 MOL1         0.0993
      16    C5      20.036481   19.704558   20.864875 C.3        1 MOL1        -0.1313
      17    H11     19.904025   20.735458   21.222133 H          1 MOL1         0.0993
      18    H12     19.145683   19.458624   20.269941 H          1 MOL1         0.0993
      19    C6      21.288861   19.631844   19.965436 C.3        1 MOL1        -0.2328
      20    H13     21.195950   20.319858   19.115137 H          1 MOL1         0.1004
      21    H14     21.429413   18.619247   19.565336 H          1 MOL1         0.1004
      22    H15     22.192913   19.907223   20.524043 H          1 MOL1         0.1004
      23    C7      20.870860   20.453782   25.196115 C.3        1 MOL1        -0.0781
      24    H16     20.392648   20.653887   24.236623 H          1 MOL1         0.0978
      25    H17     20.858940   21.358895   25.807398 H          1 MOL1         0.0978
      26    H18     21.902405   20.133755   25.034185 H          1 MOL1         0.0978
@<TRIPOS>BOND
    1     1     2    1
    2     1     3    1
    3     1     4    1
    4     4     5    1
    5     4     6    1
    6     4     7    1
    7     7     8    1
    8     7     9    1
    9     7    10    1
   10    10    11    1
   11    10    12    1
   12    10    13    1
   13    13    14    1
   14    13    15    1
   15    13    16    1
   16    16    17    1
   17    16    18    1
   18    16    19    1
   19    19    20    1
   20    19    21    1
   21    19    22    1
   22     1    23    1
   23    23    24    1
   24    23    25    1
   25    23    26    1
@<TRIPOS>SUBSTRUCTURE
       1 MOL1            1 RESIDUE      1      MOL     
@<SCITEGIC>MOL_PROPERTY
VM2 Rank
SciTegic.value.IntegerValue
107

@<SCITEGIC>MOL_PROPERTY
Conf_Id
SciTegic.value.IntegerValue
547

@<SCITEGIC>MOL_PROPERTY
Probability
SciTegic.value.DoubleValue
0.08

@<SCITEGIC>MOL_PROPERTY
Sum Probability
SciTegic.value.DoubleValue
98.13

@<SCITEGIC>MOL_PROPERTY
Delta G
SciTegic.value.DoubleValue
2.626

@<SCITEGIC>MOL_PROPERTY
G
SciTegic.value.DoubleValue
78.093

@<SCITEGIC>MOL_PROPERTY
E
SciTegic.value.DoubleValue
45.156

@<SCITEGIC>MOL_PROPERTY
-TS
SciTegic.value.DoubleValue
32.937

@<SCITEGIC>MOL_PROPERTY
U+W
SciTegic.value.DoubleValue
23.694

@<SCITEGIC>MOL_PROPERTY
U
SciTegic.value.DoubleValue
73.514

@<SCITEGIC>MOL_PROPERTY
W
SciTegic.value.DoubleValue
-49.820

@<SCITEGIC>MOL_PROPERTY
W(PB)
SciTegic.value.DoubleValue
-52.043

@<SCITEGIC>MOL_PROPERTY
W(SA)
SciTegic.value.DoubleValue
2.223

@<SCITEGIC>MOL_PROPERTY
Valence
SciTegic.value.DoubleValue
4.050

@<SCITEGIC>MOL_PROPERTY
Coulomb
SciTegic.value.DoubleValue
69.538

@<SCITEGIC>MOL_PROPERTY
VdW
SciTegic.value.DoubleValue
-0.073

@<SCITEGIC>MOL_PROPERTY
VdW6
SciTegic.value.DoubleValue
-8.211

@<SCITEGIC>MOL_PROPERTY
VdW12
SciTegic.value.DoubleValue
8.138

@<SCITEGIC>MOL_PROPERTY
Bond
SciTegic.value.DoubleValue
0.215

@<SCITEGIC>MOL_PROPERTY
Angle
SciTegic.value.DoubleValue
1.189

@<SCITEGIC>MOL_PROPERTY
Pdih
SciTegic.value.DoubleValue
2.646

@<SCITEGIC>MOL_PROPERTY
Idih
SciTegic.value.DoubleValue
0.000

@<SCITEGIC>MOL_PROPERTY
Tether
SciTegic.value.DoubleValue
0.000

@<TRIPOS>MOLECULE
guest-s12_vm2.mol2 : vm2 ligand conformer 108
          26          25           1
SMALL
USER_CHARGES
 
@<TRIPOS>ATOM
       1    N1      20.202934   19.056987   26.252094 N.4        1 MOL1        -0.4857
       2    H1      20.613654   18.131031   26.447314 H          1 MOL1         0.3650
       3    H2      19.898858   19.408262   27.173998 H          1 MOL1         0.3650
       4    C1      18.985495   18.911622   25.348976 C.3        1 MOL1         0.0209
       5    H3      18.580604   19.906595   25.148139 H          1 MOL1         0.0967
       6    H4      18.240880   18.362123   25.930692 H          1 MOL1         0.0967
       7    C2      19.214052   18.151225   24.023298 C.3        1 MOL1        -0.1378
       8    H5      19.974522   17.371750   24.163820 H          1 MOL1         0.0993
       9    H6      18.281447   17.630112   23.769467 H          1 MOL1         0.0993
      10    C3      19.593510   19.076889   22.842128 C.3        1 MOL1        -0.1338
      11    H7      20.526606   19.604924   23.065118 H          1 MOL1         0.0993
      12    H8      18.817469   19.844692   22.717921 H          1 MOL1         0.0993
      13    C4      19.750904   18.284749   21.521660 C.3        1 MOL1        -0.1338
      14    H9      20.558063   17.546612   21.626456 H          1 MOL1         0.0993
      15    H10     18.831877   17.712484   21.333845 H          1 MOL1         0.0993
      16    C5      20.029182   19.183134   20.291978 C.3        1 MOL1        -0.1313
      17    H11     19.213831   19.909898   20.170214 H          1 MOL1         0.0993
      18    H12     20.019281   18.556903   19.388866 H          1 MOL1         0.0993
      19    C6      21.382169   19.927173   20.366546 C.3        1 MOL1        -0.2328
      20    H13     21.395800   20.659752   21.182934 H          1 MOL1         0.1004
      21    H14     21.572782   20.471723   19.432706 H          1 MOL1         0.1004
      22    H15     22.211527   19.224621   20.520098 H          1 MOL1         0.1004
      23    C7      21.249752   19.998221   25.670320 C.3        1 MOL1        -0.0781
      24    H16     22.043829   20.145520   26.405725 H          1 MOL1         0.0978
      25    H17     21.670176   19.554295   24.766471 H          1 MOL1         0.0978
      26    H18     20.781694   20.956614   25.435425 H          1 MOL1         0.0978
@<TRIPOS>BOND
    1     1     2    1
    2     1     3    1
    3     1     4    1
    4     4     5    1
    5     4     6    1
    6     4     7    1
    7     7     8    1
    8     7     9    1
    9     7    10    1
   10    10    11    1
   11    10    12    1
   12    10    13    1
   13    13    14    1
   14    13    15    1
   15    13    16    1
   16    16    17    1
   17    16    18    1
   18    16    19    1
   19    19    20    1
   20    19    21    1
   21    19    22    1
   22     1    23    1
   23    23    24    1
   24    23    25    1
   25    23    26    1
@<TRIPOS>SUBSTRUCTURE
       1 MOL1            1 RESIDUE      1      MOL     
@<SCITEGIC>MOL_PROPERTY
VM2 Rank
SciTegic.value.IntegerValue
108

@<SCITEGIC>MOL_PROPERTY
Conf_Id
SciTegic.value.IntegerValue
1290

@<SCITEGIC>MOL_PROPERTY
Probability
SciTegic.value.DoubleValue
0.08

@<SCITEGIC>MOL_PROPERTY
Sum Probability
SciTegic.value.DoubleValue
98.21

@<SCITEGIC>MOL_PROPERTY
Delta G
SciTegic.value.DoubleValue
2.652

@<SCITEGIC>MOL_PROPERTY
G
SciTegic.value.DoubleValue
78.118

@<SCITEGIC>MOL_PROPERTY
E
SciTegic.value.DoubleValue
45.756

@<SCITEGIC>MOL_PROPERTY
-TS
SciTegic.value.DoubleValue
32.362

@<SCITEGIC>MOL_PROPERTY
U+W
SciTegic.value.DoubleValue
24.294

@<SCITEGIC>MOL_PROPERTY
U
SciTegic.value.DoubleValue
73.765

@<SCITEGIC>MOL_PROPERTY
W
SciTegic.value.DoubleValue
-49.471

@<SCITEGIC>MOL_PROPERTY
W(PB)
SciTegic.value.DoubleValue
-51.719

@<SCITEGIC>MOL_PROPERTY
W(SA)
SciTegic.value.DoubleValue
2.248

@<SCITEGIC>MOL_PROPERTY
Valence
SciTegic.value.DoubleValue
4.369

@<SCITEGIC>MOL_PROPERTY
Coulomb
SciTegic.value.DoubleValue
68.893

@<SCITEGIC>MOL_PROPERTY
VdW
SciTegic.value.DoubleValue
0.503

@<SCITEGIC>MOL_PROPERTY
VdW6
SciTegic.value.DoubleValue
-7.519

@<SCITEGIC>MOL_PROPERTY
VdW12
SciTegic.value.DoubleValue
8.022

@<SCITEGIC>MOL_PROPERTY
Bond
SciTegic.value.DoubleValue
0.234

@<SCITEGIC>MOL_PROPERTY
Angle
SciTegic.value.DoubleValue
1.196

@<SCITEGIC>MOL_PROPERTY
Pdih
SciTegic.value.DoubleValue
2.939

@<SCITEGIC>MOL_PROPERTY
Idih
SciTegic.value.DoubleValue
0.000

@<SCITEGIC>MOL_PROPERTY
Tether
SciTegic.value.DoubleValue
0.000

@<TRIPOS>MOLECULE
guest-s12_vm2.mol2 : vm2 ligand conformer 109
          26          25           1
SMALL
USER_CHARGES
 
@<TRIPOS>ATOM
       1    N1      20.627218   18.946635   26.063209 N.4        1 MOL1        -0.4857
       2    H1      21.535287   18.970920   25.575092 H          1 MOL1         0.3650
       3    H2      20.826114   18.501631   26.973183 H          1 MOL1         0.3650
       4    C1      19.635079   18.090039   25.292543 C.3        1 MOL1         0.0209
       5    H3      18.625062   18.394898   25.577566 H          1 MOL1         0.0967
       6    H4      19.779535   17.060992   25.631539 H          1 MOL1         0.0967
       7    C2      19.790536   18.111744   23.755430 C.3        1 MOL1        -0.1378
       8    H5      20.800399   17.771242   23.494133 H          1 MOL1         0.0993
       9    H6      19.094959   17.373616   23.334747 H          1 MOL1         0.0993
      10    C3      19.509922   19.493809   23.115354 C.3        1 MOL1        -0.1338
      11    H7      20.295278   20.204804   23.403283 H          1 MOL1         0.0993
      12    H8      18.565619   19.889133   23.514581 H          1 MOL1         0.0993
      13    C4      19.411386   19.448955   21.570519 C.3        1 MOL1        -0.1338
      14    H9      18.607983   18.761338   21.272131 H          1 MOL1         0.0993
      15    H10     19.113771   20.443768   21.211107 H          1 MOL1         0.0993
      16    C5      20.733037   19.038258   20.878785 C.3        1 MOL1        -0.1313
      17    H11     21.010822   18.016076   21.168515 H          1 MOL1         0.0993
      18    H12     21.547130   19.696551   21.212956 H          1 MOL1         0.0993
      19    C6      20.616963   19.108962   19.341101 C.3        1 MOL1        -0.2328
      20    H13     20.379534   20.128025   19.008955 H          1 MOL1         0.1004
      21    H14     19.830051   18.437552   18.973437 H          1 MOL1         0.1004
      22    H15     21.561470   18.812181   18.866929 H          1 MOL1         0.1004
      23    C7      20.083860   20.351598   26.300059 C.3        1 MOL1        -0.0781
      24    H16     20.813567   20.923070   26.877990 H          1 MOL1         0.0978
      25    H17     19.907528   20.844661   25.343394 H          1 MOL1         0.0978
      26    H18     19.147033   20.282934   26.857235 H          1 MOL1         0.0978
@<TRIPOS>BOND
    1     1     2    1
    2     1     3    1
    3     1     4    1
    4     4     5    1
    5     4     6    1
    6     4     7    1
    7     7     8    1
    8     7     9    1
    9     7    10    1
   10    10    11    1
   11    10    12    1
   12    10    13    1
   13    13    14    1
   14    13    15    1
   15    13    16    1
   16    16    17    1
   17    16    18    1
   18    16    19    1
   19    19    20    1
   20    19    21    1
   21    19    22    1
   22     1    23    1
   23    23    24    1
   24    23    25    1
   25    23    26    1
@<TRIPOS>SUBSTRUCTURE
       1 MOL1            1 RESIDUE      1      MOL     
@<SCITEGIC>MOL_PROPERTY
VM2 Rank
SciTegic.value.IntegerValue
109

@<SCITEGIC>MOL_PROPERTY
Conf_Id
SciTegic.value.IntegerValue
1620

@<SCITEGIC>MOL_PROPERTY
Probability
SciTegic.value.DoubleValue
0.07

@<SCITEGIC>MOL_PROPERTY
Sum Probability
SciTegic.value.DoubleValue
98.28

@<SCITEGIC>MOL_PROPERTY
Delta G
SciTegic.value.DoubleValue
2.715

@<SCITEGIC>MOL_PROPERTY
G
SciTegic.value.DoubleValue
78.181

@<SCITEGIC>MOL_PROPERTY
E
SciTegic.value.DoubleValue
45.549

@<SCITEGIC>MOL_PROPERTY
-TS
SciTegic.value.DoubleValue
32.633

@<SCITEGIC>MOL_PROPERTY
U+W
SciTegic.value.DoubleValue
24.087

@<SCITEGIC>MOL_PROPERTY
U
SciTegic.value.DoubleValue
73.664

@<SCITEGIC>MOL_PROPERTY
W
SciTegic.value.DoubleValue
-49.577

@<SCITEGIC>MOL_PROPERTY
W(PB)
SciTegic.value.DoubleValue
-51.837

@<SCITEGIC>MOL_PROPERTY
W(SA)
SciTegic.value.DoubleValue
2.259

@<SCITEGIC>MOL_PROPERTY
Valence
SciTegic.value.DoubleValue
4.219

@<SCITEGIC>MOL_PROPERTY
Coulomb
SciTegic.value.DoubleValue
69.065

@<SCITEGIC>MOL_PROPERTY
VdW
SciTegic.value.DoubleValue
0.380

@<SCITEGIC>MOL_PROPERTY
VdW6
SciTegic.value.DoubleValue
-7.612

@<SCITEGIC>MOL_PROPERTY
VdW12
SciTegic.value.DoubleValue
7.992

@<SCITEGIC>MOL_PROPERTY
Bond
SciTegic.value.DoubleValue
0.225

@<SCITEGIC>MOL_PROPERTY
Angle
SciTegic.value.DoubleValue
1.067

@<SCITEGIC>MOL_PROPERTY
Pdih
SciTegic.value.DoubleValue
2.927

@<SCITEGIC>MOL_PROPERTY
Idih
SciTegic.value.DoubleValue
0.000

@<SCITEGIC>MOL_PROPERTY
Tether
SciTegic.value.DoubleValue
0.000

@<TRIPOS>MOLECULE
guest-s12_vm2.mol2 : vm2 ligand conformer 110
          26          25           1
SMALL
USER_CHARGES
 
@<TRIPOS>ATOM
       1    N1      19.604774   19.208824   26.074248 N.4        1 MOL1        -0.4857
       2    H1      19.647498   19.071251   27.096443 H          1 MOL1         0.3650
       3    H2      18.642308   18.948477   25.810891 H          1 MOL1         0.3650
       4    C1      20.605735   18.283501   25.400888 C.3        1 MOL1         0.0209
       5    H3      20.736052   17.424916   26.064646 H          1 MOL1         0.0967
       6    H4      21.564773   18.803800   25.338770 H          1 MOL1         0.0967
       7    C2      20.190560   17.752941   24.010311 C.3        1 MOL1        -0.1378
       8    H5      20.949382   17.029283   23.684240 H          1 MOL1         0.0993
       9    H6      19.249558   17.194274   24.099999 H          1 MOL1         0.0993
      10    C3      20.045752   18.853676   22.933377 C.3        1 MOL1        -0.1338
      11    H7      20.955763   19.467832   22.921632 H          1 MOL1         0.0993
      12    H8      19.209370   19.515761   23.192066 H          1 MOL1         0.0993
      13    C4      19.796031   18.253094   21.528907 C.3        1 MOL1        -0.1338
      14    H9      20.653632   17.633583   21.232201 H          1 MOL1         0.0993
      15    H10     18.929532   17.578978   21.575657 H          1 MOL1         0.0993
      16    C5      19.529760   19.320896   20.440160 C.3        1 MOL1        -0.1313
      17    H11     18.655463   19.925793   20.718569 H          1 MOL1         0.0993
      18    H12     19.264225   18.810807   19.503586 H          1 MOL1         0.0993
      19    C6      20.739640   20.246475   20.177560 C.3        1 MOL1        -0.2328
      20    H13     20.531608   20.921395   19.337248 H          1 MOL1         0.1004
      21    H14     21.635379   19.663981   19.925880 H          1 MOL1         0.1004
      22    H15     20.968290   20.869412   21.051106 H          1 MOL1         0.1004
      23    C7      19.895748   20.670593   25.751549 C.3        1 MOL1        -0.0781
      24    H16     19.820373   20.832648   24.675619 H          1 MOL1         0.0978
      25    H17     19.169652   21.301241   26.269362 H          1 MOL1         0.0978
      26    H18     20.904072   20.917214   26.091068 H          1 MOL1         0.0978
@<TRIPOS>BOND
    1     1     2    1
    2     1     3    1
    3     1     4    1
    4     4     5    1
    5     4     6    1
    6     4     7    1
    7     7     8    1
    8     7     9    1
    9     7    10    1
   10    10    11    1
   11    10    12    1
   12    10    13    1
   13    13    14    1
   14    13    15    1
   15    13    16    1
   16    16    17    1
   17    16    18    1
   18    16    19    1
   19    19    20    1
   20    19    21    1
   21    19    22    1
   22     1    23    1
   23    23    24    1
   24    23    25    1
   25    23    26    1
@<TRIPOS>SUBSTRUCTURE
       1 MOL1            1 RESIDUE      1      MOL     
@<SCITEGIC>MOL_PROPERTY
VM2 Rank
SciTegic.value.IntegerValue
110

@<SCITEGIC>MOL_PROPERTY
Conf_Id
SciTegic.value.IntegerValue
1272

@<SCITEGIC>MOL_PROPERTY
Probability
SciTegic.value.DoubleValue
0.07

@<SCITEGIC>MOL_PROPERTY
Sum Probability
SciTegic.value.DoubleValue
98.35

@<SCITEGIC>MOL_PROPERTY
Delta G
SciTegic.value.DoubleValue
2.734

@<SCITEGIC>MOL_PROPERTY
G
SciTegic.value.DoubleValue
78.201

@<SCITEGIC>MOL_PROPERTY
E
SciTegic.value.DoubleValue
45.573

@<SCITEGIC>MOL_PROPERTY
-TS
SciTegic.value.DoubleValue
32.628

@<SCITEGIC>MOL_PROPERTY
U+W
SciTegic.value.DoubleValue
24.111

@<SCITEGIC>MOL_PROPERTY
U
SciTegic.value.DoubleValue
73.569

@<SCITEGIC>MOL_PROPERTY
W
SciTegic.value.DoubleValue
-49.458

@<SCITEGIC>MOL_PROPERTY
W(PB)
SciTegic.value.DoubleValue
-51.694

@<SCITEGIC>MOL_PROPERTY
W(SA)
SciTegic.value.DoubleValue
2.236

@<SCITEGIC>MOL_PROPERTY
Valence
SciTegic.value.DoubleValue
4.232

@<SCITEGIC>MOL_PROPERTY
Coulomb
SciTegic.value.DoubleValue
68.955

@<SCITEGIC>MOL_PROPERTY
VdW
SciTegic.value.DoubleValue
0.382

@<SCITEGIC>MOL_PROPERTY
VdW6
SciTegic.value.DoubleValue
-7.610

@<SCITEGIC>MOL_PROPERTY
VdW12
SciTegic.value.DoubleValue
7.992

@<SCITEGIC>MOL_PROPERTY
Bond
SciTegic.value.DoubleValue
0.222

@<SCITEGIC>MOL_PROPERTY
Angle
SciTegic.value.DoubleValue
1.074

@<SCITEGIC>MOL_PROPERTY
Pdih
SciTegic.value.DoubleValue
2.936

@<SCITEGIC>MOL_PROPERTY
Idih
SciTegic.value.DoubleValue
0.000

@<SCITEGIC>MOL_PROPERTY
Tether
SciTegic.value.DoubleValue
0.000

@<TRIPOS>MOLECULE
guest-s12_vm2.mol2 : vm2 ligand conformer 111
          26          25           1
SMALL
USER_CHARGES
 
@<TRIPOS>ATOM
       1    N1      19.455079   18.767633   25.958556 N.4        1 MOL1        -0.4857
       2    H1      19.443776   18.596380   26.976489 H          1 MOL1         0.3650
       3    H2      18.992423   17.943924   25.545157 H          1 MOL1         0.3650
       4    C1      20.895569   18.860095   25.481005 C.3        1 MOL1         0.0209
       5    H3      21.496400   18.270922   26.178572 H          1 MOL1         0.0967
       6    H4      21.217225   19.901306   25.563102 H          1 MOL1         0.0967
       7    C2      21.159636   18.326414   24.055146 C.3        1 MOL1        -0.1378
       8    H5      22.242491   18.362395   23.876656 H          1 MOL1         0.0993
       9    H6      20.873332   17.267626   24.003629 H          1 MOL1         0.0993
      10    C3      20.435230   19.118824   22.941623 C.3        1 MOL1        -0.1338
      11    H7      20.654433   20.189930   23.050636 H          1 MOL1         0.0993
      12    H8      19.351646   18.995125   23.056622 H          1 MOL1         0.0993
      13    C4      20.858364   18.644486   21.530318 C.3        1 MOL1        -0.1338
      14    H9      21.951944   18.705899   21.442811 H          1 MOL1         0.0993
      15    H10     20.597361   17.584930   21.401665 H          1 MOL1         0.0993
      16    C5      20.227985   19.474741   20.385797 C.3        1 MOL1        -0.1313
      17    H11     20.658994   19.142497   19.430957 H          1 MOL1         0.0993
      18    H12     20.506465   20.532085   20.496634 H          1 MOL1         0.0993
      19    C6      18.689297   19.347930   20.308156 C.3        1 MOL1        -0.2328
      20    H13     18.203239   19.782796   21.190199 H          1 MOL1         0.1004
      21    H14     18.382949   18.296803   20.228965 H          1 MOL1         0.1004
      22    H15     18.304548   19.876499   19.426393 H          1 MOL1         0.1004
      23    C7      18.686841   20.049876   25.656399 C.3        1 MOL1        -0.0781
      24    H16     18.666634   20.222600   24.579678 H          1 MOL1         0.0978
      25    H17     17.665790   19.950395   26.031398 H          1 MOL1         0.0978
      26    H18     19.180531   20.887370   26.154085 H          1 MOL1         0.0978
@<TRIPOS>BOND
    1     1     2    1
    2     1     3    1
    3     1     4    1
    4     4     5    1
    5     4     6    1
    6     4     7    1
    7     7     8    1
    8     7     9    1
    9     7    10    1
   10    10    11    1
   11    10    12    1
   12    10    13    1
   13    13    14    1
   14    13    15    1
   15    13    16    1
   16    16    17    1
   17    16    18    1
   18    16    19    1
   19    19    20    1
   20    19    21    1
   21    19    22    1
   22     1    23    1
   23    23    24    1
   24    23    25    1
   25    23    26    1
@<TRIPOS>SUBSTRUCTURE
       1 MOL1            1 RESIDUE      1      MOL     
@<SCITEGIC>MOL_PROPERTY
VM2 Rank
SciTegic.value.IntegerValue
111

@<SCITEGIC>MOL_PROPERTY
Conf_Id
SciTegic.value.IntegerValue
1305

@<SCITEGIC>MOL_PROPERTY
Probability
SciTegic.value.DoubleValue
0.07

@<SCITEGIC>MOL_PROPERTY
Sum Probability
SciTegic.value.DoubleValue
98.42

@<SCITEGIC>MOL_PROPERTY
Delta G
SciTegic.value.DoubleValue
2.741

@<SCITEGIC>MOL_PROPERTY
G
SciTegic.value.DoubleValue
78.207

@<SCITEGIC>MOL_PROPERTY
E
SciTegic.value.DoubleValue
45.579

@<SCITEGIC>MOL_PROPERTY
-TS
SciTegic.value.DoubleValue
32.628

@<SCITEGIC>MOL_PROPERTY
U+W
SciTegic.value.DoubleValue
24.118

@<SCITEGIC>MOL_PROPERTY
U
SciTegic.value.DoubleValue
73.676

@<SCITEGIC>MOL_PROPERTY
W
SciTegic.value.DoubleValue
-49.558

@<SCITEGIC>MOL_PROPERTY
W(PB)
SciTegic.value.DoubleValue
-51.786

@<SCITEGIC>MOL_PROPERTY
W(SA)
SciTegic.value.DoubleValue
2.228

@<SCITEGIC>MOL_PROPERTY
Valence
SciTegic.value.DoubleValue
4.237

@<SCITEGIC>MOL_PROPERTY
Coulomb
SciTegic.value.DoubleValue
69.060

@<SCITEGIC>MOL_PROPERTY
VdW
SciTegic.value.DoubleValue
0.379

@<SCITEGIC>MOL_PROPERTY
VdW6
SciTegic.value.DoubleValue
-7.629

@<SCITEGIC>MOL_PROPERTY
VdW12
SciTegic.value.DoubleValue
8.008

@<SCITEGIC>MOL_PROPERTY
Bond
SciTegic.value.DoubleValue
0.224

@<SCITEGIC>MOL_PROPERTY
Angle
SciTegic.value.DoubleValue
1.075

@<SCITEGIC>MOL_PROPERTY
Pdih
SciTegic.value.DoubleValue
2.937

@<SCITEGIC>MOL_PROPERTY
Idih
SciTegic.value.DoubleValue
0.000

@<SCITEGIC>MOL_PROPERTY
Tether
SciTegic.value.DoubleValue
0.000

@<TRIPOS>MOLECULE
guest-s12_vm2.mol2 : vm2 ligand conformer 112
          26          25           1
SMALL
USER_CHARGES
 
@<TRIPOS>ATOM
       1    N1      20.264491   19.276669   26.097561 N.4        1 MOL1        -0.4857
       2    H1      21.275789   19.219241   25.904024 H          1 MOL1         0.3650
       3    H2      20.179249   19.125940   27.115229 H          1 MOL1         0.3650
       4    C1      19.522035   18.172112   25.362531 C.3        1 MOL1         0.0209
       5    H3      18.484028   18.487120   25.229737 H          1 MOL1         0.0967
       6    H4      19.522788   17.300224   26.021725 H          1 MOL1         0.0967
       7    C2      20.132578   17.746957   24.008261 C.3        1 MOL1        -0.1378
       8    H5      21.158800   17.390417   24.167587 H          1 MOL1         0.0993
       9    H6      19.561261   16.886631   23.635096 H          1 MOL1         0.0993
      10    C3      20.125816   18.861886   22.936224 C.3        1 MOL1        -0.1338
      11    H7      20.790152   19.678127   23.248027 H          1 MOL1         0.0993
      12    H8      19.113155   19.278539   22.856451 H          1 MOL1         0.0993
      13    C4      20.589886   18.334636   21.557004 C.3        1 MOL1        -0.1338
      14    H9      21.569770   17.850176   21.669081 H          1 MOL1         0.0993
      15    H10     19.898830   17.556051   21.205497 H          1 MOL1         0.0993
      16    C5      20.709287   19.442053   20.481902 C.3        1 MOL1        -0.1313
      17    H11     21.137668   19.003231   19.569873 H          1 MOL1         0.0993
      18    H12     21.420923   20.209834   20.816407 H          1 MOL1         0.0993
      19    C6      19.358081   20.104597   20.128708 C.3        1 MOL1        -0.2328
      20    H13     19.482985   20.813669   19.300135 H          1 MOL1         0.1004
      21    H14     18.947248   20.661899   20.979617 H          1 MOL1         0.1004
      22    H15     18.619068   19.354202   19.819258 H          1 MOL1         0.1004
      23    C7      19.705827   20.651090   25.744810 C.3        1 MOL1        -0.0781
      24    H16     18.647194   20.685191   26.011167 H          1 MOL1         0.0978
      25    H17     20.250556   21.412389   26.307622 H          1 MOL1         0.0978
      26    H18     19.821788   20.832832   24.675655 H          1 MOL1         0.0978
@<TRIPOS>BOND
    1     1     2    1
    2     1     3    1
    3     1     4    1
    4     4     5    1
    5     4     6    1
    6     4     7    1
    7     7     8    1
    8     7     9    1
    9     7    10    1
   10    10    11    1
   11    10    12    1
   12    10    13    1
   13    13    14    1
   14    13    15    1
   15    13    16    1
   16    16    17    1
   17    16    18    1
   18    16    19    1
   19    19    20    1
   20    19    21    1
   21    19    22    1
   22     1    23    1
   23    23    24    1
   24    23    25    1
   25    23    26    1
@<TRIPOS>SUBSTRUCTURE
       1 MOL1            1 RESIDUE      1      MOL     
@<SCITEGIC>MOL_PROPERTY
VM2 Rank
SciTegic.value.IntegerValue
112

@<SCITEGIC>MOL_PROPERTY
Conf_Id
SciTegic.value.IntegerValue
264

@<SCITEGIC>MOL_PROPERTY
Probability
SciTegic.value.DoubleValue
0.07

@<SCITEGIC>MOL_PROPERTY
Sum Probability
SciTegic.value.DoubleValue
98.48

@<SCITEGIC>MOL_PROPERTY
Delta G
SciTegic.value.DoubleValue
2.741

@<SCITEGIC>MOL_PROPERTY
G
SciTegic.value.DoubleValue
78.207

@<SCITEGIC>MOL_PROPERTY
E
SciTegic.value.DoubleValue
45.579

@<SCITEGIC>MOL_PROPERTY
-TS
SciTegic.value.DoubleValue
32.629

@<SCITEGIC>MOL_PROPERTY
U+W
SciTegic.value.DoubleValue
24.117

@<SCITEGIC>MOL_PROPERTY
U
SciTegic.value.DoubleValue
73.569

@<SCITEGIC>MOL_PROPERTY
W
SciTegic.value.DoubleValue
-49.452

@<SCITEGIC>MOL_PROPERTY
W(PB)
SciTegic.value.DoubleValue
-51.697

@<SCITEGIC>MOL_PROPERTY
W(SA)
SciTegic.value.DoubleValue
2.245

@<SCITEGIC>MOL_PROPERTY
Valence
SciTegic.value.DoubleValue
4.233

@<SCITEGIC>MOL_PROPERTY
Coulomb
SciTegic.value.DoubleValue
68.955

@<SCITEGIC>MOL_PROPERTY
VdW
SciTegic.value.DoubleValue
0.381

@<SCITEGIC>MOL_PROPERTY
VdW6
SciTegic.value.DoubleValue
-7.610

@<SCITEGIC>MOL_PROPERTY
VdW12
SciTegic.value.DoubleValue
7.991

@<SCITEGIC>MOL_PROPERTY
Bond
SciTegic.value.DoubleValue
0.222

@<SCITEGIC>MOL_PROPERTY
Angle
SciTegic.value.DoubleValue
1.075

@<SCITEGIC>MOL_PROPERTY
Pdih
SciTegic.value.DoubleValue
2.936

@<SCITEGIC>MOL_PROPERTY
Idih
SciTegic.value.DoubleValue
0.000

@<SCITEGIC>MOL_PROPERTY
Tether
SciTegic.value.DoubleValue
0.000

@<TRIPOS>MOLECULE
guest-s12_vm2.mol2 : vm2 ligand conformer 113
          26          25           1
SMALL
USER_CHARGES
 
@<TRIPOS>ATOM
       1    N1      19.278220   18.469237   25.314427 N.4        1 MOL1        -0.4857
       2    H1      18.915840   18.187721   24.392365 H          1 MOL1         0.3650
       3    H2      18.521505   18.244353   25.979713 H          1 MOL1         0.3650
       4    C1      19.541750   19.965521   25.333406 C.3        1 MOL1         0.0209
       5    H3      19.902053   20.215216   26.334548 H          1 MOL1         0.0967
       6    H4      18.581370   20.467599   25.191639 H          1 MOL1         0.0967
       7    C2      20.546958   20.502263   24.286895 C.3        1 MOL1        -0.1378
       8    H5      20.704482   21.565812   24.509890 H          1 MOL1         0.0993
       9    H6      21.527893   20.026352   24.412783 H          1 MOL1         0.0993
      10    C3      20.071478   20.388787   22.815259 C.3        1 MOL1        -0.1338
      11    H7      20.610332   21.142710   22.224668 H          1 MOL1         0.0993
      12    H8      19.006914   20.651956   22.745500 H          1 MOL1         0.0993
      13    C4      20.325075   19.002196   22.174022 C.3        1 MOL1        -0.1338
      14    H9      21.388064   18.741912   22.272168 H          1 MOL1         0.0993
      15    H10     19.759704   18.225276   22.699564 H          1 MOL1         0.0993
      16    C5      19.929976   18.981552   20.680535 C.3        1 MOL1        -0.1313
      17    H11     20.501951   19.744470   20.133919 H          1 MOL1         0.0993
      18    H12     18.868292   19.245039   20.573724 H          1 MOL1         0.0993
      19    C6      20.181097   17.599064   20.041263 C.3        1 MOL1        -0.2328
      20    H13     19.594315   16.818829   20.543336 H          1 MOL1         0.1004
      21    H14     21.241628   17.322187   20.103034 H          1 MOL1         0.1004
      22    H15     19.895989   17.604702   18.981214 H          1 MOL1         0.1004
      23    C7      20.533445   17.681380   25.671192 C.3        1 MOL1        -0.0781
      24    H16     20.881666   17.990054   26.659231 H          1 MOL1         0.0978
      25    H17     20.295885   16.615316   25.680200 H          1 MOL1         0.0978
      26    H18     21.307218   17.879056   24.926690 H          1 MOL1         0.0978
@<TRIPOS>BOND
    1     1     2    1
    2     1     3    1
    3     1     4    1
    4     4     5    1
    5     4     6    1
    6     4     7    1
    7     7     8    1
    8     7     9    1
    9     7    10    1
   10    10    11    1
   11    10    12    1
   12    10    13    1
   13    13    14    1
   14    13    15    1
   15    13    16    1
   16    16    17    1
   17    16    18    1
   18    16    19    1
   19    19    20    1
   20    19    21    1
   21    19    22    1
   22     1    23    1
   23    23    24    1
   24    23    25    1
   25    23    26    1
@<TRIPOS>SUBSTRUCTURE
       1 MOL1            1 RESIDUE      1      MOL     
@<SCITEGIC>MOL_PROPERTY
VM2 Rank
SciTegic.value.IntegerValue
113

@<SCITEGIC>MOL_PROPERTY
Conf_Id
SciTegic.value.IntegerValue
970

@<SCITEGIC>MOL_PROPERTY
Probability
SciTegic.value.DoubleValue
0.07

@<SCITEGIC>MOL_PROPERTY
Sum Probability
SciTegic.value.DoubleValue
98.55

@<SCITEGIC>MOL_PROPERTY
Delta G
SciTegic.value.DoubleValue
2.753

@<SCITEGIC>MOL_PROPERTY
G
SciTegic.value.DoubleValue
78.219

@<SCITEGIC>MOL_PROPERTY
E
SciTegic.value.DoubleValue
45.866

@<SCITEGIC>MOL_PROPERTY
-TS
SciTegic.value.DoubleValue
32.354

@<SCITEGIC>MOL_PROPERTY
U+W
SciTegic.value.DoubleValue
24.404

@<SCITEGIC>MOL_PROPERTY
U
SciTegic.value.DoubleValue
74.362

@<SCITEGIC>MOL_PROPERTY
W
SciTegic.value.DoubleValue
-49.958

@<SCITEGIC>MOL_PROPERTY
W(PB)
SciTegic.value.DoubleValue
-52.191

@<SCITEGIC>MOL_PROPERTY
W(SA)
SciTegic.value.DoubleValue
2.233

@<SCITEGIC>MOL_PROPERTY
Valence
SciTegic.value.DoubleValue
3.849

@<SCITEGIC>MOL_PROPERTY
Coulomb
SciTegic.value.DoubleValue
70.385

@<SCITEGIC>MOL_PROPERTY
VdW
SciTegic.value.DoubleValue
0.128

@<SCITEGIC>MOL_PROPERTY
VdW6
SciTegic.value.DoubleValue
-7.956

@<SCITEGIC>MOL_PROPERTY
VdW12
SciTegic.value.DoubleValue
8.084

@<SCITEGIC>MOL_PROPERTY
Bond
SciTegic.value.DoubleValue
0.231

@<SCITEGIC>MOL_PROPERTY
Angle
SciTegic.value.DoubleValue
1.284

@<SCITEGIC>MOL_PROPERTY
Pdih
SciTegic.value.DoubleValue
2.334

@<SCITEGIC>MOL_PROPERTY
Idih
SciTegic.value.DoubleValue
0.000

@<SCITEGIC>MOL_PROPERTY
Tether
SciTegic.value.DoubleValue
0.000

@<TRIPOS>MOLECULE
guest-s12_vm2.mol2 : vm2 ligand conformer 114
          26          25           1
SMALL
USER_CHARGES
 
@<TRIPOS>ATOM
       1    N1      20.508430   18.875444   25.995649 N.4        1 MOL1        -0.4857
       2    H1      21.156159   18.165727   25.621228 H          1 MOL1         0.3650
       3    H2      20.483170   18.702462   27.013038 H          1 MOL1         0.3650
       4    C1      19.116026   18.677547   25.418021 C.3        1 MOL1         0.0209
       5    H3      18.585118   19.631353   25.470127 H          1 MOL1         0.0967
       6    H4      18.599841   17.973767   26.076026 H          1 MOL1         0.0967
       7    C2      19.065840   18.111875   23.980971 C.3        1 MOL1        -0.1378
       8    H5      19.563480   17.133386   23.957048 H          1 MOL1         0.0993
       9    H6      18.013317   17.929179   23.726914 H          1 MOL1         0.0993
      10    C3      19.690879   19.042647   22.915327 C.3        1 MOL1        -0.1338
      11    H7      20.766324   19.139992   23.106696 H          1 MOL1         0.0993
      12    H8      19.252338   20.046388   23.001260 H          1 MOL1         0.0993
      13    C4      19.472201   18.502861   21.481236 C.3        1 MOL1        -0.1338
      14    H9      19.950335   17.518893   21.378616 H          1 MOL1         0.0993
      15    H10     18.397641   18.342607   21.316964 H          1 MOL1         0.0993
      16    C5      20.000269   19.451715   20.377856 C.3        1 MOL1        -0.1313
      17    H11     19.506882   20.430167   20.461596 H          1 MOL1         0.0993
      18    H12     19.713078   19.046266   19.397546 H          1 MOL1         0.0993
      19    C6      21.534436   19.638903   20.408902 C.3        1 MOL1        -0.2328
      20    H13     21.859760   20.156509   21.319730 H          1 MOL1         0.1004
      21    H14     21.865150   20.240743   19.552550 H          1 MOL1         0.1004
      22    H15     22.051578   18.671933   20.358649 H          1 MOL1         0.1004
      23    C7      21.019920   20.289009   25.739038 C.3        1 MOL1        -0.0781
      24    H16     21.079538   20.470297   24.665188 H          1 MOL1         0.0978
      25    H17     20.333308   21.005303   26.195441 H          1 MOL1         0.0978
      26    H18     22.011326   20.395740   26.184895 H          1 MOL1         0.0978
@<TRIPOS>BOND
    1     1     2    1
    2     1     3    1
    3     1     4    1
    4     4     5    1
    5     4     6    1
    6     4     7    1
    7     7     8    1
    8     7     9    1
    9     7    10    1
   10    10    11    1
   11    10    12    1
   12    10    13    1
   13    13    14    1
   14    13    15    1
   15    13    16    1
   16    16    17    1
   17    16    18    1
   18    16    19    1
   19    19    20    1
   20    19    21    1
   21    19    22    1
   22     1    23    1
   23    23    24    1
   24    23    25    1
   25    23    26    1
@<TRIPOS>SUBSTRUCTURE
       1 MOL1            1 RESIDUE      1      MOL     
@<SCITEGIC>MOL_PROPERTY
VM2 Rank
SciTegic.value.IntegerValue
114

@<SCITEGIC>MOL_PROPERTY
Conf_Id
SciTegic.value.IntegerValue
1055

@<SCITEGIC>MOL_PROPERTY
Probability
SciTegic.value.DoubleValue
0.07

@<SCITEGIC>MOL_PROPERTY
Sum Probability
SciTegic.value.DoubleValue
98.62

@<SCITEGIC>MOL_PROPERTY
Delta G
SciTegic.value.DoubleValue
2.763

@<SCITEGIC>MOL_PROPERTY
G
SciTegic.value.DoubleValue
78.230

@<SCITEGIC>MOL_PROPERTY
E
SciTegic.value.DoubleValue
45.602

@<SCITEGIC>MOL_PROPERTY
-TS
SciTegic.value.DoubleValue
32.628

@<SCITEGIC>MOL_PROPERTY
U+W
SciTegic.value.DoubleValue
24.140

@<SCITEGIC>MOL_PROPERTY
U
SciTegic.value.DoubleValue
73.676

@<SCITEGIC>MOL_PROPERTY
W
SciTegic.value.DoubleValue
-49.536

@<SCITEGIC>MOL_PROPERTY
W(PB)
SciTegic.value.DoubleValue
-51.781

@<SCITEGIC>MOL_PROPERTY
W(SA)
SciTegic.value.DoubleValue
2.245

@<SCITEGIC>MOL_PROPERTY
Valence
SciTegic.value.DoubleValue
4.237

@<SCITEGIC>MOL_PROPERTY
Coulomb
SciTegic.value.DoubleValue
69.060

@<SCITEGIC>MOL_PROPERTY
VdW
SciTegic.value.DoubleValue
0.379

@<SCITEGIC>MOL_PROPERTY
VdW6
SciTegic.value.DoubleValue
-7.629

@<SCITEGIC>MOL_PROPERTY
VdW12
SciTegic.value.DoubleValue
8.009

@<SCITEGIC>MOL_PROPERTY
Bond
SciTegic.value.DoubleValue
0.224

@<SCITEGIC>MOL_PROPERTY
Angle
SciTegic.value.DoubleValue
1.074

@<SCITEGIC>MOL_PROPERTY
Pdih
SciTegic.value.DoubleValue
2.938

@<SCITEGIC>MOL_PROPERTY
Idih
SciTegic.value.DoubleValue
0.000

@<SCITEGIC>MOL_PROPERTY
Tether
SciTegic.value.DoubleValue
0.000

@<TRIPOS>MOLECULE
guest-s12_vm2.mol2 : vm2 ligand conformer 115
          26          25           1
SMALL
USER_CHARGES
 
@<TRIPOS>ATOM
       1    N1      20.785535   18.622388   25.367890 N.4        1 MOL1        -0.4857
       2    H1      21.523348   18.549219   26.086272 H          1 MOL1         0.3650
       3    H2      21.260947   18.426212   24.475544 H          1 MOL1         0.3650
       4    C1      20.226089   20.035036   25.357934 C.3        1 MOL1         0.0209
       5    H3      21.073573   20.720837   25.280737 H          1 MOL1         0.0967
       6    H4      19.753364   20.199844   26.329439 H          1 MOL1         0.0967
       7    C2      19.209842   20.366635   24.239455 C.3        1 MOL1        -0.1378
       8    H5      18.337924   19.702754   24.299429 H          1 MOL1         0.0993
       9    H6      18.826908   21.375372   24.443143 H          1 MOL1         0.0993
      10    C3      19.800845   20.361222   22.805805 C.3        1 MOL1        -0.1338
      11    H7      20.793563   20.832307   22.809405 H          1 MOL1         0.0993
      12    H8      19.165166   20.996546   22.173479 H          1 MOL1         0.0993
      13    C4      19.875216   18.956625   22.157953 C.3        1 MOL1        -0.1338
      14    H9      20.545545   18.304333   22.727712 H          1 MOL1         0.0993
      15    H10     18.881330   18.488731   22.182305 H          1 MOL1         0.0993
      16    C5      20.371323   19.026155   20.696420 C.3        1 MOL1        -0.1313
      17    H11     21.363987   19.496825   20.663332 H          1 MOL1         0.0993
      18    H12     19.698904   19.663701   20.105338 H          1 MOL1         0.0993
      19    C6      20.446869   17.626100   20.050555 C.3        1 MOL1        -0.2328
      20    H13     21.140294   16.974821   20.598418 H          1 MOL1         0.1004
      21    H14     20.799601   17.696270   19.013407 H          1 MOL1         0.1004
      22    H15     19.461173   17.142916   20.038800 H          1 MOL1         0.1004
      23    C7      19.692280   17.595840   25.640989 C.3        1 MOL1        -0.0781
      24    H16     18.948793   17.639552   24.842617 H          1 MOL1         0.0978
      25    H17     20.137926   16.599187   25.674018 H          1 MOL1         0.0978
      26    H18     19.220654   17.820973   26.599969 H          1 MOL1         0.0978
@<TRIPOS>BOND
    1     1     2    1
    2     1     3    1
    3     1     4    1
    4     4     5    1
    5     4     6    1
    6     4     7    1
    7     7     8    1
    8     7     9    1
    9     7    10    1
   10    10    11    1
   11    10    12    1
   12    10    13    1
   13    13    14    1
   14    13    15    1
   15    13    16    1
   16    16    17    1
   17    16    18    1
   18    16    19    1
   19    19    20    1
   20    19    21    1
   21    19    22    1
   22     1    23    1
   23    23    24    1
   24    23    25    1
   25    23    26    1
@<TRIPOS>SUBSTRUCTURE
       1 MOL1            1 RESIDUE      1      MOL     
@<SCITEGIC>MOL_PROPERTY
VM2 Rank
SciTegic.value.IntegerValue
115

@<SCITEGIC>MOL_PROPERTY
Conf_Id
SciTegic.value.IntegerValue
1364

@<SCITEGIC>MOL_PROPERTY
Probability
SciTegic.value.DoubleValue
0.06

@<SCITEGIC>MOL_PROPERTY
Sum Probability
SciTegic.value.DoubleValue
98.67

@<SCITEGIC>MOL_PROPERTY
Delta G
SciTegic.value.DoubleValue
2.816

@<SCITEGIC>MOL_PROPERTY
G
SciTegic.value.DoubleValue
78.282

@<SCITEGIC>MOL_PROPERTY
E
SciTegic.value.DoubleValue
45.924

@<SCITEGIC>MOL_PROPERTY
-TS
SciTegic.value.DoubleValue
32.358

@<SCITEGIC>MOL_PROPERTY
U+W
SciTegic.value.DoubleValue
24.462

@<SCITEGIC>MOL_PROPERTY
U
SciTegic.value.DoubleValue
74.362

@<SCITEGIC>MOL_PROPERTY
W
SciTegic.value.DoubleValue
-49.900

@<SCITEGIC>MOL_PROPERTY
W(PB)
SciTegic.value.DoubleValue
-52.137

@<SCITEGIC>MOL_PROPERTY
W(SA)
SciTegic.value.DoubleValue
2.237

@<SCITEGIC>MOL_PROPERTY
Valence
SciTegic.value.DoubleValue
3.850

@<SCITEGIC>MOL_PROPERTY
Coulomb
SciTegic.value.DoubleValue
70.384

@<SCITEGIC>MOL_PROPERTY
VdW
SciTegic.value.DoubleValue
0.128

@<SCITEGIC>MOL_PROPERTY
VdW6
SciTegic.value.DoubleValue
-7.956

@<SCITEGIC>MOL_PROPERTY
VdW12
SciTegic.value.DoubleValue
8.084

@<SCITEGIC>MOL_PROPERTY
Bond
SciTegic.value.DoubleValue
0.231

@<SCITEGIC>MOL_PROPERTY
Angle
SciTegic.value.DoubleValue
1.283

@<SCITEGIC>MOL_PROPERTY
Pdih
SciTegic.value.DoubleValue
2.337

@<SCITEGIC>MOL_PROPERTY
Idih
SciTegic.value.DoubleValue
0.000

@<SCITEGIC>MOL_PROPERTY
Tether
SciTegic.value.DoubleValue
0.000

@<TRIPOS>MOLECULE
guest-s12_vm2.mol2 : vm2 ligand conformer 116
          26          25           1
SMALL
USER_CHARGES
 
@<TRIPOS>ATOM
       1    N1      19.971637   18.688597   26.234546 N.4        1 MOL1        -0.4857
       2    H1      20.634214   17.933918   26.000209 H          1 MOL1         0.3650
       3    H2      19.524366   18.386719   27.114586 H          1 MOL1         0.3650
       4    C1      18.913291   18.818004   25.150953 C.3        1 MOL1         0.0209
       5    H3      18.532582   19.842310   25.164836 H          1 MOL1         0.0967
       6    H4      18.091660   18.154678   25.433160 H          1 MOL1         0.0967
       7    C2      19.369324   18.433289   23.725596 C.3        1 MOL1        -0.1378
       8    H5      19.702286   17.387066   23.720578 H          1 MOL1         0.0993
       9    H6      18.487711   18.480473   23.075227 H          1 MOL1         0.0993
      10    C3      20.488335   19.341243   23.156779 C.3        1 MOL1        -0.1338
      11    H7      21.381671   19.247145   23.787323 H          1 MOL1         0.0993
      12    H8      20.177331   20.393788   23.208541 H          1 MOL1         0.0993
      13    C4      20.895079   18.989511   21.704112 C.3        1 MOL1        -0.1338
      14    H9      21.789514   19.572543   21.444276 H          1 MOL1         0.0993
      15    H10     21.190798   17.932705   21.649080 H          1 MOL1         0.0993
      16    C5      19.790323   19.279097   20.659862 C.3        1 MOL1        -0.1313
      17    H11     19.456594   20.322128   20.751947 H          1 MOL1         0.0993
      18    H12     18.912961   18.646427   20.847402 H          1 MOL1         0.0993
      19    C6      20.288077   19.027384   19.220421 C.3        1 MOL1        -0.2328
      20    H13     21.141452   19.674136   18.978251 H          1 MOL1         0.1004
      21    H14     19.492259   19.234467   18.493225 H          1 MOL1         0.1004
      22    H15     20.601791   17.983686   19.088194 H          1 MOL1         0.1004
      23    C7      20.691935   20.012875   26.464731 C.3        1 MOL1        -0.0781
      24    H16     21.432290   19.883066   27.257250 H          1 MOL1         0.0978
      25    H17     21.189175   20.326446   25.545938 H          1 MOL1         0.0978
      26    H18     19.962450   20.768507   26.764218 H          1 MOL1         0.0978
@<TRIPOS>BOND
    1     1     2    1
    2     1     3    1
    3     1     4    1
    4     4     5    1
    5     4     6    1
    6     4     7    1
    7     7     8    1
    8     7     9    1
    9     7    10    1
   10    10    11    1
   11    10    12    1
   12    10    13    1
   13    13    14    1
   14    13    15    1
   15    13    16    1
   16    16    17    1
   17    16    18    1
   18    16    19    1
   19    19    20    1
   20    19    21    1
   21    19    22    1
   22     1    23    1
   23    23    24    1
   24    23    25    1
   25    23    26    1
@<TRIPOS>SUBSTRUCTURE
       1 MOL1            1 RESIDUE      1      MOL     
@<SCITEGIC>MOL_PROPERTY
VM2 Rank
SciTegic.value.IntegerValue
116

@<SCITEGIC>MOL_PROPERTY
Conf_Id
SciTegic.value.IntegerValue
1343

@<SCITEGIC>MOL_PROPERTY
Probability
SciTegic.value.DoubleValue
0.06

@<SCITEGIC>MOL_PROPERTY
Sum Probability
SciTegic.value.DoubleValue
98.73

@<SCITEGIC>MOL_PROPERTY
Delta G
SciTegic.value.DoubleValue
2.828

@<SCITEGIC>MOL_PROPERTY
G
SciTegic.value.DoubleValue
78.295

@<SCITEGIC>MOL_PROPERTY
E
SciTegic.value.DoubleValue
45.749

@<SCITEGIC>MOL_PROPERTY
-TS
SciTegic.value.DoubleValue
32.546

@<SCITEGIC>MOL_PROPERTY
U+W
SciTegic.value.DoubleValue
24.287

@<SCITEGIC>MOL_PROPERTY
U
SciTegic.value.DoubleValue
73.757

@<SCITEGIC>MOL_PROPERTY
W
SciTegic.value.DoubleValue
-49.470

@<SCITEGIC>MOL_PROPERTY
W(PB)
SciTegic.value.DoubleValue
-51.699

@<SCITEGIC>MOL_PROPERTY
W(SA)
SciTegic.value.DoubleValue
2.229

@<SCITEGIC>MOL_PROPERTY
Valence
SciTegic.value.DoubleValue
4.423

@<SCITEGIC>MOL_PROPERTY
Coulomb
SciTegic.value.DoubleValue
68.887

@<SCITEGIC>MOL_PROPERTY
VdW
SciTegic.value.DoubleValue
0.447

@<SCITEGIC>MOL_PROPERTY
VdW6
SciTegic.value.DoubleValue
-7.490

@<SCITEGIC>MOL_PROPERTY
VdW12
SciTegic.value.DoubleValue
7.937

@<SCITEGIC>MOL_PROPERTY
Bond
SciTegic.value.DoubleValue
0.232

@<SCITEGIC>MOL_PROPERTY
Angle
SciTegic.value.DoubleValue
1.146

@<SCITEGIC>MOL_PROPERTY
Pdih
SciTegic.value.DoubleValue
3.045

@<SCITEGIC>MOL_PROPERTY
Idih
SciTegic.value.DoubleValue
0.000

@<SCITEGIC>MOL_PROPERTY
Tether
SciTegic.value.DoubleValue
0.000

@<TRIPOS>MOLECULE
guest-s12_vm2.mol2 : vm2 ligand conformer 117
          26          25           1
SMALL
USER_CHARGES
 
@<TRIPOS>ATOM
       1    N1      19.532069   18.852547   25.906359 N.4        1 MOL1        -0.4857
       2    H1      20.237482   18.485184   26.563819 H          1 MOL1         0.3650
       3    H2      18.899112   18.061034   25.712555 H          1 MOL1         0.3650
       4    C1      20.199941   19.314175   24.626940 C.3        1 MOL1         0.0209
       5    H3      20.869260   20.140530   24.879063 H          1 MOL1         0.0967
       6    H4      19.420318   19.696794   23.966663 H          1 MOL1         0.0967
       7    C2      20.999229   18.199916   23.922149 C.3        1 MOL1        -0.1378
       8    H5      21.769029   17.840785   24.618166 H          1 MOL1         0.0993
       9    H6      20.349937   17.340713   23.707615 H          1 MOL1         0.0993
      10    C3      21.694471   18.679674   22.622903 C.3        1 MOL1        -0.1338
      11    H7      22.585005   18.056327   22.461882 H          1 MOL1         0.0993
      12    H8      22.069389   19.704436   22.753030 H          1 MOL1         0.0993
      13    C4      20.823438   18.589220   21.342656 C.3        1 MOL1        -0.1338
      14    H9      21.443552   18.888031   20.486129 H          1 MOL1         0.0993
      15    H10     20.543094   17.541928   21.164036 H          1 MOL1         0.0993
      16    C5      19.548620   19.464057   21.366872 C.3        1 MOL1        -0.1313
      17    H11     19.805765   20.491914   21.658602 H          1 MOL1         0.0993
      18    H12     18.844765   19.078823   22.115960 H          1 MOL1         0.0993
      19    C6      18.844708   19.483005   19.993140 C.3        1 MOL1        -0.2328
      20    H13     18.552121   18.470566   19.685590 H          1 MOL1         0.1004
      21    H14     19.501047   19.899522   19.217946 H          1 MOL1         0.1004
      22    H15     17.936855   20.098933   20.031241 H          1 MOL1         0.1004
      23    C7      18.765523   20.007406   26.535980 C.3        1 MOL1        -0.0781
      24    H16     18.289749   19.661851   27.456507 H          1 MOL1         0.0978
      25    H17     19.460687   20.818875   26.762301 H          1 MOL1         0.0978
      26    H18     18.003637   20.357039   25.835818 H          1 MOL1         0.0978
@<TRIPOS>BOND
    1     1     2    1
    2     1     3    1
    3     1     4    1
    4     4     5    1
    5     4     6    1
    6     4     7    1
    7     7     8    1
    8     7     9    1
    9     7    10    1
   10    10    11    1
   11    10    12    1
   12    10    13    1
   13    13    14    1
   14    13    15    1
   15    13    16    1
   16    16    17    1
   17    16    18    1
   18    16    19    1
   19    19    20    1
   20    19    21    1
   21    19    22    1
   22     1    23    1
   23    23    24    1
   24    23    25    1
   25    23    26    1
@<TRIPOS>SUBSTRUCTURE
       1 MOL1            1 RESIDUE      1      MOL     
@<SCITEGIC>MOL_PROPERTY
VM2 Rank
SciTegic.value.IntegerValue
117

@<SCITEGIC>MOL_PROPERTY
Conf_Id
SciTegic.value.IntegerValue
244

@<SCITEGIC>MOL_PROPERTY
Probability
SciTegic.value.DoubleValue
0.05

@<SCITEGIC>MOL_PROPERTY
Sum Probability
SciTegic.value.DoubleValue
98.78

@<SCITEGIC>MOL_PROPERTY
Delta G
SciTegic.value.DoubleValue
2.918

@<SCITEGIC>MOL_PROPERTY
G
SciTegic.value.DoubleValue
78.384

@<SCITEGIC>MOL_PROPERTY
E
SciTegic.value.DoubleValue
45.898

@<SCITEGIC>MOL_PROPERTY
-TS
SciTegic.value.DoubleValue
32.486

@<SCITEGIC>MOL_PROPERTY
U+W
SciTegic.value.DoubleValue
24.436

@<SCITEGIC>MOL_PROPERTY
U
SciTegic.value.DoubleValue
73.891

@<SCITEGIC>MOL_PROPERTY
W
SciTegic.value.DoubleValue
-49.455

@<SCITEGIC>MOL_PROPERTY
W(PB)
SciTegic.value.DoubleValue
-51.733

@<SCITEGIC>MOL_PROPERTY
W(SA)
SciTegic.value.DoubleValue
2.278

@<SCITEGIC>MOL_PROPERTY
Valence
SciTegic.value.DoubleValue
4.111

@<SCITEGIC>MOL_PROPERTY
Coulomb
SciTegic.value.DoubleValue
69.672

@<SCITEGIC>MOL_PROPERTY
VdW
SciTegic.value.DoubleValue
0.108

@<SCITEGIC>MOL_PROPERTY
VdW6
SciTegic.value.DoubleValue
-6.998

@<SCITEGIC>MOL_PROPERTY
VdW12
SciTegic.value.DoubleValue
7.106

@<SCITEGIC>MOL_PROPERTY
Bond
SciTegic.value.DoubleValue
0.196

@<SCITEGIC>MOL_PROPERTY
Angle
SciTegic.value.DoubleValue
1.122

@<SCITEGIC>MOL_PROPERTY
Pdih
SciTegic.value.DoubleValue
2.793

@<SCITEGIC>MOL_PROPERTY
Idih
SciTegic.value.DoubleValue
0.000

@<SCITEGIC>MOL_PROPERTY
Tether
SciTegic.value.DoubleValue
0.000

@<TRIPOS>MOLECULE
guest-s12_vm2.mol2 : vm2 ligand conformer 118
          26          25           1
SMALL
USER_CHARGES
 
@<TRIPOS>ATOM
       1    N1      19.757497   18.675097   26.342391 N.4        1 MOL1        -0.4857
       2    H1      19.997607   17.671821   26.345256 H          1 MOL1         0.3650
       3    H2      19.221188   18.818867   27.212726 H          1 MOL1         0.3650
       4    C1      18.868818   18.997301   25.148574 C.3        1 MOL1         0.0209
       5    H3      18.629702   20.063425   25.170439 H          1 MOL1         0.0967
       6    H4      17.938402   18.445239   25.304623 H          1 MOL1         0.0967
       7    C2      19.434283   18.606290   23.764848 C.3        1 MOL1        -0.1378
       8    H5      20.082082   17.724937   23.860178 H          1 MOL1         0.0993
       9    H6      18.587970   18.303014   23.136210 H          1 MOL1         0.0993
      10    C3      20.188426   19.766172   23.065924 C.3        1 MOL1        -0.1338
      11    H7      20.979550   20.145901   23.723085 H          1 MOL1         0.0993
      12    H8      19.499815   20.606867   22.903642 H          1 MOL1         0.0993
      13    C4      20.835261   19.360046   21.718480 C.3        1 MOL1        -0.1338
      14    H9      21.437720   20.203675   21.354105 H          1 MOL1         0.0993
      15    H10     21.536331   18.529986   21.882235 H          1 MOL1         0.0993
      16    C5      19.809129   18.968793   20.628404 C.3        1 MOL1        -0.1313
      17    H11     19.074548   19.776498   20.502800 H          1 MOL1         0.0993
      18    H12     19.250537   18.074855   20.935887 H          1 MOL1         0.0993
      19    C6      20.495952   18.687540   19.274811 C.3        1 MOL1        -0.2328
      20    H13     21.216129   17.863494   19.361381 H          1 MOL1         0.1004
      21    H14     21.032610   19.573838   18.911963 H          1 MOL1         0.1004
      22    H15     19.754850   18.408562   18.514576 H          1 MOL1         0.1004
      23    C7      21.018635   19.528762   26.373568 C.3        1 MOL1        -0.0781
      24    H16     20.739438   20.584283   26.347357 H          1 MOL1         0.0978
      25    H17     21.570831   19.315466   27.291530 H          1 MOL1         0.0978
      26    H18     21.639531   19.284065   25.509841 H          1 MOL1         0.0978
@<TRIPOS>BOND
    1     1     2    1
    2     1     3    1
    3     1     4    1
    4     4     5    1
    5     4     6    1
    6     4     7    1
    7     7     8    1
    8     7     9    1
    9     7    10    1
   10    10    11    1
   11    10    12    1
   12    10    13    1
   13    13    14    1
   14    13    15    1
   15    13    16    1
   16    16    17    1
   17    16    18    1
   18    16    19    1
   19    19    20    1
   20    19    21    1
   21    19    22    1
   22     1    23    1
   23    23    24    1
   24    23    25    1
   25    23    26    1
@<TRIPOS>SUBSTRUCTURE
       1 MOL1            1 RESIDUE      1      MOL     
@<SCITEGIC>MOL_PROPERTY
VM2 Rank
SciTegic.value.IntegerValue
118

@<SCITEGIC>MOL_PROPERTY
Conf_Id
SciTegic.value.IntegerValue
1107

@<SCITEGIC>MOL_PROPERTY
Probability
SciTegic.value.DoubleValue
0.05

@<SCITEGIC>MOL_PROPERTY
Sum Probability
SciTegic.value.DoubleValue
98.83

@<SCITEGIC>MOL_PROPERTY
Delta G
SciTegic.value.DoubleValue
2.924

@<SCITEGIC>MOL_PROPERTY
G
SciTegic.value.DoubleValue
78.390

@<SCITEGIC>MOL_PROPERTY
E
SciTegic.value.DoubleValue
45.921

@<SCITEGIC>MOL_PROPERTY
-TS
SciTegic.value.DoubleValue
32.469

@<SCITEGIC>MOL_PROPERTY
U+W
SciTegic.value.DoubleValue
24.459

@<SCITEGIC>MOL_PROPERTY
U
SciTegic.value.DoubleValue
73.840

@<SCITEGIC>MOL_PROPERTY
W
SciTegic.value.DoubleValue
-49.381

@<SCITEGIC>MOL_PROPERTY
W(PB)
SciTegic.value.DoubleValue
-51.644

@<SCITEGIC>MOL_PROPERTY
W(SA)
SciTegic.value.DoubleValue
2.262

@<SCITEGIC>MOL_PROPERTY
Valence
SciTegic.value.DoubleValue
4.495

@<SCITEGIC>MOL_PROPERTY
Coulomb
SciTegic.value.DoubleValue
68.796

@<SCITEGIC>MOL_PROPERTY
VdW
SciTegic.value.DoubleValue
0.550

@<SCITEGIC>MOL_PROPERTY
VdW6
SciTegic.value.DoubleValue
-7.478

@<SCITEGIC>MOL_PROPERTY
VdW12
SciTegic.value.DoubleValue
8.028

@<SCITEGIC>MOL_PROPERTY
Bond
SciTegic.value.DoubleValue
0.238

@<SCITEGIC>MOL_PROPERTY
Angle
SciTegic.value.DoubleValue
1.174

@<SCITEGIC>MOL_PROPERTY
Pdih
SciTegic.value.DoubleValue
3.083

@<SCITEGIC>MOL_PROPERTY
Idih
SciTegic.value.DoubleValue
0.000

@<SCITEGIC>MOL_PROPERTY
Tether
SciTegic.value.DoubleValue
0.000

@<TRIPOS>MOLECULE
guest-s12_vm2.mol2 : vm2 ligand conformer 119
          26          25           1
SMALL
USER_CHARGES
 
@<TRIPOS>ATOM
       1    N1      20.000297   18.691531   26.235571 N.4        1 MOL1        -0.4857
       2    H1      20.436672   18.480185   27.146923 H          1 MOL1         0.3650
       3    H2      19.522252   17.820048   25.960884 H          1 MOL1         0.3650
       4    C1      21.083769   19.040176   25.227826 C.3        1 MOL1         0.0209
       5    H3      22.000809   18.554816   25.571603 H          1 MOL1         0.0967
       6    H4      21.247419   20.120200   25.260997 H          1 MOL1         0.0967
       7    C2      20.815944   18.581390   23.776826 C.3        1 MOL1        -0.1378
       8    H5      21.713100   18.810654   23.189460 H          1 MOL1         0.0993
       9    H6      20.702744   17.489502   23.755994 H          1 MOL1         0.0993
      10    C3      19.578993   19.248209   23.124583 C.3        1 MOL1        -0.1338
      11    H7      19.666203   20.341511   23.190459 H          1 MOL1         0.0993
      12    H8      18.681268   18.970789   23.691696 H          1 MOL1         0.0993
      13    C4      19.354516   18.831895   21.649562 C.3        1 MOL1        -0.1338
      14    H9      19.283134   17.737547   21.581547 H          1 MOL1         0.0993
      15    H10     18.381123   19.223916   21.323551 H          1 MOL1         0.0993
      16    C5      20.448281   19.346280   20.683184 C.3        1 MOL1        -0.1313
      17    H11     21.420065   18.902605   20.936161 H          1 MOL1         0.0993
      18    H12     20.557080   20.434537   20.791009 H          1 MOL1         0.0993
      19    C6      20.113639   19.009581   19.214255 C.3        1 MOL1        -0.2328
      20    H13     20.900084   19.378459   18.543094 H          1 MOL1         0.1004
      21    H14     19.166254   19.472275   18.908372 H          1 MOL1         0.1004
      22    H15     20.027345   17.925004   19.067794 H          1 MOL1         0.1004
      23    C7      19.012563   19.840938   26.405193 C.3        1 MOL1        -0.0781
      24    H16     19.551231   20.726458   26.749445 H          1 MOL1         0.0978
      25    H17     18.527653   20.053838   25.451625 H          1 MOL1         0.0978
      26    H18     18.260226   19.558378   27.144930 H          1 MOL1         0.0978
@<TRIPOS>BOND
    1     1     2    1
    2     1     3    1
    3     1     4    1
    4     4     5    1
    5     4     6    1
    6     4     7    1
    7     7     8    1
    8     7     9    1
    9     7    10    1
   10    10    11    1
   11    10    12    1
   12    10    13    1
   13    13    14    1
   14    13    15    1
   15    13    16    1
   16    16    17    1
   17    16    18    1
   18    16    19    1
   19    19    20    1
   20    19    21    1
   21    19    22    1
   22     1    23    1
   23    23    24    1
   24    23    25    1
   25    23    26    1
@<TRIPOS>SUBSTRUCTURE
       1 MOL1            1 RESIDUE      1      MOL     
@<SCITEGIC>MOL_PROPERTY
VM2 Rank
SciTegic.value.IntegerValue
119

@<SCITEGIC>MOL_PROPERTY
Conf_Id
SciTegic.value.IntegerValue
840

@<SCITEGIC>MOL_PROPERTY
Probability
SciTegic.value.DoubleValue
0.05

@<SCITEGIC>MOL_PROPERTY
Sum Probability
SciTegic.value.DoubleValue
98.88

@<SCITEGIC>MOL_PROPERTY
Delta G
SciTegic.value.DoubleValue
2.932

@<SCITEGIC>MOL_PROPERTY
G
SciTegic.value.DoubleValue
78.398

@<SCITEGIC>MOL_PROPERTY
E
SciTegic.value.DoubleValue
45.852

@<SCITEGIC>MOL_PROPERTY
-TS
SciTegic.value.DoubleValue
32.546

@<SCITEGIC>MOL_PROPERTY
U+W
SciTegic.value.DoubleValue
24.391

@<SCITEGIC>MOL_PROPERTY
U
SciTegic.value.DoubleValue
73.757

@<SCITEGIC>MOL_PROPERTY
W
SciTegic.value.DoubleValue
-49.367

@<SCITEGIC>MOL_PROPERTY
W(PB)
SciTegic.value.DoubleValue
-51.644

@<SCITEGIC>MOL_PROPERTY
W(SA)
SciTegic.value.DoubleValue
2.278

@<SCITEGIC>MOL_PROPERTY
Valence
SciTegic.value.DoubleValue
4.422

@<SCITEGIC>MOL_PROPERTY
Coulomb
SciTegic.value.DoubleValue
68.887

@<SCITEGIC>MOL_PROPERTY
VdW
SciTegic.value.DoubleValue
0.448

@<SCITEGIC>MOL_PROPERTY
VdW6
SciTegic.value.DoubleValue
-7.490

@<SCITEGIC>MOL_PROPERTY
VdW12
SciTegic.value.DoubleValue
7.938

@<SCITEGIC>MOL_PROPERTY
Bond
SciTegic.value.DoubleValue
0.232

@<SCITEGIC>MOL_PROPERTY
Angle
SciTegic.value.DoubleValue
1.146

@<SCITEGIC>MOL_PROPERTY
Pdih
SciTegic.value.DoubleValue
3.045

@<SCITEGIC>MOL_PROPERTY
Idih
SciTegic.value.DoubleValue
0.000

@<SCITEGIC>MOL_PROPERTY
Tether
SciTegic.value.DoubleValue
0.000

@<TRIPOS>MOLECULE
guest-s12_vm2.mol2 : vm2 ligand conformer 120
          26          25           1
SMALL
USER_CHARGES
 
@<TRIPOS>ATOM
       1    N1      20.204409   18.720770   26.358240 N.4        1 MOL1        -0.4857
       2    H1      20.638496   18.963489   27.262915 H          1 MOL1         0.3650
       3    H2      20.171947   17.689691   26.351427 H          1 MOL1         0.3650
       4    C1      21.091149   19.224114   25.227264 C.3        1 MOL1         0.0209
       5    H3      22.100556   18.870039   25.452042 H          1 MOL1         0.0967
       6    H4      21.108124   20.316373   25.258141 H          1 MOL1         0.0967
       7    C2      20.714543   18.736867   23.810186 C.3        1 MOL1        -0.1378
       8    H5      21.646542   18.615363   23.244482 H          1 MOL1         0.0993
       9    H6      20.253145   17.742139   23.866240 H          1 MOL1         0.0993
      10    C3      19.792384   19.725425   23.051940 C.3        1 MOL1        -0.1338
      11    H7      20.306485   20.689112   22.932386 H          1 MOL1         0.0993
      12    H8      18.896764   19.932625   23.649317 H          1 MOL1         0.0993
      13    C4      19.337033   19.206744   21.665373 C.3        1 MOL1        -0.1338
      14    H9      18.808576   18.250901   21.785428 H          1 MOL1         0.0993
      15    H10     18.603464   19.913769   21.253756 H          1 MOL1         0.0993
      16    C5      20.494860   19.039037   20.652654 C.3        1 MOL1        -0.1313
      17    H11     21.199716   18.274256   21.004770 H          1 MOL1         0.0993
      18    H12     21.057923   19.979473   20.573197 H          1 MOL1         0.0993
      19    C6      19.975612   18.634691   19.256256 C.3        1 MOL1        -0.2328
      20    H13     19.432652   17.681454   19.297900 H          1 MOL1         0.1004
      21    H14     20.809198   18.516894   18.551786 H          1 MOL1         0.1004
      22    H15     19.297606   19.396836   18.850515 H          1 MOL1         0.1004
      23    C7      18.798010   19.302353   26.295087 C.3        1 MOL1        -0.0781
      24    H16     18.301113   18.943590   25.391875 H          1 MOL1         0.0978
      25    H17     18.237395   18.975602   27.173730 H          1 MOL1         0.0978
      26    H18     18.859762   20.392651   26.280875 H          1 MOL1         0.0978
@<TRIPOS>BOND
    1     1     2    1
    2     1     3    1
    3     1     4    1
    4     4     5    1
    5     4     6    1
    6     4     7    1
    7     7     8    1
    8     7     9    1
    9     7    10    1
   10    10    11    1
   11    10    12    1
   12    10    13    1
   13    13    14    1
   14    13    15    1
   15    13    16    1
   16    16    17    1
   17    16    18    1
   18    16    19    1
   19    19    20    1
   20    19    21    1
   21    19    22    1
   22     1    23    1
   23    23    24    1
   24    23    25    1
   25    23    26    1
@<TRIPOS>SUBSTRUCTURE
       1 MOL1            1 RESIDUE      1      MOL     
@<SCITEGIC>MOL_PROPERTY
VM2 Rank
SciTegic.value.IntegerValue
120

@<SCITEGIC>MOL_PROPERTY
Conf_Id
SciTegic.value.IntegerValue
269

@<SCITEGIC>MOL_PROPERTY
Probability
SciTegic.value.DoubleValue
0.05

@<SCITEGIC>MOL_PROPERTY
Sum Probability
SciTegic.value.DoubleValue
98.93

@<SCITEGIC>MOL_PROPERTY
Delta G
SciTegic.value.DoubleValue
2.946

@<SCITEGIC>MOL_PROPERTY
G
SciTegic.value.DoubleValue
78.413

@<SCITEGIC>MOL_PROPERTY
E
SciTegic.value.DoubleValue
45.944

@<SCITEGIC>MOL_PROPERTY
-TS
SciTegic.value.DoubleValue
32.469

@<SCITEGIC>MOL_PROPERTY
U+W
SciTegic.value.DoubleValue
24.482

@<SCITEGIC>MOL_PROPERTY
U
SciTegic.value.DoubleValue
73.840

@<SCITEGIC>MOL_PROPERTY
W
SciTegic.value.DoubleValue
-49.358

@<SCITEGIC>MOL_PROPERTY
W(PB)
SciTegic.value.DoubleValue
-51.614

@<SCITEGIC>MOL_PROPERTY
W(SA)
SciTegic.value.DoubleValue
2.256

@<SCITEGIC>MOL_PROPERTY
Valence
SciTegic.value.DoubleValue
4.494

@<SCITEGIC>MOL_PROPERTY
Coulomb
SciTegic.value.DoubleValue
68.796

@<SCITEGIC>MOL_PROPERTY
VdW
SciTegic.value.DoubleValue
0.550

@<SCITEGIC>MOL_PROPERTY
VdW6
SciTegic.value.DoubleValue
-7.478

@<SCITEGIC>MOL_PROPERTY
VdW12
SciTegic.value.DoubleValue
8.028

@<SCITEGIC>MOL_PROPERTY
Bond
SciTegic.value.DoubleValue
0.238

@<SCITEGIC>MOL_PROPERTY
Angle
SciTegic.value.DoubleValue
1.175

@<SCITEGIC>MOL_PROPERTY
Pdih
SciTegic.value.DoubleValue
3.082

@<SCITEGIC>MOL_PROPERTY
Idih
SciTegic.value.DoubleValue
0.000

@<SCITEGIC>MOL_PROPERTY
Tether
SciTegic.value.DoubleValue
0.000

@<TRIPOS>MOLECULE
guest-s12_vm2.mol2 : vm2 ligand conformer 121
          26          25           1
SMALL
USER_CHARGES
 
@<TRIPOS>ATOM
       1    N1      20.212725   19.042390   26.001844 N.4        1 MOL1        -0.4857
       2    H1      20.752013   18.177338   26.161940 H          1 MOL1         0.3650
       3    H2      19.345213   18.930334   26.549247 H          1 MOL1         0.3650
       4    C1      19.886886   19.190856   24.529480 C.3        1 MOL1         0.0209
       5    H3      20.831548   19.299933   23.992249 H          1 MOL1         0.0967
       6    H4      19.306648   20.108547   24.404793 H          1 MOL1         0.0967
       7    C2      19.101348   17.997760   23.955977 C.3        1 MOL1        -0.1378
       8    H5      19.707277   17.086187   24.044063 H          1 MOL1         0.0993
       9    H6      18.205059   17.835163   24.569299 H          1 MOL1         0.0993
      10    C3      18.662344   18.187569   22.481901 C.3        1 MOL1        -0.1338
      11    H7      17.989203   19.051698   22.395024 H          1 MOL1         0.0993
      12    H8      18.059297   17.312711   22.201671 H          1 MOL1         0.0993
      13    C4      19.830215   18.311910   21.468258 C.3        1 MOL1        -0.1338
      14    H9      20.677251   17.690597   21.790387 H          1 MOL1         0.0993
      15    H10     19.497186   17.894359   20.507868 H          1 MOL1         0.0993
      16    C5      20.293359   19.768629   21.221350 C.3        1 MOL1        -0.1313
      17    H11     20.642545   20.230963   22.151877 H          1 MOL1         0.0993
      18    H12     19.443419   20.371445   20.872023 H          1 MOL1         0.0993
      19    C6      21.426055   19.834537   20.174714 C.3        1 MOL1        -0.2328
      20    H13     21.098968   19.421926   19.211402 H          1 MOL1         0.1004
      21    H14     22.305183   19.267983   20.508399 H          1 MOL1         0.1004
      22    H15     21.738912   20.873266   20.006800 H          1 MOL1         0.1004
      23    C7      20.995068   20.256347   26.483476 C.3        1 MOL1        -0.0781
      24    H16     20.391812   21.154608   26.334591 H          1 MOL1         0.0978
      25    H17     21.223400   20.137178   27.544985 H          1 MOL1         0.0978
      26    H18     21.923235   20.334953   25.913145 H          1 MOL1         0.0978
@<TRIPOS>BOND
    1     1     2    1
    2     1     3    1
    3     1     4    1
    4     4     5    1
    5     4     6    1
    6     4     7    1
    7     7     8    1
    8     7     9    1
    9     7    10    1
   10    10    11    1
   11    10    12    1
   12    10    13    1
   13    13    14    1
   14    13    15    1
   15    13    16    1
   16    16    17    1
   17    16    18    1
   18    16    19    1
   19    19    20    1
   20    19    21    1
   21    19    22    1
   22     1    23    1
   23    23    24    1
   24    23    25    1
   25    23    26    1
@<TRIPOS>SUBSTRUCTURE
       1 MOL1            1 RESIDUE      1      MOL     
@<SCITEGIC>MOL_PROPERTY
VM2 Rank
SciTegic.value.IntegerValue
121

@<SCITEGIC>MOL_PROPERTY
Conf_Id
SciTegic.value.IntegerValue
990

@<SCITEGIC>MOL_PROPERTY
Probability
SciTegic.value.DoubleValue
0.05

@<SCITEGIC>MOL_PROPERTY
Sum Probability
SciTegic.value.DoubleValue
98.98

@<SCITEGIC>MOL_PROPERTY
Delta G
SciTegic.value.DoubleValue
2.952

@<SCITEGIC>MOL_PROPERTY
G
SciTegic.value.DoubleValue
78.419

@<SCITEGIC>MOL_PROPERTY
E
SciTegic.value.DoubleValue
46.119

@<SCITEGIC>MOL_PROPERTY
-TS
SciTegic.value.DoubleValue
32.300

@<SCITEGIC>MOL_PROPERTY
U+W
SciTegic.value.DoubleValue
24.657

@<SCITEGIC>MOL_PROPERTY
U
SciTegic.value.DoubleValue
73.909

@<SCITEGIC>MOL_PROPERTY
W
SciTegic.value.DoubleValue
-49.252

@<SCITEGIC>MOL_PROPERTY
W(PB)
SciTegic.value.DoubleValue
-51.550

@<SCITEGIC>MOL_PROPERTY
W(SA)
SciTegic.value.DoubleValue
2.297

@<SCITEGIC>MOL_PROPERTY
Valence
SciTegic.value.DoubleValue
4.252

@<SCITEGIC>MOL_PROPERTY
Coulomb
SciTegic.value.DoubleValue
69.491

@<SCITEGIC>MOL_PROPERTY
VdW
SciTegic.value.DoubleValue
0.166

@<SCITEGIC>MOL_PROPERTY
VdW6
SciTegic.value.DoubleValue
-6.831

@<SCITEGIC>MOL_PROPERTY
VdW12
SciTegic.value.DoubleValue
6.998

@<SCITEGIC>MOL_PROPERTY
Bond
SciTegic.value.DoubleValue
0.207

@<SCITEGIC>MOL_PROPERTY
Angle
SciTegic.value.DoubleValue
1.085

@<SCITEGIC>MOL_PROPERTY
Pdih
SciTegic.value.DoubleValue
2.961

@<SCITEGIC>MOL_PROPERTY
Idih
SciTegic.value.DoubleValue
0.000

@<SCITEGIC>MOL_PROPERTY
Tether
SciTegic.value.DoubleValue
0.000

@<TRIPOS>MOLECULE
guest-s12_vm2.mol2 : vm2 ligand conformer 122
          26          25           1
SMALL
USER_CHARGES
 
@<TRIPOS>ATOM
       1    N1      20.052513   19.698894   26.002225 N.4        1 MOL1        -0.4857
       2    H1      20.327620   20.620971   26.376309 H          1 MOL1         0.3650
       3    H2      20.438239   19.014443   26.670901 H          1 MOL1         0.3650
       4    C1      20.672864   19.500485   24.629813 C.3        1 MOL1         0.0209
       5    H3      21.730902   19.762244   24.711202 H          1 MOL1         0.0967
       6    H4      20.202933   20.211059   23.948250 H          1 MOL1         0.0967
       7    C2      20.556309   18.062409   24.078292 C.3        1 MOL1        -0.1378
       8    H5      21.030211   17.382927   24.798959 H          1 MOL1         0.0993
       9    H6      19.504668   17.755967   24.009620 H          1 MOL1         0.0993
      10    C3      21.247408   17.884431   22.702800 C.3        1 MOL1        -0.1338
      11    H7      21.566706   16.836805   22.613176 H          1 MOL1         0.0993
      12    H8      22.170042   18.480168   22.665075 H          1 MOL1         0.0993
      13    C4      20.353659   18.207537   21.476956 C.3        1 MOL1        -0.1338
      14    H9      20.928807   17.987487   20.566886 H          1 MOL1         0.0993
      15    H10     19.491439   17.526573   21.463720 H          1 MOL1         0.0993
      16    C5      19.852634   19.668997   21.412260 C.3        1 MOL1        -0.1313
      17    H11     20.698018   20.359966   21.537021 H          1 MOL1         0.0993
      18    H12     19.150909   19.860455   22.234498 H          1 MOL1         0.0993
      19    C6      19.140019   19.968221   20.076009 C.3        1 MOL1        -0.2328
      20    H13     18.781945   21.005617   20.051471 H          1 MOL1         0.1004
      21    H14     18.273313   19.309364   19.934759 H          1 MOL1         0.1004
      22    H15     19.819156   19.826919   19.225130 H          1 MOL1         0.1004
      23    C7      18.532594   19.599026   25.938646 C.3        1 MOL1        -0.0781
      24    H16     18.120889   19.782124   26.933662 H          1 MOL1         0.0978
      25    H17     18.152811   20.347045   25.239337 H          1 MOL1         0.0978
      26    H18     18.249094   18.599624   25.602798 H          1 MOL1         0.0978
@<TRIPOS>BOND
    1     1     2    1
    2     1     3    1
    3     1     4    1
    4     4     5    1
    5     4     6    1
    6     4     7    1
    7     7     8    1
    8     7     9    1
    9     7    10    1
   10    10    11    1
   11    10    12    1
   12    10    13    1
   13    13    14    1
   14    13    15    1
   15    13    16    1
   16    16    17    1
   17    16    18    1
   18    16    19    1
   19    19    20    1
   20    19    21    1
   21    19    22    1
   22     1    23    1
   23    23    24    1
   24    23    25    1
   25    23    26    1
@<TRIPOS>SUBSTRUCTURE
       1 MOL1            1 RESIDUE      1      MOL     
@<SCITEGIC>MOL_PROPERTY
VM2 Rank
SciTegic.value.IntegerValue
122

@<SCITEGIC>MOL_PROPERTY
Conf_Id
SciTegic.value.IntegerValue
1614

@<SCITEGIC>MOL_PROPERTY
Probability
SciTegic.value.DoubleValue
0.04

@<SCITEGIC>MOL_PROPERTY
Sum Probability
SciTegic.value.DoubleValue
99.02

@<SCITEGIC>MOL_PROPERTY
Delta G
SciTegic.value.DoubleValue
3.074

@<SCITEGIC>MOL_PROPERTY
G
SciTegic.value.DoubleValue
78.541

@<SCITEGIC>MOL_PROPERTY
E
SciTegic.value.DoubleValue
45.892

@<SCITEGIC>MOL_PROPERTY
-TS
SciTegic.value.DoubleValue
32.648

@<SCITEGIC>MOL_PROPERTY
U+W
SciTegic.value.DoubleValue
24.431

@<SCITEGIC>MOL_PROPERTY
U
SciTegic.value.DoubleValue
74.229

@<SCITEGIC>MOL_PROPERTY
W
SciTegic.value.DoubleValue
-49.798

@<SCITEGIC>MOL_PROPERTY
W(PB)
SciTegic.value.DoubleValue
-52.055

@<SCITEGIC>MOL_PROPERTY
W(SA)
SciTegic.value.DoubleValue
2.257

@<SCITEGIC>MOL_PROPERTY
Valence
SciTegic.value.DoubleValue
4.377

@<SCITEGIC>MOL_PROPERTY
Coulomb
SciTegic.value.DoubleValue
69.549

@<SCITEGIC>MOL_PROPERTY
VdW
SciTegic.value.DoubleValue
0.303

@<SCITEGIC>MOL_PROPERTY
VdW6
SciTegic.value.DoubleValue
-7.808

@<SCITEGIC>MOL_PROPERTY
VdW12
SciTegic.value.DoubleValue
8.111

@<SCITEGIC>MOL_PROPERTY
Bond
SciTegic.value.DoubleValue
0.233

@<SCITEGIC>MOL_PROPERTY
Angle
SciTegic.value.DoubleValue
1.219

@<SCITEGIC>MOL_PROPERTY
Pdih
SciTegic.value.DoubleValue
2.925

@<SCITEGIC>MOL_PROPERTY
Idih
SciTegic.value.DoubleValue
0.000

@<SCITEGIC>MOL_PROPERTY
Tether
SciTegic.value.DoubleValue
0.000

@<TRIPOS>MOLECULE
guest-s12_vm2.mol2 : vm2 ligand conformer 123
          26          25           1
SMALL
USER_CHARGES
 
@<TRIPOS>ATOM
       1    N1      19.502415   18.515726   25.277489 N.4        1 MOL1        -0.4857
       2    H1      19.932683   17.615326   25.540135 H          1 MOL1         0.3650
       3    H2      19.080240   18.359831   24.351044 H          1 MOL1         0.3650
       4    C1      20.564851   19.595037   25.193440 C.3        1 MOL1         0.0209
       5    H3      21.009872   19.679300   26.188143 H          1 MOL1         0.0967
       6    H4      20.076954   20.544280   24.958421 H          1 MOL1         0.0967
       7    C2      21.680279   19.311605   24.165262 C.3        1 MOL1        -0.1378
       8    H5      22.565227   19.889240   24.463681 H          1 MOL1         0.0993
       9    H6      21.979120   18.256135   24.215390 H          1 MOL1         0.0993
      10    C3      21.325498   19.704414   22.708073 C.3        1 MOL1        -0.1338
      11    H7      22.217616   19.549142   22.085545 H          1 MOL1         0.0993
      12    H8      21.105363   20.780108   22.663417 H          1 MOL1         0.0993
      13    C4      20.144253   18.911544   22.099424 C.3        1 MOL1        -0.1338
      14    H9      20.308949   17.834382   22.240989 H          1 MOL1         0.0993
      15    H10     19.213630   19.173816   22.618046 H          1 MOL1         0.0993
      16    C5      19.970113   19.208938   20.593368 C.3        1 MOL1        -0.1313
      17    H11     20.890388   18.945559   20.053241 H          1 MOL1         0.0993
      18    H12     19.812357   20.286317   20.443551 H          1 MOL1         0.0993
      19    C6      18.782661   18.428708   19.989891 C.3        1 MOL1        -0.2328
      20    H13     18.927352   17.345554   20.095008 H          1 MOL1         0.1004
      21    H14     18.676121   18.651598   18.920309 H          1 MOL1         0.1004
      22    H15     17.840400   18.697552   20.484908 H          1 MOL1         0.1004
      23    C7      18.437930   18.914029   26.290053 C.3        1 MOL1        -0.0781
      24    H16     17.975780   19.852211   25.975153 H          1 MOL1         0.0978
      25    H17     17.680590   18.128612   26.341718 H          1 MOL1         0.0978
      26    H18     18.904181   19.041690   27.269462 H          1 MOL1         0.0978
@<TRIPOS>BOND
    1     1     2    1
    2     1     3    1
    3     1     4    1
    4     4     5    1
    5     4     6    1
    6     4     7    1
    7     7     8    1
    8     7     9    1
    9     7    10    1
   10    10    11    1
   11    10    12    1
   12    10    13    1
   13    13    14    1
   14    13    15    1
   15    13    16    1
   16    16    17    1
   17    16    18    1
   18    16    19    1
   19    19    20    1
   20    19    21    1
   21    19    22    1
   22     1    23    1
   23    23    24    1
   24    23    25    1
   25    23    26    1
@<TRIPOS>SUBSTRUCTURE
       1 MOL1            1 RESIDUE      1      MOL     
@<SCITEGIC>MOL_PROPERTY
VM2 Rank
SciTegic.value.IntegerValue
123

@<SCITEGIC>MOL_PROPERTY
Conf_Id
SciTegic.value.IntegerValue
1443

@<SCITEGIC>MOL_PROPERTY
Probability
SciTegic.value.DoubleValue
0.04

@<SCITEGIC>MOL_PROPERTY
Sum Probability
SciTegic.value.DoubleValue
99.05

@<SCITEGIC>MOL_PROPERTY
Delta G
SciTegic.value.DoubleValue
3.116

@<SCITEGIC>MOL_PROPERTY
G
SciTegic.value.DoubleValue
78.583

@<SCITEGIC>MOL_PROPERTY
E
SciTegic.value.DoubleValue
46.237

@<SCITEGIC>MOL_PROPERTY
-TS
SciTegic.value.DoubleValue
32.346

@<SCITEGIC>MOL_PROPERTY
U+W
SciTegic.value.DoubleValue
24.775

@<SCITEGIC>MOL_PROPERTY
U
SciTegic.value.DoubleValue
73.983

@<SCITEGIC>MOL_PROPERTY
W
SciTegic.value.DoubleValue
-49.207

@<SCITEGIC>MOL_PROPERTY
W(PB)
SciTegic.value.DoubleValue
-51.488

@<SCITEGIC>MOL_PROPERTY
W(SA)
SciTegic.value.DoubleValue
2.280

@<SCITEGIC>MOL_PROPERTY
Valence
SciTegic.value.DoubleValue
3.347

@<SCITEGIC>MOL_PROPERTY
Coulomb
SciTegic.value.DoubleValue
70.654

@<SCITEGIC>MOL_PROPERTY
VdW
SciTegic.value.DoubleValue
-0.018

@<SCITEGIC>MOL_PROPERTY
VdW6
SciTegic.value.DoubleValue
-6.980

@<SCITEGIC>MOL_PROPERTY
VdW12
SciTegic.value.DoubleValue
6.962

@<SCITEGIC>MOL_PROPERTY
Bond
SciTegic.value.DoubleValue
0.176

@<SCITEGIC>MOL_PROPERTY
Angle
SciTegic.value.DoubleValue
0.935

@<SCITEGIC>MOL_PROPERTY
Pdih
SciTegic.value.DoubleValue
2.235

@<SCITEGIC>MOL_PROPERTY
Idih
SciTegic.value.DoubleValue
0.000

@<SCITEGIC>MOL_PROPERTY
Tether
SciTegic.value.DoubleValue
0.000

@<TRIPOS>MOLECULE
guest-s12_vm2.mol2 : vm2 ligand conformer 124
          26          25           1
SMALL
USER_CHARGES
 
@<TRIPOS>ATOM
       1    N1      19.618355   19.846295   25.914390 N.4        1 MOL1        -0.4857
       2    H1      19.041933   20.692679   26.045633 H          1 MOL1         0.3650
       3    H2      20.449344   19.995627   26.507321 H          1 MOL1         0.3650
       4    C1      20.027660   19.729574   24.455848 C.3        1 MOL1         0.0209
       5    H3      20.429668   20.699276   24.151501 H          1 MOL1         0.0967
       6    H4      19.124782   19.533662   23.873405 H          1 MOL1         0.0967
       7    C2      21.079569   18.638085   24.172997 C.3        1 MOL1        -0.1378
       8    H5      21.923683   18.774420   24.861826 H          1 MOL1         0.0993
       9    H6      20.656371   17.649516   24.393215 H          1 MOL1         0.0993
      10    C3      21.620966   18.652884   22.721043 C.3        1 MOL1        -0.1338
      11    H7      22.416090   17.897015   22.657906 H          1 MOL1         0.0993
      12    H8      22.108251   19.614226   22.507251 H          1 MOL1         0.0993
      13    C4      20.564798   18.330703   21.631286 C.3        1 MOL1        -0.1338
      14    H9      21.077929   17.844436   20.789957 H          1 MOL1         0.0993
      15    H10     19.843159   17.594509   22.011451 H          1 MOL1         0.0993
      16    C5      19.825651   19.576552   21.084731 C.3        1 MOL1        -0.1313
      17    H11     20.556854   20.295397   20.689257 H          1 MOL1         0.0993
      18    H12     19.282640   20.091265   21.885686 H          1 MOL1         0.0993
      19    C6      18.828817   19.200448   19.967718 C.3        1 MOL1        -0.2328
      20    H13     19.342651   18.722673   19.123380 H          1 MOL1         0.1004
      21    H14     18.316971   20.094120   19.587724 H          1 MOL1         0.1004
      22    H15     18.063458   18.506509   20.339032 H          1 MOL1         0.1004
      23    C7      18.842185   18.615459   26.368986 C.3        1 MOL1        -0.0781
      24    H16     18.535819   18.750288   27.408717 H          1 MOL1         0.0978
      25    H17     17.959503   18.494387   25.737288 H          1 MOL1         0.0978
      26    H18     19.481240   17.734057   26.286173 H          1 MOL1         0.0978
@<TRIPOS>BOND
    1     1     2    1
    2     1     3    1
    3     1     4    1
    4     4     5    1
    5     4     6    1
    6     4     7    1
    7     7     8    1
    8     7     9    1
    9     7    10    1
   10    10    11    1
   11    10    12    1
   12    10    13    1
   13    13    14    1
   14    13    15    1
   15    13    16    1
   16    16    17    1
   17    16    18    1
   18    16    19    1
   19    19    20    1
   20    19    21    1
   21    19    22    1
   22     1    23    1
   23    23    24    1
   24    23    25    1
   25    23    26    1
@<TRIPOS>SUBSTRUCTURE
       1 MOL1            1 RESIDUE      1      MOL     
@<SCITEGIC>MOL_PROPERTY
VM2 Rank
SciTegic.value.IntegerValue
124

@<SCITEGIC>MOL_PROPERTY
Conf_Id
SciTegic.value.IntegerValue
835

@<SCITEGIC>MOL_PROPERTY
Probability
SciTegic.value.DoubleValue
0.04

@<SCITEGIC>MOL_PROPERTY
Sum Probability
SciTegic.value.DoubleValue
99.09

@<SCITEGIC>MOL_PROPERTY
Delta G
SciTegic.value.DoubleValue
3.120

@<SCITEGIC>MOL_PROPERTY
G
SciTegic.value.DoubleValue
78.587

@<SCITEGIC>MOL_PROPERTY
E
SciTegic.value.DoubleValue
46.171

@<SCITEGIC>MOL_PROPERTY
-TS
SciTegic.value.DoubleValue
32.416

@<SCITEGIC>MOL_PROPERTY
U+W
SciTegic.value.DoubleValue
24.709

@<SCITEGIC>MOL_PROPERTY
U
SciTegic.value.DoubleValue
74.305

@<SCITEGIC>MOL_PROPERTY
W
SciTegic.value.DoubleValue
-49.597

@<SCITEGIC>MOL_PROPERTY
W(PB)
SciTegic.value.DoubleValue
-51.865

@<SCITEGIC>MOL_PROPERTY
W(SA)
SciTegic.value.DoubleValue
2.269

@<SCITEGIC>MOL_PROPERTY
Valence
SciTegic.value.DoubleValue
4.513

@<SCITEGIC>MOL_PROPERTY
Coulomb
SciTegic.value.DoubleValue
69.361

@<SCITEGIC>MOL_PROPERTY
VdW
SciTegic.value.DoubleValue
0.431

@<SCITEGIC>MOL_PROPERTY
VdW6
SciTegic.value.DoubleValue
-7.509

@<SCITEGIC>MOL_PROPERTY
VdW12
SciTegic.value.DoubleValue
7.941

@<SCITEGIC>MOL_PROPERTY
Bond
SciTegic.value.DoubleValue
0.240

@<SCITEGIC>MOL_PROPERTY
Angle
SciTegic.value.DoubleValue
1.206

@<SCITEGIC>MOL_PROPERTY
Pdih
SciTegic.value.DoubleValue
3.067

@<SCITEGIC>MOL_PROPERTY
Idih
SciTegic.value.DoubleValue
0.000

@<SCITEGIC>MOL_PROPERTY
Tether
SciTegic.value.DoubleValue
0.000

@<TRIPOS>MOLECULE
guest-s12_vm2.mol2 : vm2 ligand conformer 125
          26          25           1
SMALL
USER_CHARGES
 
@<TRIPOS>ATOM
       1    N1      20.133182   19.899086   25.932616 N.4        1 MOL1        -0.4857
       2    H1      19.249758   19.872547   26.464844 H          1 MOL1         0.3650
       3    H2      20.515376   20.843805   26.097808 H          1 MOL1         0.3650
       4    C1      19.859156   19.712291   24.449879 C.3        1 MOL1         0.0209
       5    H3      20.821510   19.707703   23.933484 H          1 MOL1         0.0967
       6    H4      19.291198   20.582507   24.111194 H          1 MOL1         0.0967
       7    C2      19.072832   18.432260   24.101919 C.3        1 MOL1        -0.1378
       8    H5      19.671196   17.548469   24.358309 H          1 MOL1         0.0993
       9    H6      18.172498   18.389664   24.728965 H          1 MOL1         0.0993
      10    C3      18.642692   18.347428   22.615553 C.3        1 MOL1        -0.1338
      11    H7      17.986833   19.191539   22.361273 H          1 MOL1         0.0993
      12    H8      18.023722   17.446539   22.502320 H          1 MOL1         0.0993
      13    C4      19.815904   18.253891   21.604769 C.3        1 MOL1        -0.1338
      14    H9      20.643371   17.676556   22.039801 H          1 MOL1         0.0993
      15    H10     19.472203   17.679770   20.733077 H          1 MOL1         0.0993
      16    C5      20.323568   19.627615   21.102413 C.3        1 MOL1        -0.1313
      17    H11     20.693569   20.235910   21.935717 H          1 MOL1         0.0993
      18    H12     19.491339   20.186165   20.651621 H          1 MOL1         0.0993
      19    C6      21.451617   19.469459   20.060617 C.3        1 MOL1        -0.2328
      20    H13     21.105653   18.903611   19.185789 H          1 MOL1         0.1004
      21    H14     22.313830   18.942352   20.489508 H          1 MOL1         0.1004
      22    H15     21.797033   20.451055   19.711064 H          1 MOL1         0.1004
      23    C7      21.109049   18.847970   26.449233 C.3        1 MOL1        -0.0781
      24    H16     21.308196   19.034659   27.506856 H          1 MOL1         0.0978
      25    H17     20.669379   17.855916   26.328243 H          1 MOL1         0.0978
      26    H18     22.039934   18.912922   25.881727 H          1 MOL1         0.0978
@<TRIPOS>BOND
    1     1     2    1
    2     1     3    1
    3     1     4    1
    4     4     5    1
    5     4     6    1
    6     4     7    1
    7     7     8    1
    8     7     9    1
    9     7    10    1
   10    10    11    1
   11    10    12    1
   12    10    13    1
   13    13    14    1
   14    13    15    1
   15    13    16    1
   16    16    17    1
   17    16    18    1
   18    16    19    1
   19    19    20    1
   20    19    21    1
   21    19    22    1
   22     1    23    1
   23    23    24    1
   24    23    25    1
   25    23    26    1
@<TRIPOS>SUBSTRUCTURE
       1 MOL1            1 RESIDUE      1      MOL     
@<SCITEGIC>MOL_PROPERTY
VM2 Rank
SciTegic.value.IntegerValue
125

@<SCITEGIC>MOL_PROPERTY
Conf_Id
SciTegic.value.IntegerValue
1602

@<SCITEGIC>MOL_PROPERTY
Probability
SciTegic.value.DoubleValue
0.04

@<SCITEGIC>MOL_PROPERTY
Sum Probability
SciTegic.value.DoubleValue
99.12

@<SCITEGIC>MOL_PROPERTY
Delta G
SciTegic.value.DoubleValue
3.133

@<SCITEGIC>MOL_PROPERTY
G
SciTegic.value.DoubleValue
78.599

@<SCITEGIC>MOL_PROPERTY
E
SciTegic.value.DoubleValue
46.183

@<SCITEGIC>MOL_PROPERTY
-TS
SciTegic.value.DoubleValue
32.416

@<SCITEGIC>MOL_PROPERTY
U+W
SciTegic.value.DoubleValue
24.721

@<SCITEGIC>MOL_PROPERTY
U
SciTegic.value.DoubleValue
74.305

@<SCITEGIC>MOL_PROPERTY
W
SciTegic.value.DoubleValue
-49.584

@<SCITEGIC>MOL_PROPERTY
W(PB)
SciTegic.value.DoubleValue
-51.862

@<SCITEGIC>MOL_PROPERTY
W(SA)
SciTegic.value.DoubleValue
2.278

@<SCITEGIC>MOL_PROPERTY
Valence
SciTegic.value.DoubleValue
4.513

@<SCITEGIC>MOL_PROPERTY
Coulomb
SciTegic.value.DoubleValue
69.361

@<SCITEGIC>MOL_PROPERTY
VdW
SciTegic.value.DoubleValue
0.431

@<SCITEGIC>MOL_PROPERTY
VdW6
SciTegic.value.DoubleValue
-7.509

@<SCITEGIC>MOL_PROPERTY
VdW12
SciTegic.value.DoubleValue
7.941

@<SCITEGIC>MOL_PROPERTY
Bond
SciTegic.value.DoubleValue
0.240

@<SCITEGIC>MOL_PROPERTY
Angle
SciTegic.value.DoubleValue
1.206

@<SCITEGIC>MOL_PROPERTY
Pdih
SciTegic.value.DoubleValue
3.067

@<SCITEGIC>MOL_PROPERTY
Idih
SciTegic.value.DoubleValue
0.000

@<SCITEGIC>MOL_PROPERTY
Tether
SciTegic.value.DoubleValue
0.000

@<TRIPOS>MOLECULE
guest-s12_vm2.mol2 : vm2 ligand conformer 126
          26          25           1
SMALL
USER_CHARGES
 
@<TRIPOS>ATOM
       1    N1      19.731218   19.666063   25.990915 N.4        1 MOL1        -0.4857
       2    H1      19.446863   18.912632   26.635794 H          1 MOL1         0.3650
       3    H2      19.247985   20.509958   26.337579 H          1 MOL1         0.3650
       4    C1      19.263176   19.354882   24.579591 C.3        1 MOL1         0.0209
       5    H3      19.624869   20.151423   23.927689 H          1 MOL1         0.0967
       6    H4      18.170920   19.394164   24.584067 H          1 MOL1         0.0967
       7    C2      19.710023   17.975035   24.048383 C.3        1 MOL1        -0.1378
       8    H5      20.804300   17.890933   24.055744 H          1 MOL1         0.0993
       9    H6      19.336028   17.207893   24.739222 H          1 MOL1         0.0993
      10    C3      19.168013   17.668874   22.629311 C.3        1 MOL1        -0.1338
      11    H7      18.147800   18.063067   22.522764 H          1 MOL1         0.0993
      12    H8      19.077307   16.578701   22.525414 H          1 MOL1         0.0993
      13    C4      20.060010   18.176946   21.466522 C.3        1 MOL1        -0.1338
      14    H9      21.042317   17.687390   21.518679 H          1 MOL1         0.0993
      15    H10     19.607277   17.849974   20.520178 H          1 MOL1         0.0993
      16    C5      20.253946   19.710509   21.425977 C.3        1 MOL1        -0.1313
      17    H11     20.842411   20.036056   22.293660 H          1 MOL1         0.0993
      18    H12     19.278230   20.212518   21.486347 H          1 MOL1         0.0993
      19    C6      20.981463   20.158859   20.140436 C.3        1 MOL1        -0.2328
      20    H13     21.120038   21.247783   20.133173 H          1 MOL1         0.1004
      21    H14     20.406738   19.887264   19.245386 H          1 MOL1         0.1004
      22    H15     21.972540   19.692736   20.064831 H          1 MOL1         0.1004
      23    C7      21.240150   19.878831   26.035864 C.3        1 MOL1        -0.0781
      24    H16     21.744621   18.960627   25.728647 H          1 MOL1         0.0978
      25    H17     21.507958   20.693415   25.359456 H          1 MOL1         0.0978
      26    H18     21.534266   20.135179   27.056092 H          1 MOL1         0.0978
@<TRIPOS>BOND
    1     1     2    1
    2     1     3    1
    3     1     4    1
    4     4     5    1
    5     4     6    1
    6     4     7    1
    7     7     8    1
    8     7     9    1
    9     7    10    1
   10    10    11    1
   11    10    12    1
   12    10    13    1
   13    13    14    1
   14    13    15    1
   15    13    16    1
   16    16    17    1
   17    16    18    1
   18    16    19    1
   19    19    20    1
   20    19    21    1
   21    19    22    1
   22     1    23    1
   23    23    24    1
   24    23    25    1
   25    23    26    1
@<TRIPOS>SUBSTRUCTURE
       1 MOL1            1 RESIDUE      1      MOL     
@<SCITEGIC>MOL_PROPERTY
VM2 Rank
SciTegic.value.IntegerValue
126

@<SCITEGIC>MOL_PROPERTY
Conf_Id
SciTegic.value.IntegerValue
1072

@<SCITEGIC>MOL_PROPERTY
Probability
SciTegic.value.DoubleValue
0.03

@<SCITEGIC>MOL_PROPERTY
Sum Probability
SciTegic.value.DoubleValue
99.16

@<SCITEGIC>MOL_PROPERTY
Delta G
SciTegic.value.DoubleValue
3.140

@<SCITEGIC>MOL_PROPERTY
G
SciTegic.value.DoubleValue
78.607

@<SCITEGIC>MOL_PROPERTY
E
SciTegic.value.DoubleValue
45.959

@<SCITEGIC>MOL_PROPERTY
-TS
SciTegic.value.DoubleValue
32.648

@<SCITEGIC>MOL_PROPERTY
U+W
SciTegic.value.DoubleValue
24.497

@<SCITEGIC>MOL_PROPERTY
U
SciTegic.value.DoubleValue
74.229

@<SCITEGIC>MOL_PROPERTY
W
SciTegic.value.DoubleValue
-49.731

@<SCITEGIC>MOL_PROPERTY
W(PB)
SciTegic.value.DoubleValue
-51.984

@<SCITEGIC>MOL_PROPERTY
W(SA)
SciTegic.value.DoubleValue
2.253

@<SCITEGIC>MOL_PROPERTY
Valence
SciTegic.value.DoubleValue
4.376

@<SCITEGIC>MOL_PROPERTY
Coulomb
SciTegic.value.DoubleValue
69.549

@<SCITEGIC>MOL_PROPERTY
VdW
SciTegic.value.DoubleValue
0.304

@<SCITEGIC>MOL_PROPERTY
VdW6
SciTegic.value.DoubleValue
-7.807

@<SCITEGIC>MOL_PROPERTY
VdW12
SciTegic.value.DoubleValue
8.111

@<SCITEGIC>MOL_PROPERTY
Bond
SciTegic.value.DoubleValue
0.233

@<SCITEGIC>MOL_PROPERTY
Angle
SciTegic.value.DoubleValue
1.219

@<SCITEGIC>MOL_PROPERTY
Pdih
SciTegic.value.DoubleValue
2.924

@<SCITEGIC>MOL_PROPERTY
Idih
SciTegic.value.DoubleValue
0.000

@<SCITEGIC>MOL_PROPERTY
Tether
SciTegic.value.DoubleValue
0.000

@<TRIPOS>MOLECULE
guest-s12_vm2.mol2 : vm2 ligand conformer 127
          26          25           1
SMALL
USER_CHARGES
 
@<TRIPOS>ATOM
       1    N1      20.560248   18.623649   25.314969 N.4        1 MOL1        -0.4857
       2    H1      21.068999   18.562664   24.421498 H          1 MOL1         0.3650
       3    H2      20.303092   17.653141   25.553334 H          1 MOL1         0.3650
       4    C1      19.310519   19.467078   25.148971 C.3        1 MOL1         0.0209
       5    H3      19.612180   20.496856   24.941853 H          1 MOL1         0.0967
       6    H4      18.789102   19.452811   26.109438 H          1 MOL1         0.0967
       7    C2      18.349977   18.971794   24.047281 C.3        1 MOL1        -0.1378
       8    H5      18.267435   17.877407   24.083922 H          1 MOL1         0.0993
       9    H6      17.348021   19.356896   24.278857 H          1 MOL1         0.0993
      10    C3      18.719379   19.438465   22.615736 C.3        1 MOL1        -0.1338
      11    H7      18.720537   20.536742   22.578889 H          1 MOL1         0.0993
      12    H8      17.922775   19.110831   21.933385 H          1 MOL1         0.0993
      13    C4      20.075969   18.904581   22.097022 C.3        1 MOL1        -0.1338
      14    H9      20.895878   19.345499   22.677674 H          1 MOL1         0.0993
      15    H10     20.122468   17.815357   22.234400 H          1 MOL1         0.0993
      16    C5      20.291600   19.241752   20.604782 C.3        1 MOL1        -0.1313
      17    H11     20.238888   20.329851   20.458694 H          1 MOL1         0.0993
      18    H12     19.483516   18.802023   20.003409 H          1 MOL1         0.0993
      19    C6      21.651326   18.721421   20.091570 C.3        1 MOL1        -0.2328
      20    H13     21.785393   18.968879   19.030521 H          1 MOL1         0.1004
      21    H14     21.721084   17.630620   20.194011 H          1 MOL1         0.1004
      22    H15     22.482943   19.171243   20.649465 H          1 MOL1         0.1004
      23    C7      21.448982   19.221260   26.396669 C.3        1 MOL1        -0.0781
      24    H16     21.733301   20.235587   26.108169 H          1 MOL1         0.0978
      25    H17     20.899181   19.245291   27.340103 H          1 MOL1         0.0978
      26    H18     22.343655   18.604385   26.506844 H          1 MOL1         0.0978
@<TRIPOS>BOND
    1     1     2    1
    2     1     3    1
    3     1     4    1
    4     4     5    1
    5     4     6    1
    6     4     7    1
    7     7     8    1
    8     7     9    1
    9     7    10    1
   10    10    11    1
   11    10    12    1
   12    10    13    1
   13    13    14    1
   14    13    15    1
   15    13    16    1
   16    16    17    1
   17    16    18    1
   18    16    19    1
   19    19    20    1
   20    19    21    1
   21    19    22    1
   22     1    23    1
   23    23    24    1
   24    23    25    1
   25    23    26    1
@<TRIPOS>SUBSTRUCTURE
       1 MOL1            1 RESIDUE      1      MOL     
@<SCITEGIC>MOL_PROPERTY
VM2 Rank
SciTegic.value.IntegerValue
127

@<SCITEGIC>MOL_PROPERTY
Conf_Id
SciTegic.value.IntegerValue
229

@<SCITEGIC>MOL_PROPERTY
Probability
SciTegic.value.DoubleValue
0.03

@<SCITEGIC>MOL_PROPERTY
Sum Probability
SciTegic.value.DoubleValue
99.19

@<SCITEGIC>MOL_PROPERTY
Delta G
SciTegic.value.DoubleValue
3.148

@<SCITEGIC>MOL_PROPERTY
G
SciTegic.value.DoubleValue
78.614

@<SCITEGIC>MOL_PROPERTY
E
SciTegic.value.DoubleValue
46.269

@<SCITEGIC>MOL_PROPERTY
-TS
SciTegic.value.DoubleValue
32.346

@<SCITEGIC>MOL_PROPERTY
U+W
SciTegic.value.DoubleValue
24.807

@<SCITEGIC>MOL_PROPERTY
U
SciTegic.value.DoubleValue
73.983

@<SCITEGIC>MOL_PROPERTY
W
SciTegic.value.DoubleValue
-49.176

@<SCITEGIC>MOL_PROPERTY
W(PB)
SciTegic.value.DoubleValue
-51.452

@<SCITEGIC>MOL_PROPERTY
W(SA)
SciTegic.value.DoubleValue
2.276

@<SCITEGIC>MOL_PROPERTY
Valence
SciTegic.value.DoubleValue
3.347

@<SCITEGIC>MOL_PROPERTY
Coulomb
SciTegic.value.DoubleValue
70.654

@<SCITEGIC>MOL_PROPERTY
VdW
SciTegic.value.DoubleValue
-0.018

@<SCITEGIC>MOL_PROPERTY
VdW6
SciTegic.value.DoubleValue
-6.981

@<SCITEGIC>MOL_PROPERTY
VdW12
SciTegic.value.DoubleValue
6.963

@<SCITEGIC>MOL_PROPERTY
Bond
SciTegic.value.DoubleValue
0.176

@<SCITEGIC>MOL_PROPERTY
Angle
SciTegic.value.DoubleValue
0.935

@<SCITEGIC>MOL_PROPERTY
Pdih
SciTegic.value.DoubleValue
2.235

@<SCITEGIC>MOL_PROPERTY
Idih
SciTegic.value.DoubleValue
0.000

@<SCITEGIC>MOL_PROPERTY
Tether
SciTegic.value.DoubleValue
0.000

@<TRIPOS>MOLECULE
guest-s12_vm2.mol2 : vm2 ligand conformer 128
          26          25           1
SMALL
USER_CHARGES
 
@<TRIPOS>ATOM
       1    N1      20.347563   19.333909   25.762037 N.4        1 MOL1        -0.4857
       2    H1      21.162523   18.710895   25.866667 H          1 MOL1         0.3650
       3    H2      20.100725   19.611516   26.725060 H          1 MOL1         0.3650
       4    C1      19.181017   18.577646   25.144880 C.3        1 MOL1         0.0209
       5    H3      18.499952   19.302424   24.692845 H          1 MOL1         0.0967
       6    H4      18.650702   18.096664   25.970764 H          1 MOL1         0.0967
       7    C2      19.564133   17.479820   24.124974 C.3        1 MOL1        -0.1378
       8    H5      20.239588   16.762533   24.609465 H          1 MOL1         0.0993
       9    H6      18.657750   16.914811   23.870206 H          1 MOL1         0.0993
      10    C3      20.216579   17.991741   22.817273 C.3        1 MOL1        -0.1338
      11    H7      20.454209   17.126252   22.183656 H          1 MOL1         0.0993
      12    H8      21.177258   18.465793   23.050232 H          1 MOL1         0.0993
      13    C4      19.304466   18.961180   22.023114 C.3        1 MOL1        -0.1338
      14    H9      18.341379   18.468070   21.832101 H          1 MOL1         0.0993
      15    H10     19.079218   19.852441   22.622858 H          1 MOL1         0.0993
      16    C5      19.909811   19.402001   20.668768 C.3        1 MOL1        -0.1313
      17    H11     19.155387   19.979973   20.116831 H          1 MOL1         0.0993
      18    H12     20.130117   18.518392   20.053567 H          1 MOL1         0.0993
      19    C6      21.184340   20.263868   20.819141 C.3        1 MOL1        -0.2328
      20    H13     20.995774   21.141472   21.450918 H          1 MOL1         0.1004
      21    H14     21.521931   20.623695   19.838600 H          1 MOL1         0.1004
      22    H15     22.009339   19.691906   21.261210 H          1 MOL1         0.1004
      23    C7      20.700089   20.579835   24.956813 C.3        1 MOL1        -0.0781
      24    H16     21.521427   21.103058   25.451461 H          1 MOL1         0.0978
      25    H17     21.002702   20.293648   23.948888 H          1 MOL1         0.0978
      26    H18     19.825774   21.232428   24.907724 H          1 MOL1         0.0978
@<TRIPOS>BOND
    1     1     2    1
    2     1     3    1
    3     1     4    1
    4     4     5    1
    5     4     6    1
    6     4     7    1
    7     7     8    1
    8     7     9    1
    9     7    10    1
   10    10    11    1
   11    10    12    1
   12    10    13    1
   13    13    14    1
   14    13    15    1
   15    13    16    1
   16    16    17    1
   17    16    18    1
   18    16    19    1
   19    19    20    1
   20    19    21    1
   21    19    22    1
   22     1    23    1
   23    23    24    1
   24    23    25    1
   25    23    26    1
@<TRIPOS>SUBSTRUCTURE
       1 MOL1            1 RESIDUE      1      MOL     
@<SCITEGIC>MOL_PROPERTY
VM2 Rank
SciTegic.value.IntegerValue
128

@<SCITEGIC>MOL_PROPERTY
Conf_Id
SciTegic.value.IntegerValue
563

@<SCITEGIC>MOL_PROPERTY
Probability
SciTegic.value.DoubleValue
0.03

@<SCITEGIC>MOL_PROPERTY
Sum Probability
SciTegic.value.DoubleValue
99.23

@<SCITEGIC>MOL_PROPERTY
Delta G
SciTegic.value.DoubleValue
3.152

@<SCITEGIC>MOL_PROPERTY
G
SciTegic.value.DoubleValue
78.618

@<SCITEGIC>MOL_PROPERTY
E
SciTegic.value.DoubleValue
45.491

@<SCITEGIC>MOL_PROPERTY
-TS
SciTegic.value.DoubleValue
33.127

@<SCITEGIC>MOL_PROPERTY
U+W
SciTegic.value.DoubleValue
24.030

@<SCITEGIC>MOL_PROPERTY
U
SciTegic.value.DoubleValue
74.177

@<SCITEGIC>MOL_PROPERTY
W
SciTegic.value.DoubleValue
-50.147

@<SCITEGIC>MOL_PROPERTY
W(PB)
SciTegic.value.DoubleValue
-52.281

@<SCITEGIC>MOL_PROPERTY
W(SA)
SciTegic.value.DoubleValue
2.134

@<SCITEGIC>MOL_PROPERTY
Valence
SciTegic.value.DoubleValue
4.524

@<SCITEGIC>MOL_PROPERTY
Coulomb
SciTegic.value.DoubleValue
69.760

@<SCITEGIC>MOL_PROPERTY
VdW
SciTegic.value.DoubleValue
-0.108

@<SCITEGIC>MOL_PROPERTY
VdW6
SciTegic.value.DoubleValue
-9.141

@<SCITEGIC>MOL_PROPERTY
VdW12
SciTegic.value.DoubleValue
9.034

@<SCITEGIC>MOL_PROPERTY
Bond
SciTegic.value.DoubleValue
0.254

@<SCITEGIC>MOL_PROPERTY
Angle
SciTegic.value.DoubleValue
1.400

@<SCITEGIC>MOL_PROPERTY
Pdih
SciTegic.value.DoubleValue
2.870

@<SCITEGIC>MOL_PROPERTY
Idih
SciTegic.value.DoubleValue
0.000

@<SCITEGIC>MOL_PROPERTY
Tether
SciTegic.value.DoubleValue
0.000

@<TRIPOS>MOLECULE
guest-s12_vm2.mol2 : vm2 ligand conformer 129
          26          25           1
SMALL
USER_CHARGES
 
@<TRIPOS>ATOM
       1    N1      20.476780   18.690204   25.937480 N.4        1 MOL1        -0.4857
       2    H1      21.071368   17.870559   25.740849 H          1 MOL1         0.3650
       3    H2      20.307337   18.652974   26.955126 H          1 MOL1         0.3650
       4    C1      19.146834   18.561753   25.206939 C.3        1 MOL1         0.0209
       5    H3      18.542748   19.445476   25.426724 H          1 MOL1         0.0967
       6    H4      18.641929   17.697568   25.646283 H          1 MOL1         0.0967
       7    C2      19.233510   18.341309   23.680079 C.3        1 MOL1        -0.1378
       8    H5      20.126255   17.748625   23.444510 H          1 MOL1         0.0993
       9    H6      18.369573   17.735377   23.376835 H          1 MOL1         0.0993
      10    C3      19.212081   19.661748   22.868961 C.3        1 MOL1        -0.1338
      11    H7      20.088180   20.275775   23.104469 H          1 MOL1         0.0993
      12    H8      18.340059   20.254019   23.178746 H          1 MOL1         0.0993
      13    C4      19.133144   19.442482   21.335929 C.3        1 MOL1        -0.1338
      14    H9      18.189482   18.934085   21.094592 H          1 MOL1         0.0993
      15    H10     19.080331   20.422707   20.842378 H          1 MOL1         0.0993
      16    C5      20.306577   18.635929   20.722734 C.3        1 MOL1        -0.1313
      17    H11     20.145552   18.554254   19.638690 H          1 MOL1         0.0993
      18    H12     20.299970   17.606274   21.104630 H          1 MOL1         0.0993
      19    C6      21.691139   19.275760   20.973455 C.3        1 MOL1        -0.2328
      20    H13     21.950796   19.267971   22.039298 H          1 MOL1         0.1004
      21    H14     21.715674   20.314778   20.620249 H          1 MOL1         0.1004
      22    H15     22.473386   18.721034   20.439413 H          1 MOL1         0.1004
      23    C7      21.207935   19.980816   25.591423 C.3        1 MOL1        -0.0781
      24    H16     22.095377   20.067223   26.222337 H          1 MOL1         0.0978
      25    H17     21.509315   19.953559   24.543122 H          1 MOL1         0.0978
      26    H18     20.544221   20.829654   25.769540 H          1 MOL1         0.0978
@<TRIPOS>BOND
    1     1     2    1
    2     1     3    1
    3     1     4    1
    4     4     5    1
    5     4     6    1
    6     4     7    1
    7     7     8    1
    8     7     9    1
    9     7    10    1
   10    10    11    1
   11    10    12    1
   12    10    13    1
   13    13    14    1
   14    13    15    1
   15    13    16    1
   16    16    17    1
   17    16    18    1
   18    16    19    1
   19    19    20    1
   20    19    21    1
   21    19    22    1
   22     1    23    1
   23    23    24    1
   24    23    25    1
   25    23    26    1
@<TRIPOS>SUBSTRUCTURE
       1 MOL1            1 RESIDUE      1      MOL     
@<SCITEGIC>MOL_PROPERTY
VM2 Rank
SciTegic.value.IntegerValue
129

@<SCITEGIC>MOL_PROPERTY
Conf_Id
SciTegic.value.IntegerValue
1627

@<SCITEGIC>MOL_PROPERTY
Probability
SciTegic.value.DoubleValue
0.03

@<SCITEGIC>MOL_PROPERTY
Sum Probability
SciTegic.value.DoubleValue
99.25

@<SCITEGIC>MOL_PROPERTY
Delta G
SciTegic.value.DoubleValue
3.254

@<SCITEGIC>MOL_PROPERTY
G
SciTegic.value.DoubleValue
78.721

@<SCITEGIC>MOL_PROPERTY
E
SciTegic.value.DoubleValue
45.989

@<SCITEGIC>MOL_PROPERTY
-TS
SciTegic.value.DoubleValue
32.732

@<SCITEGIC>MOL_PROPERTY
U+W
SciTegic.value.DoubleValue
24.527

@<SCITEGIC>MOL_PROPERTY
U
SciTegic.value.DoubleValue
74.537

@<SCITEGIC>MOL_PROPERTY
W
SciTegic.value.DoubleValue
-50.010

@<SCITEGIC>MOL_PROPERTY
W(PB)
SciTegic.value.DoubleValue
-52.200

@<SCITEGIC>MOL_PROPERTY
W(SA)
SciTegic.value.DoubleValue
2.191

@<SCITEGIC>MOL_PROPERTY
Valence
SciTegic.value.DoubleValue
4.772

@<SCITEGIC>MOL_PROPERTY
Coulomb
SciTegic.value.DoubleValue
69.421

@<SCITEGIC>MOL_PROPERTY
VdW
SciTegic.value.DoubleValue
0.344

@<SCITEGIC>MOL_PROPERTY
VdW6
SciTegic.value.DoubleValue
-8.669

@<SCITEGIC>MOL_PROPERTY
VdW12
SciTegic.value.DoubleValue
9.013

@<SCITEGIC>MOL_PROPERTY
Bond
SciTegic.value.DoubleValue
0.278

@<SCITEGIC>MOL_PROPERTY
Angle
SciTegic.value.DoubleValue
1.581

@<SCITEGIC>MOL_PROPERTY
Pdih
SciTegic.value.DoubleValue
2.912

@<SCITEGIC>MOL_PROPERTY
Idih
SciTegic.value.DoubleValue
0.000

@<SCITEGIC>MOL_PROPERTY
Tether
SciTegic.value.DoubleValue
0.000

@<TRIPOS>MOLECULE
guest-s12_vm2.mol2 : vm2 ligand conformer 130
          26          25           1
SMALL
USER_CHARGES
 
@<TRIPOS>ATOM
       1    N1      19.682069   19.188098   25.937472 N.4        1 MOL1        -0.4857
       2    H1      19.941304   19.264004   26.933707 H          1 MOL1         0.3650
       3    H2      18.776332   18.695199   25.936016 H          1 MOL1         0.3650
       4    C1      20.732108   18.364556   25.208024 C.3        1 MOL1         0.0209
       5    H3      21.160286   17.682050   25.946618 H          1 MOL1         0.0967
       6    H4      21.528913   19.035077   24.878105 H          1 MOL1         0.0967
       7    C2      20.208747   17.515109   24.026122 C.3        1 MOL1        -0.1378
       8    H5      21.025634   16.869262   23.677880 H          1 MOL1         0.0993
       9    H6      19.426463   16.838307   24.394171 H          1 MOL1         0.0993
      10    C3      19.660192   18.317788   22.820323 C.3        1 MOL1        -0.1338
      11    H7      18.782176   18.899912   23.127418 H          1 MOL1         0.0993
      12    H8      19.298744   17.600573   22.071997 H          1 MOL1         0.0993
      13    C4      20.718972   19.245999   22.171992 C.3        1 MOL1        -0.1338
      14    H9      21.129949   19.925154   22.929857 H          1 MOL1         0.0993
      15    H10     21.563607   18.644811   21.808323 H          1 MOL1         0.0993
      16    C5      20.157573   20.103180   21.011714 C.3        1 MOL1        -0.1313
      17    H11     20.937740   20.803548   20.682041 H          1 MOL1         0.0993
      18    H12     19.324598   20.721012   21.375286 H          1 MOL1         0.0993
      19    C6      19.693707   19.268123   19.796414 C.3        1 MOL1        -0.2328
      20    H13     18.829110   18.640127   20.044216 H          1 MOL1         0.1004
      21    H14     20.499676   18.617231   19.433467 H          1 MOL1         0.1004
      22    H15     19.396216   19.926006   18.969615 H          1 MOL1         0.1004
      23    C7      19.554632   20.587146   25.344940 C.3        1 MOL1        -0.0781
      24    H16     18.810540   21.148729   25.914138 H          1 MOL1         0.0978
      25    H17     20.521603   21.090900   25.407560 H          1 MOL1         0.0978
      26    H18     19.242495   20.518262   24.302232 H          1 MOL1         0.0978
@<TRIPOS>BOND
    1     1     2    1
    2     1     3    1
    3     1     4    1
    4     4     5    1
    5     4     6    1
    6     4     7    1
    7     7     8    1
    8     7     9    1
    9     7    10    1
   10    10    11    1
   11    10    12    1
   12    10    13    1
   13    13    14    1
   14    13    15    1
   15    13    16    1
   16    16    17    1
   17    16    18    1
   18    16    19    1
   19    19    20    1
   20    19    21    1
   21    19    22    1
   22     1    23    1
   23    23    24    1
   24    23    25    1
   25    23    26    1
@<TRIPOS>SUBSTRUCTURE
       1 MOL1            1 RESIDUE      1      MOL     
@<SCITEGIC>MOL_PROPERTY
VM2 Rank
SciTegic.value.IntegerValue
130

@<SCITEGIC>MOL_PROPERTY
Conf_Id
SciTegic.value.IntegerValue
218

@<SCITEGIC>MOL_PROPERTY
Probability
SciTegic.value.DoubleValue
0.02

@<SCITEGIC>MOL_PROPERTY
Sum Probability
SciTegic.value.DoubleValue
99.28

@<SCITEGIC>MOL_PROPERTY
Delta G
SciTegic.value.DoubleValue
3.335

@<SCITEGIC>MOL_PROPERTY
G
SciTegic.value.DoubleValue
78.802

@<SCITEGIC>MOL_PROPERTY
E
SciTegic.value.DoubleValue
45.755

@<SCITEGIC>MOL_PROPERTY
-TS
SciTegic.value.DoubleValue
33.046

@<SCITEGIC>MOL_PROPERTY
U+W
SciTegic.value.DoubleValue
24.294

@<SCITEGIC>MOL_PROPERTY
U
SciTegic.value.DoubleValue
74.192

@<SCITEGIC>MOL_PROPERTY
W
SciTegic.value.DoubleValue
-49.897

@<SCITEGIC>MOL_PROPERTY
W(PB)
SciTegic.value.DoubleValue
-52.091

@<SCITEGIC>MOL_PROPERTY
W(SA)
SciTegic.value.DoubleValue
2.194

@<SCITEGIC>MOL_PROPERTY
Valence
SciTegic.value.DoubleValue
4.602

@<SCITEGIC>MOL_PROPERTY
Coulomb
SciTegic.value.DoubleValue
69.486

@<SCITEGIC>MOL_PROPERTY
VdW
SciTegic.value.DoubleValue
0.104

@<SCITEGIC>MOL_PROPERTY
VdW6
SciTegic.value.DoubleValue
-8.802

@<SCITEGIC>MOL_PROPERTY
VdW12
SciTegic.value.DoubleValue
8.907

@<SCITEGIC>MOL_PROPERTY
Bond
SciTegic.value.DoubleValue
0.257

@<SCITEGIC>MOL_PROPERTY
Angle
SciTegic.value.DoubleValue
1.462

@<SCITEGIC>MOL_PROPERTY
Pdih
SciTegic.value.DoubleValue
2.883

@<SCITEGIC>MOL_PROPERTY
Idih
SciTegic.value.DoubleValue
0.000

@<SCITEGIC>MOL_PROPERTY
Tether
SciTegic.value.DoubleValue
0.000

@<TRIPOS>MOLECULE
guest-s12_vm2.mol2 : vm2 ligand conformer 131
          26          25           1
SMALL
USER_CHARGES
 
@<TRIPOS>ATOM
       1    N1      20.202646   19.241502   25.956007 N.4        1 MOL1        -0.4857
       2    H1      21.187412   18.942766   26.021602 H          1 MOL1         0.3650
       3    H2      19.864198   19.255971   26.931041 H          1 MOL1         0.3650
       4    C1      19.395456   18.227249   25.160624 C.3        1 MOL1         0.0209
       5    H3      18.504245   18.724410   24.770862 H          1 MOL1         0.0967
       6    H4      19.064060   17.466683   25.872232 H          1 MOL1         0.0967
       7    C2      20.161928   17.510354   24.024430 C.3        1 MOL1        -0.1378
       8    H5      21.037617   17.003898   24.451232 H          1 MOL1         0.0993
       9    H6      19.519686   16.714589   23.624456 H          1 MOL1         0.0993
      10    C3      20.619121   18.416388   22.854286 C.3        1 MOL1        -0.1338
      11    H7      21.170143   17.792923   22.138256 H          1 MOL1         0.0993
      12    H8      21.336954   19.162425   23.217927 H          1 MOL1         0.0993
      13    C4      19.441964   19.114957   22.126805 C.3        1 MOL1        -0.1338
      14    H9      18.764461   18.357447   21.709362 H          1 MOL1         0.0993
      15    H10     18.849742   19.691167   22.849140 H          1 MOL1         0.0993
      16    C5      19.897417   20.076454   21.002413 C.3        1 MOL1        -0.1313
      17    H11     20.560211   20.847860   21.418807 H          1 MOL1         0.0993
      18    H12     19.016345   20.606261   20.613985 H          1 MOL1         0.0993
      19    C6      20.604835   19.361553   19.828564 C.3        1 MOL1        -0.2328
      20    H13     19.975090   18.563236   19.414935 H          1 MOL1         0.1004
      21    H14     21.559412   18.920340   20.140695 H          1 MOL1         0.1004
      22    H15     20.819652   20.071968   19.019817 H          1 MOL1         0.1004
      23    C7      20.084632   20.641543   25.363872 C.3        1 MOL1        -0.0781
      24    H16     19.033572   20.938043   25.354945 H          1 MOL1         0.0978
      25    H17     20.657457   21.338344   25.979804 H          1 MOL1         0.0978
      26    H18     20.476560   20.645012   24.346131 H          1 MOL1         0.0978
@<TRIPOS>BOND
    1     1     2    1
    2     1     3    1
    3     1     4    1
    4     4     5    1
    5     4     6    1
    6     4     7    1
    7     7     8    1
    8     7     9    1
    9     7    10    1
   10    10    11    1
   11    10    12    1
   12    10    13    1
   13    13    14    1
   14    13    15    1
   15    13    16    1
   16    16    17    1
   17    16    18    1
   18    16    19    1
   19    19    20    1
   20    19    21    1
   21    19    22    1
   22     1    23    1
   23    23    24    1
   24    23    25    1
   25    23    26    1
@<TRIPOS>SUBSTRUCTURE
       1 MOL1            1 RESIDUE      1      MOL     
@<SCITEGIC>MOL_PROPERTY
VM2 Rank
SciTegic.value.IntegerValue
131

@<SCITEGIC>MOL_PROPERTY
Conf_Id
SciTegic.value.IntegerValue
503

@<SCITEGIC>MOL_PROPERTY
Probability
SciTegic.value.DoubleValue
0.02

@<SCITEGIC>MOL_PROPERTY
Sum Probability
SciTegic.value.DoubleValue
99.30

@<SCITEGIC>MOL_PROPERTY
Delta G
SciTegic.value.DoubleValue
3.343

@<SCITEGIC>MOL_PROPERTY
G
SciTegic.value.DoubleValue
78.810

@<SCITEGIC>MOL_PROPERTY
E
SciTegic.value.DoubleValue
45.764

@<SCITEGIC>MOL_PROPERTY
-TS
SciTegic.value.DoubleValue
33.046

@<SCITEGIC>MOL_PROPERTY
U+W
SciTegic.value.DoubleValue
24.302

@<SCITEGIC>MOL_PROPERTY
U
SciTegic.value.DoubleValue
74.192

@<SCITEGIC>MOL_PROPERTY
W
SciTegic.value.DoubleValue
-49.890

@<SCITEGIC>MOL_PROPERTY
W(PB)
SciTegic.value.DoubleValue
-52.098

@<SCITEGIC>MOL_PROPERTY
W(SA)
SciTegic.value.DoubleValue
2.209

@<SCITEGIC>MOL_PROPERTY
Valence
SciTegic.value.DoubleValue
4.602

@<SCITEGIC>MOL_PROPERTY
Coulomb
SciTegic.value.DoubleValue
69.486

@<SCITEGIC>MOL_PROPERTY
VdW
SciTegic.value.DoubleValue
0.104

@<SCITEGIC>MOL_PROPERTY
VdW6
SciTegic.value.DoubleValue
-8.802

@<SCITEGIC>MOL_PROPERTY
VdW12
SciTegic.value.DoubleValue
8.907

@<SCITEGIC>MOL_PROPERTY
Bond
SciTegic.value.DoubleValue
0.257

@<SCITEGIC>MOL_PROPERTY
Angle
SciTegic.value.DoubleValue
1.462

@<SCITEGIC>MOL_PROPERTY
Pdih
SciTegic.value.DoubleValue
2.883

@<SCITEGIC>MOL_PROPERTY
Idih
SciTegic.value.DoubleValue
0.000

@<SCITEGIC>MOL_PROPERTY
Tether
SciTegic.value.DoubleValue
0.000

@<TRIPOS>MOLECULE
guest-s12_vm2.mol2 : vm2 ligand conformer 132
          26          25           1
SMALL
USER_CHARGES
 
@<TRIPOS>ATOM
       1    N1      19.078548   18.558106   25.699478 N.4        1 MOL1        -0.4857
       2    H1      19.249405   17.556381   25.521501 H          1 MOL1         0.3650
       3    H2      18.058428   18.633920   25.839079 H          1 MOL1         0.3650
       4    C1      19.489567   19.384289   24.492114 C.3        1 MOL1         0.0209
       5    H3      19.333249   20.437674   24.737617 H          1 MOL1         0.0967
       6    H4      18.808631   19.125460   23.679907 H          1 MOL1         0.0967
       7    C2      20.948589   19.166394   24.034010 C.3        1 MOL1        -0.1378
       8    H5      21.617808   19.489221   24.841890 H          1 MOL1         0.0993
       9    H6      21.143997   18.097210   23.878593 H          1 MOL1         0.0993
      10    C3      21.307450   19.964517   22.755004 C.3        1 MOL1        -0.1338
      11    H7      22.384933   20.179142   22.777213 H          1 MOL1         0.0993
      12    H8      20.809606   20.944070   22.770391 H          1 MOL1         0.0993
      13    C4      21.004623   19.232779   21.421316 C.3        1 MOL1        -0.1338
      14    H9      21.363159   19.863793   20.596251 H          1 MOL1         0.0993
      15    H10     21.591629   18.305266   21.371690 H          1 MOL1         0.0993
      16    C5      19.510936   18.906942   21.189638 C.3        1 MOL1        -0.1313
      17    H11     18.903057   19.809204   21.344911 H          1 MOL1         0.0993
      18    H12     19.174167   18.157552   21.917717 H          1 MOL1         0.0993
      19    C6      19.261162   18.360366   19.767720 C.3        1 MOL1        -0.2328
      20    H13     19.548412   19.095864   19.005012 H          1 MOL1         0.1004
      21    H14     18.198666   18.124822   19.624061 H          1 MOL1         0.1004
      22    H15     19.836517   17.442218   19.591093 H          1 MOL1         0.1004
      23    C7      19.807127   19.016606   26.957720 C.3        1 MOL1        -0.0781
      24    H16     19.457843   18.426229   27.807738 H          1 MOL1         0.0978
      25    H17     20.881325   18.871367   26.827171 H          1 MOL1         0.0978
      26    H18     19.593903   20.073698   27.130685 H          1 MOL1         0.0978
@<TRIPOS>BOND
    1     1     2    1
    2     1     3    1
    3     1     4    1
    4     4     5    1
    5     4     6    1
    6     4     7    1
    7     7     8    1
    8     7     9    1
    9     7    10    1
   10    10    11    1
   11    10    12    1
   12    10    13    1
   13    13    14    1
   14    13    15    1
   15    13    16    1
   16    16    17    1
   17    16    18    1
   18    16    19    1
   19    19    20    1
   20    19    21    1
   21    19    22    1
   22     1    23    1
   23    23    24    1
   24    23    25    1
   25    23    26    1
@<TRIPOS>SUBSTRUCTURE
       1 MOL1            1 RESIDUE      1      MOL     
@<SCITEGIC>MOL_PROPERTY
VM2 Rank
SciTegic.value.IntegerValue
132

@<SCITEGIC>MOL_PROPERTY
Conf_Id
SciTegic.value.IntegerValue
1372

@<SCITEGIC>MOL_PROPERTY
Probability
SciTegic.value.DoubleValue
0.02

@<SCITEGIC>MOL_PROPERTY
Sum Probability
SciTegic.value.DoubleValue
99.33

@<SCITEGIC>MOL_PROPERTY
Delta G
SciTegic.value.DoubleValue
3.361

@<SCITEGIC>MOL_PROPERTY
G
SciTegic.value.DoubleValue
78.827

@<SCITEGIC>MOL_PROPERTY
E
SciTegic.value.DoubleValue
46.143

@<SCITEGIC>MOL_PROPERTY
-TS
SciTegic.value.DoubleValue
32.685

@<SCITEGIC>MOL_PROPERTY
U+W
SciTegic.value.DoubleValue
24.681

@<SCITEGIC>MOL_PROPERTY
U
SciTegic.value.DoubleValue
74.467

@<SCITEGIC>MOL_PROPERTY
W
SciTegic.value.DoubleValue
-49.787

@<SCITEGIC>MOL_PROPERTY
W(PB)
SciTegic.value.DoubleValue
-52.033

@<SCITEGIC>MOL_PROPERTY
W(SA)
SciTegic.value.DoubleValue
2.246

@<SCITEGIC>MOL_PROPERTY
Valence
SciTegic.value.DoubleValue
4.429

@<SCITEGIC>MOL_PROPERTY
Coulomb
SciTegic.value.DoubleValue
69.610

@<SCITEGIC>MOL_PROPERTY
VdW
SciTegic.value.DoubleValue
0.428

@<SCITEGIC>MOL_PROPERTY
VdW6
SciTegic.value.DoubleValue
-7.655

@<SCITEGIC>MOL_PROPERTY
VdW12
SciTegic.value.DoubleValue
8.082

@<SCITEGIC>MOL_PROPERTY
Bond
SciTegic.value.DoubleValue
0.236

@<SCITEGIC>MOL_PROPERTY
Angle
SciTegic.value.DoubleValue
1.210

@<SCITEGIC>MOL_PROPERTY
Pdih
SciTegic.value.DoubleValue
2.984

@<SCITEGIC>MOL_PROPERTY
Idih
SciTegic.value.DoubleValue
0.000

@<SCITEGIC>MOL_PROPERTY
Tether
SciTegic.value.DoubleValue
0.000

@<TRIPOS>MOLECULE
guest-s12_vm2.mol2 : vm2 ligand conformer 133
          26          25           1
SMALL
USER_CHARGES
 
@<TRIPOS>ATOM
       1    N1      19.700202   18.440712   26.018832 N.4        1 MOL1        -0.4857
       2    H1      20.525092   17.844230   26.187939 H          1 MOL1         0.3650
       3    H2      18.959102   17.799518   25.695767 H          1 MOL1         0.3650
       4    C1      20.008048   19.467124   24.947101 C.3        1 MOL1         0.0209
       5    H3      20.800363   20.118493   25.324512 H          1 MOL1         0.0967
       6    H4      19.110074   20.070825   24.793257 H          1 MOL1         0.0967
       7    C2      20.445472   18.840234   23.610901 C.3        1 MOL1        -0.1378
       8    H5      21.337699   18.221675   23.775694 H          1 MOL1         0.0993
       9    H6      19.656602   18.169507   23.252571 H          1 MOL1         0.0993
      10    C3      20.758460   19.927492   22.554778 C.3        1 MOL1        -0.1338
      11    H7      21.568047   20.559508   22.945821 H          1 MOL1         0.0993
      12    H8      19.893490   20.591815   22.420706 H          1 MOL1         0.0993
      13    C4      21.204262   19.350636   21.185480 C.3        1 MOL1        -0.1338
      14    H9      21.956620   20.027891   20.757926 H          1 MOL1         0.0993
      15    H10     21.717894   18.389442   21.324959 H          1 MOL1         0.0993
      16    C5      20.067097   19.200800   20.142435 C.3        1 MOL1        -0.1313
      17    H11     20.506195   18.854809   19.196208 H          1 MOL1         0.0993
      18    H12     19.628748   20.186166   19.930989 H          1 MOL1         0.0993
      19    C6      18.947542   18.220430   20.555659 C.3        1 MOL1        -0.2328
      20    H13     18.250512   18.061728   19.722680 H          1 MOL1         0.1004
      21    H14     18.365108   18.612596   21.398312 H          1 MOL1         0.1004
      22    H15     19.360137   17.243392   20.838487 H          1 MOL1         0.1004
      23    C7      19.276916   19.142572   27.301814 C.3        1 MOL1        -0.0781
      24    H16     18.384209   19.740733   27.106269 H          1 MOL1         0.0978
      25    H17     19.058403   18.392443   28.065161 H          1 MOL1         0.0978
      26    H18     20.088673   19.789333   27.641978 H          1 MOL1         0.0978
@<TRIPOS>BOND
    1     1     2    1
    2     1     3    1
    3     1     4    1
    4     4     5    1
    5     4     6    1
    6     4     7    1
    7     7     8    1
    8     7     9    1
    9     7    10    1
   10    10    11    1
   11    10    12    1
   12    10    13    1
   13    13    14    1
   14    13    15    1
   15    13    16    1
   16    16    17    1
   17    16    18    1
   18    16    19    1
   19    19    20    1
   20    19    21    1
   21    19    22    1
   22     1    23    1
   23    23    24    1
   24    23    25    1
   25    23    26    1
@<TRIPOS>SUBSTRUCTURE
       1 MOL1            1 RESIDUE      1      MOL     
@<SCITEGIC>MOL_PROPERTY
VM2 Rank
SciTegic.value.IntegerValue
133

@<SCITEGIC>MOL_PROPERTY
Conf_Id
SciTegic.value.IntegerValue
1225

@<SCITEGIC>MOL_PROPERTY
Probability
SciTegic.value.DoubleValue
0.02

@<SCITEGIC>MOL_PROPERTY
Sum Probability
SciTegic.value.DoubleValue
99.35

@<SCITEGIC>MOL_PROPERTY
Delta G
SciTegic.value.DoubleValue
3.370

@<SCITEGIC>MOL_PROPERTY
G
SciTegic.value.DoubleValue
78.837

@<SCITEGIC>MOL_PROPERTY
E
SciTegic.value.DoubleValue
46.334

@<SCITEGIC>MOL_PROPERTY
-TS
SciTegic.value.DoubleValue
32.503

@<SCITEGIC>MOL_PROPERTY
U+W
SciTegic.value.DoubleValue
24.872

@<SCITEGIC>MOL_PROPERTY
U
SciTegic.value.DoubleValue
74.070

@<SCITEGIC>MOL_PROPERTY
W
SciTegic.value.DoubleValue
-49.198

@<SCITEGIC>MOL_PROPERTY
W(PB)
SciTegic.value.DoubleValue
-51.475

@<SCITEGIC>MOL_PROPERTY
W(SA)
SciTegic.value.DoubleValue
2.277

@<SCITEGIC>MOL_PROPERTY
Valence
SciTegic.value.DoubleValue
4.690

@<SCITEGIC>MOL_PROPERTY
Coulomb
SciTegic.value.DoubleValue
69.115

@<SCITEGIC>MOL_PROPERTY
VdW
SciTegic.value.DoubleValue
0.266

@<SCITEGIC>MOL_PROPERTY
VdW6
SciTegic.value.DoubleValue
-6.809

@<SCITEGIC>MOL_PROPERTY
VdW12
SciTegic.value.DoubleValue
7.075

@<SCITEGIC>MOL_PROPERTY
Bond
SciTegic.value.DoubleValue
0.212

@<SCITEGIC>MOL_PROPERTY
Angle
SciTegic.value.DoubleValue
1.133

@<SCITEGIC>MOL_PROPERTY
Pdih
SciTegic.value.DoubleValue
3.345

@<SCITEGIC>MOL_PROPERTY
Idih
SciTegic.value.DoubleValue
0.000

@<SCITEGIC>MOL_PROPERTY
Tether
SciTegic.value.DoubleValue
0.000

@<TRIPOS>MOLECULE
guest-s12_vm2.mol2 : vm2 ligand conformer 134
          26          25           1
SMALL
USER_CHARGES
 
@<TRIPOS>ATOM
       1    N1      20.936085   18.747473   25.765482 N.4        1 MOL1        -0.4857
       2    H1      21.907731   19.026153   25.975537 H          1 MOL1         0.3650
       3    H2      20.983263   17.733095   25.583448 H          1 MOL1         0.3650
       4    C1      20.452727   19.482199   24.526217 C.3        1 MOL1         0.0209
       5    H3      21.227094   19.371517   23.765658 H          1 MOL1         0.0967
       6    H4      20.375972   20.543751   24.774292 H          1 MOL1         0.0967
       7    C2      19.103328   18.977912   23.968633 C.3        1 MOL1        -0.1378
       8    H5      19.138867   17.892426   23.807538 H          1 MOL1         0.0993
       9    H6      18.327876   19.153392   24.725350 H          1 MOL1         0.0993
      10    C3      18.681344   19.696431   22.661998 C.3        1 MOL1        -0.1338
      11    H7      18.969058   20.756128   22.705265 H          1 MOL1         0.0993
      12    H8      17.583862   19.689160   22.607165 H          1 MOL1         0.0993
      13    C4      19.218167   19.050430   21.358016 C.3        1 MOL1        -0.1338
      14    H9      18.835386   18.023907   21.274055 H          1 MOL1         0.0993
      15    H10     18.798268   19.601984   20.505413 H          1 MOL1         0.0993
      16    C5      20.759348   19.034456   21.233733 C.3        1 MOL1        -0.1313
      17    H11     21.188663   18.363253   21.988894 H          1 MOL1         0.0993
      18    H12     21.160218   20.039704   21.424738 H          1 MOL1         0.0993
      19    C6      21.213156   18.559760   19.836700 C.3        1 MOL1        -0.2328
      20    H13     20.837457   19.227601   19.050550 H          1 MOL1         0.1004
      21    H14     20.848750   17.545675   19.626782 H          1 MOL1         0.1004
      22    H15     22.308718   18.544539   19.769419 H          1 MOL1         0.1004
      23    C7      20.043845   19.041339   26.966221 C.3        1 MOL1        -0.0781
      24    H16     19.032686   18.683774   26.761906 H          1 MOL1         0.0978
      25    H17     20.444387   18.527551   27.842955 H          1 MOL1         0.0978
      26    H18     20.027323   20.118507   27.145833 H          1 MOL1         0.0978
@<TRIPOS>BOND
    1     1     2    1
    2     1     3    1
    3     1     4    1
    4     4     5    1
    5     4     6    1
    6     4     7    1
    7     7     8    1
    8     7     9    1
    9     7    10    1
   10    10    11    1
   11    10    12    1
   12    10    13    1
   13    13    14    1
   14    13    15    1
   15    13    16    1
   16    16    17    1
   17    16    18    1
   18    16    19    1
   19    19    20    1
   20    19    21    1
   21    19    22    1
   22     1    23    1
   23    23    24    1
   24    23    25    1
   25    23    26    1
@<TRIPOS>SUBSTRUCTURE
       1 MOL1            1 RESIDUE      1      MOL     
@<SCITEGIC>MOL_PROPERTY
VM2 Rank
SciTegic.value.IntegerValue
134

@<SCITEGIC>MOL_PROPERTY
Conf_Id
SciTegic.value.IntegerValue
504

@<SCITEGIC>MOL_PROPERTY
Probability
SciTegic.value.DoubleValue
0.02

@<SCITEGIC>MOL_PROPERTY
Sum Probability
SciTegic.value.DoubleValue
99.37

@<SCITEGIC>MOL_PROPERTY
Delta G
SciTegic.value.DoubleValue
3.381

@<SCITEGIC>MOL_PROPERTY
G
SciTegic.value.DoubleValue
78.848

@<SCITEGIC>MOL_PROPERTY
E
SciTegic.value.DoubleValue
46.164

@<SCITEGIC>MOL_PROPERTY
-TS
SciTegic.value.DoubleValue
32.684

@<SCITEGIC>MOL_PROPERTY
U+W
SciTegic.value.DoubleValue
24.702

@<SCITEGIC>MOL_PROPERTY
U
SciTegic.value.DoubleValue
74.467

@<SCITEGIC>MOL_PROPERTY
W
SciTegic.value.DoubleValue
-49.765

@<SCITEGIC>MOL_PROPERTY
W(PB)
SciTegic.value.DoubleValue
-52.030

@<SCITEGIC>MOL_PROPERTY
W(SA)
SciTegic.value.DoubleValue
2.265

@<SCITEGIC>MOL_PROPERTY
Valence
SciTegic.value.DoubleValue
4.429

@<SCITEGIC>MOL_PROPERTY
Coulomb
SciTegic.value.DoubleValue
69.610

@<SCITEGIC>MOL_PROPERTY
VdW
SciTegic.value.DoubleValue
0.428

@<SCITEGIC>MOL_PROPERTY
VdW6
SciTegic.value.DoubleValue
-7.654

@<SCITEGIC>MOL_PROPERTY
VdW12
SciTegic.value.DoubleValue
8.082

@<SCITEGIC>MOL_PROPERTY
Bond
SciTegic.value.DoubleValue
0.236

@<SCITEGIC>MOL_PROPERTY
Angle
SciTegic.value.DoubleValue
1.210

@<SCITEGIC>MOL_PROPERTY
Pdih
SciTegic.value.DoubleValue
2.984

@<SCITEGIC>MOL_PROPERTY
Idih
SciTegic.value.DoubleValue
0.000

@<SCITEGIC>MOL_PROPERTY
Tether
SciTegic.value.DoubleValue
0.000

@<TRIPOS>MOLECULE
guest-s12_vm2.mol2 : vm2 ligand conformer 135
          26          25           1
SMALL
USER_CHARGES
 
@<TRIPOS>ATOM
       1    N1      20.850991   18.672003   25.828697 N.4        1 MOL1        -0.4857
       2    H1      21.878283   18.703083   25.926470 H          1 MOL1         0.3650
       3    H2      20.601127   17.679547   25.959134 H          1 MOL1         0.3650
       4    C1      20.458969   19.134384   24.435251 C.3        1 MOL1         0.0209
       5    H3      21.096589   18.596785   23.729975 H          1 MOL1         0.0967
       6    H4      20.684359   20.200917   24.357940 H          1 MOL1         0.0967
       7    C2      18.983157   18.879857   24.066474 C.3        1 MOL1        -0.1378
       8    H5      18.773728   17.803922   24.130000 H          1 MOL1         0.0993
       9    H6      18.334824   19.365606   24.806785 H          1 MOL1         0.0993
      10    C3      18.591909   19.400564   22.660260 C.3        1 MOL1        -0.1338
      11    H7      18.712851   20.491688   22.613404 H          1 MOL1         0.0993
      12    H8      17.516995   19.215506   22.526613 H          1 MOL1         0.0993
      13    C4      19.347334   18.724852   21.485770 C.3        1 MOL1        -0.1338
      14    H9      19.571511   17.678095   21.733397 H          1 MOL1         0.0993
      15    H10     18.674877   18.692489   20.617233 H          1 MOL1         0.0993
      16    C5      20.638421   19.467997   21.063622 C.3        1 MOL1        -0.1313
      17    H11     21.344049   19.531733   21.900152 H          1 MOL1         0.0993
      18    H12     20.393082   20.501688   20.782318 H          1 MOL1         0.0993
      19    C6      21.332515   18.769991   19.874595 C.3        1 MOL1        -0.2328
      20    H13     21.621508   17.743092   20.133735 H          1 MOL1         0.1004
      21    H14     22.241551   19.312177   19.583531 H          1 MOL1         0.1004
      22    H15     20.670988   18.728361   18.999464 H          1 MOL1         0.1004
      23    C7      20.204704   19.540353   26.902331 C.3        1 MOL1        -0.0781
      24    H16     19.118697   19.450282   26.836281 H          1 MOL1         0.0978
      25    H17     20.541403   19.202618   27.885005 H          1 MOL1         0.0978
      26    H18     20.500751   20.580358   26.748799 H          1 MOL1         0.0978
@<TRIPOS>BOND
    1     1     2    1
    2     1     3    1
    3     1     4    1
    4     4     5    1
    5     4     6    1
    6     4     7    1
    7     7     8    1
    8     7     9    1
    9     7    10    1
   10    10    11    1
   11    10    12    1
   12    10    13    1
   13    13    14    1
   14    13    15    1
   15    13    16    1
   16    16    17    1
   17    16    18    1
   18    16    19    1
   19    19    20    1
   20    19    21    1
   21    19    22    1
   22     1    23    1
   23    23    24    1
   24    23    25    1
   25    23    26    1
@<TRIPOS>SUBSTRUCTURE
       1 MOL1            1 RESIDUE      1      MOL     
@<SCITEGIC>MOL_PROPERTY
VM2 Rank
SciTegic.value.IntegerValue
135

@<SCITEGIC>MOL_PROPERTY
Conf_Id
SciTegic.value.IntegerValue
1616

@<SCITEGIC>MOL_PROPERTY
Probability
SciTegic.value.DoubleValue
0.02

@<SCITEGIC>MOL_PROPERTY
Sum Probability
SciTegic.value.DoubleValue
99.40

@<SCITEGIC>MOL_PROPERTY
Delta G
SciTegic.value.DoubleValue
3.390

@<SCITEGIC>MOL_PROPERTY
G
SciTegic.value.DoubleValue
78.857

@<SCITEGIC>MOL_PROPERTY
E
SciTegic.value.DoubleValue
46.353

@<SCITEGIC>MOL_PROPERTY
-TS
SciTegic.value.DoubleValue
32.503

@<SCITEGIC>MOL_PROPERTY
U+W
SciTegic.value.DoubleValue
24.891

@<SCITEGIC>MOL_PROPERTY
U
SciTegic.value.DoubleValue
74.474

@<SCITEGIC>MOL_PROPERTY
W
SciTegic.value.DoubleValue
-49.583

@<SCITEGIC>MOL_PROPERTY
W(PB)
SciTegic.value.DoubleValue
-51.832

@<SCITEGIC>MOL_PROPERTY
W(SA)
SciTegic.value.DoubleValue
2.249

@<SCITEGIC>MOL_PROPERTY
Valence
SciTegic.value.DoubleValue
4.600

@<SCITEGIC>MOL_PROPERTY
Coulomb
SciTegic.value.DoubleValue
69.381

@<SCITEGIC>MOL_PROPERTY
VdW
SciTegic.value.DoubleValue
0.493

@<SCITEGIC>MOL_PROPERTY
VdW6
SciTegic.value.DoubleValue
-7.465

@<SCITEGIC>MOL_PROPERTY
VdW12
SciTegic.value.DoubleValue
7.958

@<SCITEGIC>MOL_PROPERTY
Bond
SciTegic.value.DoubleValue
0.243

@<SCITEGIC>MOL_PROPERTY
Angle
SciTegic.value.DoubleValue
1.200

@<SCITEGIC>MOL_PROPERTY
Pdih
SciTegic.value.DoubleValue
3.157

@<SCITEGIC>MOL_PROPERTY
Idih
SciTegic.value.DoubleValue
0.000

@<SCITEGIC>MOL_PROPERTY
Tether
SciTegic.value.DoubleValue
0.000

@<TRIPOS>MOLECULE
guest-s12_vm2.mol2 : vm2 ligand conformer 136
          26          25           1
SMALL
USER_CHARGES
 
@<TRIPOS>ATOM
       1    N1      20.416179   18.457276   25.957108 N.4        1 MOL1        -0.4857
       2    H1      21.412010   18.308450   25.731472 H          1 MOL1         0.3650
       3    H2      19.970711   17.531731   25.858520 H          1 MOL1         0.3650
       4    C1      19.800070   19.440650   24.982273 C.3        1 MOL1         0.0209
       5    H3      20.303272   20.402047   25.112642 H          1 MOL1         0.0967
       6    H4      18.747733   19.563612   25.250494 H          1 MOL1         0.0967
       7    C2      19.911396   18.992859   23.513597 C.3        1 MOL1        -0.1378
       8    H5      20.971125   18.859793   23.263159 H          1 MOL1         0.0993
       9    H6      19.417392   18.020063   23.389600 H          1 MOL1         0.0993
      10    C3      19.273677   20.027940   22.559341 C.3        1 MOL1        -0.1338
      11    H7      19.831520   20.972734   22.620444 H          1 MOL1         0.0993
      12    H8      18.255377   20.252236   22.906482 H          1 MOL1         0.0993
      13    C4      19.192355   19.571927   21.079248 C.3        1 MOL1        -0.1338
      14    H9      18.546329   18.687573   20.990933 H          1 MOL1         0.0993
      15    H10     18.682615   20.366596   20.516942 H          1 MOL1         0.0993
      16    C5      20.561891   19.305467   20.402378 C.3        1 MOL1        -0.1313
      17    H11     21.339665   19.939349   20.850587 H          1 MOL1         0.0993
      18    H12     20.495751   19.609615   19.348275 H          1 MOL1         0.0993
      19    C6      20.989435   17.819438   20.442256 C.3        1 MOL1        -0.2328
      20    H13     20.251000   17.185625   19.934290 H          1 MOL1         0.1004
      21    H14     21.103232   17.448966   21.466776 H          1 MOL1         0.1004
      22    H15     21.951398   17.683159   19.931409 H          1 MOL1         0.1004
      23    C7      20.262997   18.974444   27.380798 C.3        1 MOL1        -0.0781
      24    H16     19.201143   19.092440   27.607740 H          1 MOL1         0.0978
      25    H17     20.710556   18.257279   28.072540 H          1 MOL1         0.0978
      26    H18     20.769750   19.937933   27.469397 H          1 MOL1         0.0978
@<TRIPOS>BOND
    1     1     2    1
    2     1     3    1
    3     1     4    1
    4     4     5    1
    5     4     6    1
    6     4     7    1
    7     7     8    1
    8     7     9    1
    9     7    10    1
   10    10    11    1
   11    10    12    1
   12    10    13    1
   13    13    14    1
   14    13    15    1
   15    13    16    1
   16    16    17    1
   17    16    18    1
   18    16    19    1
   19    19    20    1
   20    19    21    1
   21    19    22    1
   22     1    23    1
   23    23    24    1
   24    23    25    1
   25    23    26    1
@<TRIPOS>SUBSTRUCTURE
       1 MOL1            1 RESIDUE      1      MOL     
@<SCITEGIC>MOL_PROPERTY
VM2 Rank
SciTegic.value.IntegerValue
136

@<SCITEGIC>MOL_PROPERTY
Conf_Id
SciTegic.value.IntegerValue
1087

@<SCITEGIC>MOL_PROPERTY
Probability
SciTegic.value.DoubleValue
0.02

@<SCITEGIC>MOL_PROPERTY
Sum Probability
SciTegic.value.DoubleValue
99.42

@<SCITEGIC>MOL_PROPERTY
Delta G
SciTegic.value.DoubleValue
3.420

@<SCITEGIC>MOL_PROPERTY
G
SciTegic.value.DoubleValue
78.886

@<SCITEGIC>MOL_PROPERTY
E
SciTegic.value.DoubleValue
46.394

@<SCITEGIC>MOL_PROPERTY
-TS
SciTegic.value.DoubleValue
32.493

@<SCITEGIC>MOL_PROPERTY
U+W
SciTegic.value.DoubleValue
24.932

@<SCITEGIC>MOL_PROPERTY
U
SciTegic.value.DoubleValue
74.134

@<SCITEGIC>MOL_PROPERTY
W
SciTegic.value.DoubleValue
-49.202

@<SCITEGIC>MOL_PROPERTY
W(PB)
SciTegic.value.DoubleValue
-51.487

@<SCITEGIC>MOL_PROPERTY
W(SA)
SciTegic.value.DoubleValue
2.285

@<SCITEGIC>MOL_PROPERTY
Valence
SciTegic.value.DoubleValue
4.712

@<SCITEGIC>MOL_PROPERTY
Coulomb
SciTegic.value.DoubleValue
69.140

@<SCITEGIC>MOL_PROPERTY
VdW
SciTegic.value.DoubleValue
0.281

@<SCITEGIC>MOL_PROPERTY
VdW6
SciTegic.value.DoubleValue
-6.800

@<SCITEGIC>MOL_PROPERTY
VdW12
SciTegic.value.DoubleValue
7.082

@<SCITEGIC>MOL_PROPERTY
Bond
SciTegic.value.DoubleValue
0.212

@<SCITEGIC>MOL_PROPERTY
Angle
SciTegic.value.DoubleValue
1.171

@<SCITEGIC>MOL_PROPERTY
Pdih
SciTegic.value.DoubleValue
3.329

@<SCITEGIC>MOL_PROPERTY
Idih
SciTegic.value.DoubleValue
0.000

@<SCITEGIC>MOL_PROPERTY
Tether
SciTegic.value.DoubleValue
0.000

@<TRIPOS>MOLECULE
guest-s12_vm2.mol2 : vm2 ligand conformer 137
          26          25           1
SMALL
USER_CHARGES
 
@<TRIPOS>ATOM
       1    N1      19.971802   18.618892   26.230987 N.4        1 MOL1        -0.4857
       2    H1      20.905255   18.201736   26.368227 H          1 MOL1         0.3650
       3    H2      19.405558   18.258586   27.015392 H          1 MOL1         0.3650
       4    C1      19.370777   18.136495   24.917688 C.3        1 MOL1         0.0209
       5    H3      18.385095   18.592864   24.797647 H          1 MOL1         0.0967
       6    H4      19.226305   17.058601   25.027494 H          1 MOL1         0.0967
       7    C2      20.228364   18.380967   23.655993 C.3        1 MOL1        -0.1378
       8    H5      21.294707   18.355819   23.916166 H          1 MOL1         0.0993
       9    H6      20.055793   17.541217   22.971357 H          1 MOL1         0.0993
      10    C3      19.874988   19.701550   22.925855 C.3        1 MOL1        -0.1338
      11    H7      19.956162   20.545130   23.621191 H          1 MOL1         0.0993
      12    H8      18.823587   19.677848   22.610138 H          1 MOL1         0.0993
      13    C4      20.786161   19.997251   21.706152 C.3        1 MOL1        -0.1338
      14    H9      20.494143   20.964859   21.275236 H          1 MOL1         0.0993
      15    H10     21.819926   20.124830   22.055835 H          1 MOL1         0.0993
      16    C5      20.766778   18.925403   20.586240 C.3        1 MOL1        -0.1313
      17    H11     21.172680   17.976282   20.961030 H          1 MOL1         0.0993
      18    H12     21.446920   19.245759   19.784649 H          1 MOL1         0.0993
      19    C6      19.363199   18.691281   19.982784 C.3        1 MOL1        -0.2328
      20    H13     19.420041   17.995875   19.135417 H          1 MOL1         0.1004
      21    H14     18.928979   19.630891   19.617385 H          1 MOL1         0.1004
      22    H15     18.675465   18.257940   20.719531 H          1 MOL1         0.1004
      23    C7      20.045932   20.138161   26.311301 C.3        1 MOL1        -0.0781
      24    H16     19.051827   20.556558   26.139672 H          1 MOL1         0.0978
      25    H17     20.401474   20.425703   27.303256 H          1 MOL1         0.0978
      26    H18     20.742169   20.504349   25.554642 H          1 MOL1         0.0978
@<TRIPOS>BOND
    1     1     2    1
    2     1     3    1
    3     1     4    1
    4     4     5    1
    5     4     6    1
    6     4     7    1
    7     7     8    1
    8     7     9    1
    9     7    10    1
   10    10    11    1
   11    10    12    1
   12    10    13    1
   13    13    14    1
   14    13    15    1
   15    13    16    1
   16    16    17    1
   17    16    18    1
   18    16    19    1
   19    19    20    1
   20    19    21    1
   21    19    22    1
   22     1    23    1
   23    23    24    1
   24    23    25    1
   25    23    26    1
@<TRIPOS>SUBSTRUCTURE
       1 MOL1            1 RESIDUE      1      MOL     
@<SCITEGIC>MOL_PROPERTY
VM2 Rank
SciTegic.value.IntegerValue
137

@<SCITEGIC>MOL_PROPERTY
Conf_Id
SciTegic.value.IntegerValue
1366

@<SCITEGIC>MOL_PROPERTY
Probability
SciTegic.value.DoubleValue
0.02

@<SCITEGIC>MOL_PROPERTY
Sum Probability
SciTegic.value.DoubleValue
99.44

@<SCITEGIC>MOL_PROPERTY
Delta G
SciTegic.value.DoubleValue
3.439

@<SCITEGIC>MOL_PROPERTY
G
SciTegic.value.DoubleValue
78.905

@<SCITEGIC>MOL_PROPERTY
E
SciTegic.value.DoubleValue
46.098

@<SCITEGIC>MOL_PROPERTY
-TS
SciTegic.value.DoubleValue
32.807

@<SCITEGIC>MOL_PROPERTY
U+W
SciTegic.value.DoubleValue
24.636

@<SCITEGIC>MOL_PROPERTY
U
SciTegic.value.DoubleValue
74.315

@<SCITEGIC>MOL_PROPERTY
W
SciTegic.value.DoubleValue
-49.678

@<SCITEGIC>MOL_PROPERTY
W(PB)
SciTegic.value.DoubleValue
-51.875

@<SCITEGIC>MOL_PROPERTY
W(SA)
SciTegic.value.DoubleValue
2.197

@<SCITEGIC>MOL_PROPERTY
Valence
SciTegic.value.DoubleValue
4.914

@<SCITEGIC>MOL_PROPERTY
Coulomb
SciTegic.value.DoubleValue
68.873

@<SCITEGIC>MOL_PROPERTY
VdW
SciTegic.value.DoubleValue
0.528

@<SCITEGIC>MOL_PROPERTY
VdW6
SciTegic.value.DoubleValue
-8.387

@<SCITEGIC>MOL_PROPERTY
VdW12
SciTegic.value.DoubleValue
8.915

@<SCITEGIC>MOL_PROPERTY
Bond
SciTegic.value.DoubleValue
0.278

@<SCITEGIC>MOL_PROPERTY
Angle
SciTegic.value.DoubleValue
1.571

@<SCITEGIC>MOL_PROPERTY
Pdih
SciTegic.value.DoubleValue
3.064

@<SCITEGIC>MOL_PROPERTY
Idih
SciTegic.value.DoubleValue
0.000

@<SCITEGIC>MOL_PROPERTY
Tether
SciTegic.value.DoubleValue
0.000

@<TRIPOS>MOLECULE
guest-s12_vm2.mol2 : vm2 ligand conformer 138
          26          25           1
SMALL
USER_CHARGES
 
@<TRIPOS>ATOM
       1    N1      20.330426   18.505102   26.041044 N.4        1 MOL1        -0.4857
       2    H1      21.206425   18.029063   25.775068 H          1 MOL1         0.3650
       3    H2      19.633218   17.753163   26.156458 H          1 MOL1         0.3650
       4    C1      19.897231   19.455791   24.943119 C.3        1 MOL1         0.0209
       5    H3      20.663290   20.229481   24.848050 H          1 MOL1         0.0967
       6    H4      18.965310   19.931024   25.259603 H          1 MOL1         0.0967
       7    C2      19.689865   18.763009   23.584143 C.3        1 MOL1        -0.1378
       8    H5      20.620935   18.267787   23.286738 H          1 MOL1         0.0993
       9    H6      18.931483   17.976001   23.690545 H          1 MOL1         0.0993
      10    C3      19.238677   19.772204   22.500887 C.3        1 MOL1        -0.1338
      11    H7      19.958893   20.598469   22.423121 H          1 MOL1         0.0993
      12    H8      18.292713   20.224872   22.829573 H          1 MOL1         0.0993
      13    C4      19.015871   19.127037   21.107835 C.3        1 MOL1        -0.1338
      14    H9      18.698471   18.080934   21.217793 H          1 MOL1         0.0993
      15    H10     18.174155   19.641419   20.623639 H          1 MOL1         0.0993
      16    C5      20.230266   19.217465   20.148351 C.3        1 MOL1        -0.1313
      17    H11     20.474278   20.272553   19.961129 H          1 MOL1         0.0993
      18    H12     19.937694   18.796686   19.176132 H          1 MOL1         0.0993
      19    C6      21.492937   18.480544   20.646245 C.3        1 MOL1        -0.2328
      20    H13     22.264414   18.471883   19.865452 H          1 MOL1         0.1004
      21    H14     21.267395   17.438304   20.906430 H          1 MOL1         0.1004
      22    H15     21.923481   18.976248   21.524879 H          1 MOL1         0.1004
      23    C7      20.512727   19.268849   27.345375 C.3        1 MOL1        -0.0781
      24    H16     19.565382   19.735921   27.623478 H          1 MOL1         0.0978
      25    H17     20.824452   18.572900   28.127439 H          1 MOL1         0.0978
      26    H18     21.277663   20.036339   27.208293 H          1 MOL1         0.0978
@<TRIPOS>BOND
    1     1     2    1
    2     1     3    1
    3     1     4    1
    4     4     5    1
    5     4     6    1
    6     4     7    1
    7     7     8    1
    8     7     9    1
    9     7    10    1
   10    10    11    1
   11    10    12    1
   12    10    13    1
   13    13    14    1
   14    13    15    1
   15    13    16    1
   16    16    17    1
   17    16    18    1
   18    16    19    1
   19    19    20    1
   20    19    21    1
   21    19    22    1
   22     1    23    1
   23    23    24    1
   24    23    25    1
   25    23    26    1
@<TRIPOS>SUBSTRUCTURE
       1 MOL1            1 RESIDUE      1      MOL     
@<SCITEGIC>MOL_PROPERTY
VM2 Rank
SciTegic.value.IntegerValue
138

@<SCITEGIC>MOL_PROPERTY
Conf_Id
SciTegic.value.IntegerValue
212

@<SCITEGIC>MOL_PROPERTY
Probability
SciTegic.value.DoubleValue
0.02

@<SCITEGIC>MOL_PROPERTY
Sum Probability
SciTegic.value.DoubleValue
99.46

@<SCITEGIC>MOL_PROPERTY
Delta G
SciTegic.value.DoubleValue
3.439

@<SCITEGIC>MOL_PROPERTY
G
SciTegic.value.DoubleValue
78.905

@<SCITEGIC>MOL_PROPERTY
E
SciTegic.value.DoubleValue
46.402

@<SCITEGIC>MOL_PROPERTY
-TS
SciTegic.value.DoubleValue
32.503

@<SCITEGIC>MOL_PROPERTY
U+W
SciTegic.value.DoubleValue
24.941

@<SCITEGIC>MOL_PROPERTY
U
SciTegic.value.DoubleValue
74.070

@<SCITEGIC>MOL_PROPERTY
W
SciTegic.value.DoubleValue
-49.130

@<SCITEGIC>MOL_PROPERTY
W(PB)
SciTegic.value.DoubleValue
-51.424

@<SCITEGIC>MOL_PROPERTY
W(SA)
SciTegic.value.DoubleValue
2.294

@<SCITEGIC>MOL_PROPERTY
Valence
SciTegic.value.DoubleValue
4.690

@<SCITEGIC>MOL_PROPERTY
Coulomb
SciTegic.value.DoubleValue
69.115

@<SCITEGIC>MOL_PROPERTY
VdW
SciTegic.value.DoubleValue
0.266

@<SCITEGIC>MOL_PROPERTY
VdW6
SciTegic.value.DoubleValue
-6.809

@<SCITEGIC>MOL_PROPERTY
VdW12
SciTegic.value.DoubleValue
7.075

@<SCITEGIC>MOL_PROPERTY
Bond
SciTegic.value.DoubleValue
0.212

@<SCITEGIC>MOL_PROPERTY
Angle
SciTegic.value.DoubleValue
1.132

@<SCITEGIC>MOL_PROPERTY
Pdih
SciTegic.value.DoubleValue
3.345

@<SCITEGIC>MOL_PROPERTY
Idih
SciTegic.value.DoubleValue
0.000

@<SCITEGIC>MOL_PROPERTY
Tether
SciTegic.value.DoubleValue
0.000

@<TRIPOS>MOLECULE
guest-s12_vm2.mol2 : vm2 ligand conformer 139
          26          25           1
SMALL
USER_CHARGES
 
@<TRIPOS>ATOM
       1    N1      19.631583   18.377310   25.929359 N.4        1 MOL1        -0.4857
       2    H1      20.260228   17.561249   25.868985 H          1 MOL1         0.3650
       3    H2      18.704509   18.032438   25.635527 H          1 MOL1         0.3650
       4    C1      20.103719   19.471516   24.993029 C.3        1 MOL1         0.0209
       5    H3      21.088280   19.802048   25.333421 H          1 MOL1         0.0967
       6    H4      19.409294   20.310883   25.080920 H          1 MOL1         0.0967
       7    C2      20.188056   19.020946   23.523404 C.3        1 MOL1        -0.1378
       8    H5      20.875353   18.168524   23.441273 H          1 MOL1         0.0993
       9    H6      19.197062   18.678914   23.200296 H          1 MOL1         0.0993
      10    C3      20.669426   20.170078   22.608822 C.3        1 MOL1        -0.1338
      11    H7      21.594798   20.592415   23.024836 H          1 MOL1         0.0993
      12    H8      19.929811   20.982666   22.623991 H          1 MOL1         0.0993
      13    C4      20.944398   19.750438   21.141334 C.3        1 MOL1        -0.1338
      14    H9      21.321725   20.635516   20.610500 H          1 MOL1         0.0993
      15    H10     21.759879   19.014990   21.104754 H          1 MOL1         0.0993
      16    C5      19.707438   19.218464   20.372105 C.3        1 MOL1        -0.1313
      17    H11     19.784609   19.537279   19.323098 H          1 MOL1         0.0993
      18    H12     18.788491   19.679455   20.760245 H          1 MOL1         0.0993
      19    C6      19.586254   17.676530   20.392457 C.3        1 MOL1        -0.2328
      20    H13     18.709581   17.352972   19.816554 H          1 MOL1         0.1004
      21    H14     19.478060   17.283360   21.409096 H          1 MOL1         0.1004
      22    H15     20.470891   17.208117   19.941858 H          1 MOL1         0.1004
      23    C7      19.577127   18.904718   27.356489 C.3        1 MOL1        -0.0781
      24    H16     18.881670   19.745670   27.402314 H          1 MOL1         0.0978
      25    H17     19.235855   18.107234   28.020336 H          1 MOL1         0.0978
      26    H18     20.574824   19.232688   27.656487 H          1 MOL1         0.0978
@<TRIPOS>BOND
    1     1     2    1
    2     1     3    1
    3     1     4    1
    4     4     5    1
    5     4     6    1
    6     4     7    1
    7     7     8    1
    8     7     9    1
    9     7    10    1
   10    10    11    1
   11    10    12    1
   12    10    13    1
   13    13    14    1
   14    13    15    1
   15    13    16    1
   16    16    17    1
   17    16    18    1
   18    16    19    1
   19    19    20    1
   20    19    21    1
   21    19    22    1
   22     1    23    1
   23    23    24    1
   24    23    25    1
   25    23    26    1
@<TRIPOS>SUBSTRUCTURE
       1 MOL1            1 RESIDUE      1      MOL     
@<SCITEGIC>MOL_PROPERTY
VM2 Rank
SciTegic.value.IntegerValue
139

@<SCITEGIC>MOL_PROPERTY
Conf_Id
SciTegic.value.IntegerValue
1240

@<SCITEGIC>MOL_PROPERTY
Probability
SciTegic.value.DoubleValue
0.02

@<SCITEGIC>MOL_PROPERTY
Sum Probability
SciTegic.value.DoubleValue
99.48

@<SCITEGIC>MOL_PROPERTY
Delta G
SciTegic.value.DoubleValue
3.451

@<SCITEGIC>MOL_PROPERTY
G
SciTegic.value.DoubleValue
78.918

@<SCITEGIC>MOL_PROPERTY
E
SciTegic.value.DoubleValue
46.425

@<SCITEGIC>MOL_PROPERTY
-TS
SciTegic.value.DoubleValue
32.493

@<SCITEGIC>MOL_PROPERTY
U+W
SciTegic.value.DoubleValue
24.963

@<SCITEGIC>MOL_PROPERTY
U
SciTegic.value.DoubleValue
74.134

@<SCITEGIC>MOL_PROPERTY
W
SciTegic.value.DoubleValue
-49.171

@<SCITEGIC>MOL_PROPERTY
W(PB)
SciTegic.value.DoubleValue
-51.475

@<SCITEGIC>MOL_PROPERTY
W(SA)
SciTegic.value.DoubleValue
2.304

@<SCITEGIC>MOL_PROPERTY
Valence
SciTegic.value.DoubleValue
4.712

@<SCITEGIC>MOL_PROPERTY
Coulomb
SciTegic.value.DoubleValue
69.140

@<SCITEGIC>MOL_PROPERTY
VdW
SciTegic.value.DoubleValue
0.281

@<SCITEGIC>MOL_PROPERTY
VdW6
SciTegic.value.DoubleValue
-6.800

@<SCITEGIC>MOL_PROPERTY
VdW12
SciTegic.value.DoubleValue
7.082

@<SCITEGIC>MOL_PROPERTY
Bond
SciTegic.value.DoubleValue
0.212

@<SCITEGIC>MOL_PROPERTY
Angle
SciTegic.value.DoubleValue
1.171

@<SCITEGIC>MOL_PROPERTY
Pdih
SciTegic.value.DoubleValue
3.329

@<SCITEGIC>MOL_PROPERTY
Idih
SciTegic.value.DoubleValue
0.000

@<SCITEGIC>MOL_PROPERTY
Tether
SciTegic.value.DoubleValue
0.000

@<TRIPOS>MOLECULE
guest-s12_vm2.mol2 : vm2 ligand conformer 140
          26          25           1
SMALL
USER_CHARGES
 
@<TRIPOS>ATOM
       1    N1      19.959825   18.812229   26.109882 N.4        1 MOL1        -0.4857
       2    H1      20.347817   18.482991   27.008031 H          1 MOL1         0.3650
       3    H2      19.117079   18.237829   25.957314 H          1 MOL1         0.3650
       4    C1      20.973395   18.567148   25.003787 C.3        1 MOL1         0.0209
       5    H3      21.609040   17.742622   25.336682 H          1 MOL1         0.0967
       6    H4      21.602883   19.455889   24.913213 H          1 MOL1         0.0967
       7    C2      20.379304   18.187013   23.629072 C.3        1 MOL1        -0.1378
       8    H5      21.218305   17.950056   22.963644 H          1 MOL1         0.0993
       9    H6      19.791614   17.265007   23.728541 H          1 MOL1         0.0993
      10    C3      19.507463   19.297484   22.991749 C.3        1 MOL1        -0.1338
      11    H7      20.076913   20.234781   22.938811 H          1 MOL1         0.0993
      12    H8      18.647647   19.497724   23.643576 H          1 MOL1         0.0993
      13    C4      18.957743   18.929629   21.588638 C.3        1 MOL1        -0.1338
      14    H9      18.311157   18.045825   21.678277 H          1 MOL1         0.0993
      15    H10     18.305495   19.743845   21.243868 H          1 MOL1         0.0993
      16    C5      20.028996   18.656896   20.501418 C.3        1 MOL1        -0.1313
      17    H11     19.516315   18.426474   19.557046 H          1 MOL1         0.0993
      18    H12     20.607454   17.758147   20.753165 H          1 MOL1         0.0993
      19    C6      20.987774   19.846639   20.268655 C.3        1 MOL1        -0.2328
      20    H13     21.660489   19.639325   19.426442 H          1 MOL1         0.1004
      21    H14     21.612330   20.038199   21.150067 H          1 MOL1         0.1004
      22    H15     20.430364   20.763074   20.035479 H          1 MOL1         0.1004
      23    C7      19.613501   20.292962   26.223801 C.3        1 MOL1        -0.0781
      24    H16     19.179202   20.642937   25.286427 H          1 MOL1         0.0978
      25    H17     18.895226   20.429793   27.035229 H          1 MOL1         0.0978
      26    H18     20.523558   20.856626   26.440346 H          1 MOL1         0.0978
@<TRIPOS>BOND
    1     1     2    1
    2     1     3    1
    3     1     4    1
    4     4     5    1
    5     4     6    1
    6     4     7    1
    7     7     8    1
    8     7     9    1
    9     7    10    1
   10    10    11    1
   11    10    12    1
   12    10    13    1
   13    13    14    1
   14    13    15    1
   15    13    16    1
   16    16    17    1
   17    16    18    1
   18    16    19    1
   19    19    20    1
   20    19    21    1
   21    19    22    1
   22     1    23    1
   23    23    24    1
   24    23    25    1
   25    23    26    1
@<TRIPOS>SUBSTRUCTURE
       1 MOL1            1 RESIDUE      1      MOL     
@<SCITEGIC>MOL_PROPERTY
VM2 Rank
SciTegic.value.IntegerValue
140

@<SCITEGIC>MOL_PROPERTY
Conf_Id
SciTegic.value.IntegerValue
1057

@<SCITEGIC>MOL_PROPERTY
Probability
SciTegic.value.DoubleValue
0.02

@<SCITEGIC>MOL_PROPERTY
Sum Probability
SciTegic.value.DoubleValue
99.50

@<SCITEGIC>MOL_PROPERTY
Delta G
SciTegic.value.DoubleValue
3.473

@<SCITEGIC>MOL_PROPERTY
G
SciTegic.value.DoubleValue
78.940

@<SCITEGIC>MOL_PROPERTY
E
SciTegic.value.DoubleValue
46.051

@<SCITEGIC>MOL_PROPERTY
-TS
SciTegic.value.DoubleValue
32.889

@<SCITEGIC>MOL_PROPERTY
U+W
SciTegic.value.DoubleValue
24.589

@<SCITEGIC>MOL_PROPERTY
U
SciTegic.value.DoubleValue
74.261

@<SCITEGIC>MOL_PROPERTY
W
SciTegic.value.DoubleValue
-49.672

@<SCITEGIC>MOL_PROPERTY
W(PB)
SciTegic.value.DoubleValue
-51.878

@<SCITEGIC>MOL_PROPERTY
W(SA)
SciTegic.value.DoubleValue
2.206

@<SCITEGIC>MOL_PROPERTY
Valence
SciTegic.value.DoubleValue
4.837

@<SCITEGIC>MOL_PROPERTY
Coulomb
SciTegic.value.DoubleValue
68.998

@<SCITEGIC>MOL_PROPERTY
VdW
SciTegic.value.DoubleValue
0.426

@<SCITEGIC>MOL_PROPERTY
VdW6
SciTegic.value.DoubleValue
-8.426

@<SCITEGIC>MOL_PROPERTY
VdW12
SciTegic.value.DoubleValue
8.852

@<SCITEGIC>MOL_PROPERTY
Bond
SciTegic.value.DoubleValue
0.274

@<SCITEGIC>MOL_PROPERTY
Angle
SciTegic.value.DoubleValue
1.562

@<SCITEGIC>MOL_PROPERTY
Pdih
SciTegic.value.DoubleValue
3.001

@<SCITEGIC>MOL_PROPERTY
Idih
SciTegic.value.DoubleValue
0.000

@<SCITEGIC>MOL_PROPERTY
Tether
SciTegic.value.DoubleValue
0.000

@<TRIPOS>MOLECULE
guest-s12_vm2.mol2 : vm2 ligand conformer 141
          26          25           1
SMALL
USER_CHARGES
 
@<TRIPOS>ATOM
       1    N1      20.359540   19.384508   25.579617 N.4        1 MOL1        -0.4857
       2    H1      21.236516   19.545828   25.062403 H          1 MOL1         0.3650
       3    H2      20.577197   18.649601   26.270406 H          1 MOL1         0.3650
       4    C1      19.275797   18.906190   24.632989 C.3        1 MOL1         0.0209
       5    H3      19.068841   19.712889   23.928947 H          1 MOL1         0.0967
       6    H4      18.374188   18.738367   25.227566 H          1 MOL1         0.0967
       7    C2      19.632443   17.608561   23.876096 C.3        1 MOL1        -0.1378
       8    H5      19.845252   16.828843   24.619501 H          1 MOL1         0.0993
       9    H6      18.753588   17.259002   23.318351 H          1 MOL1         0.0993
      10    C3      20.845580   17.730275   22.914835 C.3        1 MOL1        -0.1338
      11    H7      21.271434   16.725985   22.782306 H          1 MOL1         0.0993
      12    H8      21.644958   18.327458   23.372004 H          1 MOL1         0.0993
      13    C4      20.514788   18.281357   21.503208 C.3        1 MOL1        -0.1338
      14    H9      21.430861   18.236259   20.898013 H          1 MOL1         0.0993
      15    H10     19.792336   17.616727   21.009648 H          1 MOL1         0.0993
      16    C5      19.975159   19.730231   21.484150 C.3        1 MOL1        -0.1313
      17    H11     20.621238   20.379290   22.091535 H          1 MOL1         0.0993
      18    H12     18.971728   19.760905   21.927405 H          1 MOL1         0.0993
      19    C6      19.894185   20.288916   20.047367 C.3        1 MOL1        -0.2328
      20    H13     19.497182   21.312335   20.051260 H          1 MOL1         0.1004
      21    H14     19.234319   19.674060   19.421460 H          1 MOL1         0.1004
      22    H15     20.885501   20.314936   19.576414 H          1 MOL1         0.1004
      23    C7      19.910507   20.659961   26.278738 C.3        1 MOL1        -0.0781
      24    H16     18.998784   20.457072   26.844881 H          1 MOL1         0.0978
      25    H17     20.699178   20.993466   26.956882 H          1 MOL1         0.0978
      26    H18     19.717328   21.431161   25.529844 H          1 MOL1         0.0978
@<TRIPOS>BOND
    1     1     2    1
    2     1     3    1
    3     1     4    1
    4     4     5    1
    5     4     6    1
    6     4     7    1
    7     7     8    1
    8     7     9    1
    9     7    10    1
   10    10    11    1
   11    10    12    1
   12    10    13    1
   13    13    14    1
   14    13    15    1
   15    13    16    1
   16    16    17    1
   17    16    18    1
   18    16    19    1
   19    19    20    1
   20    19    21    1
   21    19    22    1
   22     1    23    1
   23    23    24    1
   24    23    25    1
   25    23    26    1
@<TRIPOS>SUBSTRUCTURE
       1 MOL1            1 RESIDUE      1      MOL     
@<SCITEGIC>MOL_PROPERTY
VM2 Rank
SciTegic.value.IntegerValue
141

@<SCITEGIC>MOL_PROPERTY
Conf_Id
SciTegic.value.IntegerValue
1241

@<SCITEGIC>MOL_PROPERTY
Probability
SciTegic.value.DoubleValue
0.02

@<SCITEGIC>MOL_PROPERTY
Sum Probability
SciTegic.value.DoubleValue
99.52

@<SCITEGIC>MOL_PROPERTY
Delta G
SciTegic.value.DoubleValue
3.541

@<SCITEGIC>MOL_PROPERTY
G
SciTegic.value.DoubleValue
79.008

@<SCITEGIC>MOL_PROPERTY
E
SciTegic.value.DoubleValue
46.517

@<SCITEGIC>MOL_PROPERTY
-TS
SciTegic.value.DoubleValue
32.490

@<SCITEGIC>MOL_PROPERTY
U+W
SciTegic.value.DoubleValue
25.056

@<SCITEGIC>MOL_PROPERTY
U
SciTegic.value.DoubleValue
74.583

@<SCITEGIC>MOL_PROPERTY
W
SciTegic.value.DoubleValue
-49.528

@<SCITEGIC>MOL_PROPERTY
W(PB)
SciTegic.value.DoubleValue
-51.788

@<SCITEGIC>MOL_PROPERTY
W(SA)
SciTegic.value.DoubleValue
2.260

@<SCITEGIC>MOL_PROPERTY
Valence
SciTegic.value.DoubleValue
4.290

@<SCITEGIC>MOL_PROPERTY
Coulomb
SciTegic.value.DoubleValue
70.230

@<SCITEGIC>MOL_PROPERTY
VdW
SciTegic.value.DoubleValue
0.063

@<SCITEGIC>MOL_PROPERTY
VdW6
SciTegic.value.DoubleValue
-7.673

@<SCITEGIC>MOL_PROPERTY
VdW12
SciTegic.value.DoubleValue
7.736

@<SCITEGIC>MOL_PROPERTY
Bond
SciTegic.value.DoubleValue
0.226

@<SCITEGIC>MOL_PROPERTY
Angle
SciTegic.value.DoubleValue
1.377

@<SCITEGIC>MOL_PROPERTY
Pdih
SciTegic.value.DoubleValue
2.687

@<SCITEGIC>MOL_PROPERTY
Idih
SciTegic.value.DoubleValue
0.000

@<SCITEGIC>MOL_PROPERTY
Tether
SciTegic.value.DoubleValue
0.000

@<TRIPOS>MOLECULE
guest-s12_vm2.mol2 : vm2 ligand conformer 142
          26          25           1
SMALL
USER_CHARGES
 
@<TRIPOS>ATOM
       1    N1      20.778922   18.647080   25.395599 N.4        1 MOL1        -0.4857
       2    H1      21.340935   18.804822   24.547648 H          1 MOL1         0.3650
       3    H2      21.250259   17.875109   25.893400 H          1 MOL1         0.3650
       4    C1      19.368532   18.221128   25.019142 C.3        1 MOL1         0.0209
       5    H3      18.806336   18.128287   25.951757 H          1 MOL1         0.0967
       6    H4      19.428615   17.228328   24.566124 H          1 MOL1         0.0967
       7    C2      18.607842   19.167968   24.061718 C.3        1 MOL1        -0.1378
       8    H5      17.540770   18.918923   24.131907 H          1 MOL1         0.0993
       9    H6      18.691656   20.208122   24.400832 H          1 MOL1         0.0993
      10    C3      19.022859   19.052147   22.572478 C.3        1 MOL1        -0.1338
      11    H7      18.321488   19.652205   21.976431 H          1 MOL1         0.0993
      12    H8      18.895501   18.012632   22.241681 H          1 MOL1         0.0993
      13    C4      20.466391   19.527755   22.271569 C.3        1 MOL1        -0.1338
      14    H9      20.643790   20.489642   22.772364 H          1 MOL1         0.0993
      15    H10     21.190448   18.814270   22.683077 H          1 MOL1         0.0993
      16    C5      20.748711   19.701024   20.759604 C.3        1 MOL1        -0.1313
      17    H11     21.757755   20.117901   20.633393 H          1 MOL1         0.0993
      18    H12     20.056080   20.440632   20.334055 H          1 MOL1         0.0993
      19    C6      20.650684   18.379580   19.963676 C.3        1 MOL1        -0.2328
      20    H13     21.319840   17.616132   20.381219 H          1 MOL1         0.1004
      21    H14     20.936892   18.539653   18.916120 H          1 MOL1         0.1004
      22    H15     19.628511   17.981046   19.969193 H          1 MOL1         0.1004
      23    C7      20.764059   19.893317   26.273213 C.3        1 MOL1        -0.0781
      24    H16     20.174154   19.693008   27.170246 H          1 MOL1         0.0978
      25    H17     21.789189   20.144008   26.554806 H          1 MOL1         0.0978
      26    H18     20.323343   20.723025   25.717245 H          1 MOL1         0.0978
@<TRIPOS>BOND
    1     1     2    1
    2     1     3    1
    3     1     4    1
    4     4     5    1
    5     4     6    1
    6     4     7    1
    7     7     8    1
    8     7     9    1
    9     7    10    1
   10    10    11    1
   11    10    12    1
   12    10    13    1
   13    13    14    1
   14    13    15    1
   15    13    16    1
   16    16    17    1
   17    16    18    1
   18    16    19    1
   19    19    20    1
   20    19    21    1
   21    19    22    1
   22     1    23    1
   23    23    24    1
   24    23    25    1
   25    23    26    1
@<TRIPOS>SUBSTRUCTURE
       1 MOL1            1 RESIDUE      1      MOL     
@<SCITEGIC>MOL_PROPERTY
VM2 Rank
SciTegic.value.IntegerValue
142

@<SCITEGIC>MOL_PROPERTY
Conf_Id
SciTegic.value.IntegerValue
1603

@<SCITEGIC>MOL_PROPERTY
Probability
SciTegic.value.DoubleValue
0.02

@<SCITEGIC>MOL_PROPERTY
Sum Probability
SciTegic.value.DoubleValue
99.54

@<SCITEGIC>MOL_PROPERTY
Delta G
SciTegic.value.DoubleValue
3.549

@<SCITEGIC>MOL_PROPERTY
G
SciTegic.value.DoubleValue
79.015

@<SCITEGIC>MOL_PROPERTY
E
SciTegic.value.DoubleValue
46.512

@<SCITEGIC>MOL_PROPERTY
-TS
SciTegic.value.DoubleValue
32.503

@<SCITEGIC>MOL_PROPERTY
U+W
SciTegic.value.DoubleValue
25.050

@<SCITEGIC>MOL_PROPERTY
U
SciTegic.value.DoubleValue
74.899

@<SCITEGIC>MOL_PROPERTY
W
SciTegic.value.DoubleValue
-49.849

@<SCITEGIC>MOL_PROPERTY
W(PB)
SciTegic.value.DoubleValue
-52.063

@<SCITEGIC>MOL_PROPERTY
W(SA)
SciTegic.value.DoubleValue
2.214

@<SCITEGIC>MOL_PROPERTY
Valence
SciTegic.value.DoubleValue
4.085

@<SCITEGIC>MOL_PROPERTY
Coulomb
SciTegic.value.DoubleValue
70.542

@<SCITEGIC>MOL_PROPERTY
VdW
SciTegic.value.DoubleValue
0.272

@<SCITEGIC>MOL_PROPERTY
VdW6
SciTegic.value.DoubleValue
-8.421

@<SCITEGIC>MOL_PROPERTY
VdW12
SciTegic.value.DoubleValue
8.693

@<SCITEGIC>MOL_PROPERTY
Bond
SciTegic.value.DoubleValue
0.258

@<SCITEGIC>MOL_PROPERTY
Angle
SciTegic.value.DoubleValue
1.368

@<SCITEGIC>MOL_PROPERTY
Pdih
SciTegic.value.DoubleValue
2.459

@<SCITEGIC>MOL_PROPERTY
Idih
SciTegic.value.DoubleValue
0.000

@<SCITEGIC>MOL_PROPERTY
Tether
SciTegic.value.DoubleValue
0.000

@<TRIPOS>MOLECULE
guest-s12_vm2.mol2 : vm2 ligand conformer 143
          26          25           1
SMALL
USER_CHARGES
 
@<TRIPOS>ATOM
       1    N1      19.967105   18.964118   26.281633 N.4        1 MOL1        -0.4857
       2    H1      20.260591   19.473971   27.130069 H          1 MOL1         0.3650
       3    H2      20.304148   17.999085   26.421368 H          1 MOL1         0.3650
       4    C1      20.631724   19.581605   25.062538 C.3        1 MOL1         0.0209
       5    H3      21.696367   19.681569   25.288803 H          1 MOL1         0.0967
       6    H4      20.218637   20.584126   24.925834 H          1 MOL1         0.0967
       7    C2      20.470207   18.766531   23.763388 C.3        1 MOL1        -0.1378
       8    H5      20.847556   17.748372   23.926028 H          1 MOL1         0.0993
       9    H6      19.406825   18.674242   23.518796 H          1 MOL1         0.0993
      10    C3      21.238975   19.421154   22.590465 C.3        1 MOL1        -0.1338
      11    H7      22.302935   19.465018   22.862127 H          1 MOL1         0.0993
      12    H8      20.917352   20.463230   22.455994 H          1 MOL1         0.0993
      13    C4      21.104994   18.645930   21.253489 C.3        1 MOL1        -0.1338
      14    H9      22.057367   18.731143   20.711979 H          1 MOL1         0.0993
      15    H10     20.970152   17.572701   21.446280 H          1 MOL1         0.0993
      16    C5      19.986737   19.162999   20.312302 C.3        1 MOL1        -0.1313
      17    H11     20.029555   18.591761   19.374373 H          1 MOL1         0.0993
      18    H12     20.188424   20.208486   20.040122 H          1 MOL1         0.0993
      19    C6      18.560483   19.051662   20.894419 C.3        1 MOL1        -0.2328
      20    H13     18.418148   19.741026   21.735657 H          1 MOL1         0.1004
      21    H14     18.350756   18.030477   21.237964 H          1 MOL1         0.1004
      22    H15     17.814187   19.308792   20.131652 H          1 MOL1         0.1004
      23    C7      18.447777   18.996001   26.158765 C.3        1 MOL1        -0.0781
      24    H16     18.119903   20.029821   26.030097 H          1 MOL1         0.0978
      25    H17     18.141585   18.399734   25.296952 H          1 MOL1         0.0978
      26    H18     18.007304   18.580059   27.067649 H          1 MOL1         0.0978
@<TRIPOS>BOND
    1     1     2    1
    2     1     3    1
    3     1     4    1
    4     4     5    1
    5     4     6    1
    6     4     7    1
    7     7     8    1
    8     7     9    1
    9     7    10    1
   10    10    11    1
   11    10    12    1
   12    10    13    1
   13    13    14    1
   14    13    15    1
   15    13    16    1
   16    16    17    1
   17    16    18    1
   18    16    19    1
   19    19    20    1
   20    19    21    1
   21    19    22    1
   22     1    23    1
   23    23    24    1
   24    23    25    1
   25    23    26    1
@<TRIPOS>SUBSTRUCTURE
       1 MOL1            1 RESIDUE      1      MOL     
@<SCITEGIC>MOL_PROPERTY
VM2 Rank
SciTegic.value.IntegerValue
143

@<SCITEGIC>MOL_PROPERTY
Conf_Id
SciTegic.value.IntegerValue
1275

@<SCITEGIC>MOL_PROPERTY
Probability
SciTegic.value.DoubleValue
0.02

@<SCITEGIC>MOL_PROPERTY
Sum Probability
SciTegic.value.DoubleValue
99.55

@<SCITEGIC>MOL_PROPERTY
Delta G
SciTegic.value.DoubleValue
3.637

@<SCITEGIC>MOL_PROPERTY
G
SciTegic.value.DoubleValue
79.103

@<SCITEGIC>MOL_PROPERTY
E
SciTegic.value.DoubleValue
46.420

@<SCITEGIC>MOL_PROPERTY
-TS
SciTegic.value.DoubleValue
32.683

@<SCITEGIC>MOL_PROPERTY
U+W
SciTegic.value.DoubleValue
24.958

@<SCITEGIC>MOL_PROPERTY
U
SciTegic.value.DoubleValue
74.399

@<SCITEGIC>MOL_PROPERTY
W
SciTegic.value.DoubleValue
-49.441

@<SCITEGIC>MOL_PROPERTY
W(PB)
SciTegic.value.DoubleValue
-51.681

@<SCITEGIC>MOL_PROPERTY
W(SA)
SciTegic.value.DoubleValue
2.240

@<SCITEGIC>MOL_PROPERTY
Valence
SciTegic.value.DoubleValue
4.963

@<SCITEGIC>MOL_PROPERTY
Coulomb
SciTegic.value.DoubleValue
68.942

@<SCITEGIC>MOL_PROPERTY
VdW
SciTegic.value.DoubleValue
0.494

@<SCITEGIC>MOL_PROPERTY
VdW6
SciTegic.value.DoubleValue
-7.589

@<SCITEGIC>MOL_PROPERTY
VdW12
SciTegic.value.DoubleValue
8.083

@<SCITEGIC>MOL_PROPERTY
Bond
SciTegic.value.DoubleValue
0.249

@<SCITEGIC>MOL_PROPERTY
Angle
SciTegic.value.DoubleValue
1.244

@<SCITEGIC>MOL_PROPERTY
Pdih
SciTegic.value.DoubleValue
3.470

@<SCITEGIC>MOL_PROPERTY
Idih
SciTegic.value.DoubleValue
0.000

@<SCITEGIC>MOL_PROPERTY
Tether
SciTegic.value.DoubleValue
0.000

@<TRIPOS>MOLECULE
guest-s12_vm2.mol2 : vm2 ligand conformer 144
          26          25           1
SMALL
USER_CHARGES
 
@<TRIPOS>ATOM
       1    N1      20.239912   19.214962   25.837992 N.4        1 MOL1        -0.4857
       2    H1      21.248914   19.004026   25.883351 H          1 MOL1         0.3650
       3    H2      19.782790   18.496474   26.420713 H          1 MOL1         0.3650
       4    C1      19.748981   19.118794   24.407815 C.3        1 MOL1         0.0209
       5    H3      20.253580   19.896343   23.832671 H          1 MOL1         0.0967
       6    H4      18.677626   19.334492   24.407208 H          1 MOL1         0.0967
       7    C2      19.997087   17.737597   23.770543 C.3        1 MOL1        -0.1378
       8    H5      21.066054   17.488972   23.804825 H          1 MOL1         0.0993
       9    H6      19.483864   16.983630   24.382169 H          1 MOL1         0.0993
      10    C3      19.472887   17.630693   22.315810 C.3        1 MOL1        -0.1338
      11    H7      18.510726   18.151125   22.218421 H          1 MOL1         0.0993
      12    H8      19.252775   16.573103   22.114679 H          1 MOL1         0.0993
      13    C4      20.468662   18.109545   21.224357 C.3        1 MOL1        -0.1338
      14    H9      21.383020   17.503585   21.287358 H          1 MOL1         0.0993
      15    H10     20.035447   17.889491   20.238867 H          1 MOL1         0.0993
      16    C5      20.862122   19.607237   21.264073 C.3        1 MOL1        -0.1313
      17    H11     21.570189   19.800963   20.446205 H          1 MOL1         0.0993
      18    H12     21.411536   19.832457   22.186787 H          1 MOL1         0.0993
      19    C6      19.658274   20.564609   21.108171 C.3        1 MOL1        -0.2328
      20    H13     19.110431   20.358479   20.179567 H          1 MOL1         0.1004
      21    H14     19.998669   21.607501   21.071494 H          1 MOL1         0.1004
      22    H15     18.955587   20.475438   21.945105 H          1 MOL1         0.1004
      23    C7      19.960074   20.606562   26.388239 C.3        1 MOL1        -0.0781
      24    H16     20.480315   21.346312   25.775810 H          1 MOL1         0.0978
      25    H17     18.884383   20.793899   26.361037 H          1 MOL1         0.0978
      26    H18     20.318334   20.662982   27.418577 H          1 MOL1         0.0978
@<TRIPOS>BOND
    1     1     2    1
    2     1     3    1
    3     1     4    1
    4     4     5    1
    5     4     6    1
    6     4     7    1
    7     7     8    1
    8     7     9    1
    9     7    10    1
   10    10    11    1
   11    10    12    1
   12    10    13    1
   13    13    14    1
   14    13    15    1
   15    13    16    1
   16    16    17    1
   17    16    18    1
   18    16    19    1
   19    19    20    1
   20    19    21    1
   21    19    22    1
   22     1    23    1
   23    23    24    1
   24    23    25    1
   25    23    26    1
@<TRIPOS>SUBSTRUCTURE
       1 MOL1            1 RESIDUE      1      MOL     
@<SCITEGIC>MOL_PROPERTY
VM2 Rank
SciTegic.value.IntegerValue
144

@<SCITEGIC>MOL_PROPERTY
Conf_Id
SciTegic.value.IntegerValue
521

@<SCITEGIC>MOL_PROPERTY
Probability
SciTegic.value.DoubleValue
0.01

@<SCITEGIC>MOL_PROPERTY
Sum Probability
SciTegic.value.DoubleValue
99.57

@<SCITEGIC>MOL_PROPERTY
Delta G
SciTegic.value.DoubleValue
3.639

@<SCITEGIC>MOL_PROPERTY
G
SciTegic.value.DoubleValue
79.106

@<SCITEGIC>MOL_PROPERTY
E
SciTegic.value.DoubleValue
46.122

@<SCITEGIC>MOL_PROPERTY
-TS
SciTegic.value.DoubleValue
32.984

@<SCITEGIC>MOL_PROPERTY
U+W
SciTegic.value.DoubleValue
24.660

@<SCITEGIC>MOL_PROPERTY
U
SciTegic.value.DoubleValue
74.250

@<SCITEGIC>MOL_PROPERTY
W
SciTegic.value.DoubleValue
-49.591

@<SCITEGIC>MOL_PROPERTY
W(PB)
SciTegic.value.DoubleValue
-51.809

@<SCITEGIC>MOL_PROPERTY
W(SA)
SciTegic.value.DoubleValue
2.218

@<SCITEGIC>MOL_PROPERTY
Valence
SciTegic.value.DoubleValue
4.607

@<SCITEGIC>MOL_PROPERTY
Coulomb
SciTegic.value.DoubleValue
69.758

@<SCITEGIC>MOL_PROPERTY
VdW
SciTegic.value.DoubleValue
-0.115

@<SCITEGIC>MOL_PROPERTY
VdW6
SciTegic.value.DoubleValue
-8.153

@<SCITEGIC>MOL_PROPERTY
VdW12
SciTegic.value.DoubleValue
8.038

@<SCITEGIC>MOL_PROPERTY
Bond
SciTegic.value.DoubleValue
0.239

@<SCITEGIC>MOL_PROPERTY
Angle
SciTegic.value.DoubleValue
1.671

@<SCITEGIC>MOL_PROPERTY
Pdih
SciTegic.value.DoubleValue
2.697

@<SCITEGIC>MOL_PROPERTY
Idih
SciTegic.value.DoubleValue
0.000

@<SCITEGIC>MOL_PROPERTY
Tether
SciTegic.value.DoubleValue
0.000

@<TRIPOS>MOLECULE
guest-s12_vm2.mol2 : vm2 ligand conformer 145
          26          25           1
SMALL
USER_CHARGES
 
@<TRIPOS>ATOM
       1    N1      19.659475   19.155140   25.817485 N.4        1 MOL1        -0.4857
       2    H1      20.211553   18.540654   26.435842 H          1 MOL1         0.3650
       3    H2      18.713956   18.742746   25.793779 H          1 MOL1         0.3650
       4    C1      20.258358   19.171326   24.425813 C.3        1 MOL1         0.0209
       5    H3      21.260647   19.600815   24.498479 H          1 MOL1         0.0967
       6    H4      19.647328   19.833850   23.811240 H          1 MOL1         0.0967
       7    C2      20.342042   17.773163   23.782763 C.3        1 MOL1        -0.1378
       8    H5      20.954012   17.135194   24.434254 H          1 MOL1         0.0993
       9    H6      19.346419   17.311744   23.743969 H          1 MOL1         0.0993
      10    C3      20.977530   17.785698   22.369092 C.3        1 MOL1        -0.1338
      11    H7      21.421881   16.796548   22.191513 H          1 MOL1         0.0993
      12    H8      21.817989   18.491809   22.335526 H          1 MOL1         0.0993
      13    C4      19.984019   18.059610   21.207178 C.3        1 MOL1        -0.1338
      14    H9      20.520873   17.939455   20.256052 H          1 MOL1         0.0993
      15    H10     19.210072   17.279737   21.210396 H          1 MOL1         0.0993
      16    C5      19.292072   19.445494   21.208397 C.3        1 MOL1        -0.1313
      17    H11     18.645032   19.547475   22.088692 H          1 MOL1         0.0993
      18    H12     18.618482   19.496885   20.341545 H          1 MOL1         0.0993
      19    C6      20.283679   20.629021   21.130318 C.3        1 MOL1        -0.2328
      20    H13     19.741500   21.581001   21.062387 H          1 MOL1         0.1004
      21    H14     20.925679   20.545476   20.243874 H          1 MOL1         0.1004
      22    H15     20.929421   20.678733   22.015033 H          1 MOL1         0.1004
      23    C7      19.610824   20.570547   26.375955 C.3        1 MOL1        -0.0781
      24    H16     20.625006   20.973297   26.422569 H          1 MOL1         0.0978
      25    H17     18.994821   21.193208   25.723435 H          1 MOL1         0.0978
      26    H18     19.177566   20.545333   27.378343 H          1 MOL1         0.0978
@<TRIPOS>BOND
    1     1     2    1
    2     1     3    1
    3     1     4    1
    4     4     5    1
    5     4     6    1
    6     4     7    1
    7     7     8    1
    8     7     9    1
    9     7    10    1
   10    10    11    1
   11    10    12    1
   12    10    13    1
   13    13    14    1
   14    13    15    1
   15    13    16    1
   16    16    17    1
   17    16    18    1
   18    16    19    1
   19    19    20    1
   20    19    21    1
   21    19    22    1
   22     1    23    1
   23    23    24    1
   24    23    25    1
   25    23    26    1
@<TRIPOS>SUBSTRUCTURE
       1 MOL1            1 RESIDUE      1      MOL     
@<SCITEGIC>MOL_PROPERTY
VM2 Rank
SciTegic.value.IntegerValue
145

@<SCITEGIC>MOL_PROPERTY
Conf_Id
SciTegic.value.IntegerValue
1270

@<SCITEGIC>MOL_PROPERTY
Probability
SciTegic.value.DoubleValue
0.01

@<SCITEGIC>MOL_PROPERTY
Sum Probability
SciTegic.value.DoubleValue
99.58

@<SCITEGIC>MOL_PROPERTY
Delta G
SciTegic.value.DoubleValue
3.648

@<SCITEGIC>MOL_PROPERTY
G
SciTegic.value.DoubleValue
79.114

@<SCITEGIC>MOL_PROPERTY
E
SciTegic.value.DoubleValue
46.131

@<SCITEGIC>MOL_PROPERTY
-TS
SciTegic.value.DoubleValue
32.984

@<SCITEGIC>MOL_PROPERTY
U+W
SciTegic.value.DoubleValue
24.669

@<SCITEGIC>MOL_PROPERTY
U
SciTegic.value.DoubleValue
74.250

@<SCITEGIC>MOL_PROPERTY
W
SciTegic.value.DoubleValue
-49.581

@<SCITEGIC>MOL_PROPERTY
W(PB)
SciTegic.value.DoubleValue
-51.813

@<SCITEGIC>MOL_PROPERTY
W(SA)
SciTegic.value.DoubleValue
2.232

@<SCITEGIC>MOL_PROPERTY
Valence
SciTegic.value.DoubleValue
4.607

@<SCITEGIC>MOL_PROPERTY
Coulomb
SciTegic.value.DoubleValue
69.758

@<SCITEGIC>MOL_PROPERTY
VdW
SciTegic.value.DoubleValue
-0.115

@<SCITEGIC>MOL_PROPERTY
VdW6
SciTegic.value.DoubleValue
-8.153

@<SCITEGIC>MOL_PROPERTY
VdW12
SciTegic.value.DoubleValue
8.037

@<SCITEGIC>MOL_PROPERTY
Bond
SciTegic.value.DoubleValue
0.239

@<SCITEGIC>MOL_PROPERTY
Angle
SciTegic.value.DoubleValue
1.671

@<SCITEGIC>MOL_PROPERTY
Pdih
SciTegic.value.DoubleValue
2.697

@<SCITEGIC>MOL_PROPERTY
Idih
SciTegic.value.DoubleValue
0.000

@<SCITEGIC>MOL_PROPERTY
Tether
SciTegic.value.DoubleValue
0.000

@<TRIPOS>MOLECULE
guest-s12_vm2.mol2 : vm2 ligand conformer 146
          26          25           1
SMALL
USER_CHARGES
 
@<TRIPOS>ATOM
       1    N1      20.557055   18.504019   26.117337 N.4        1 MOL1        -0.4857
       2    H1      21.262101   18.698007   26.846194 H          1 MOL1         0.3650
       3    H2      20.768733   17.548862   25.789918 H          1 MOL1         0.3650
       4    C1      20.716785   19.497695   24.978720 C.3        1 MOL1         0.0209
       5    H3      21.775723   19.513858   24.708461 H          1 MOL1         0.0967
       6    H4      20.448045   20.487672   25.355691 H          1 MOL1         0.0967
       7    C2      19.884576   19.171387   23.722010 C.3        1 MOL1        -0.1378
       8    H5      20.118647   18.153733   23.390680 H          1 MOL1         0.0993
       9    H6      18.816316   19.185193   23.973510 H          1 MOL1         0.0993
      10    C3      20.156278   20.189983   22.588829 C.3        1 MOL1        -0.1338
      11    H7      21.230037   20.230418   22.358988 H          1 MOL1         0.0993
      12    H8      19.887569   21.189649   22.957918 H          1 MOL1         0.0993
      13    C4      19.345212   19.909827   21.296462 C.3        1 MOL1        -0.1338
      14    H9      18.389698   19.426479   21.542471 H          1 MOL1         0.0993
      15    H10     19.079569   20.875216   20.843729 H          1 MOL1         0.0993
      16    C5      20.099075   19.084211   20.222413 C.3        1 MOL1        -0.1313
      17    H11     21.000618   19.627166   19.905837 H          1 MOL1         0.0993
      18    H12     19.461425   19.008993   19.330446 H          1 MOL1         0.0993
      19    C6      20.490822   17.659449   20.671692 C.3        1 MOL1        -0.2328
      20    H13     19.621388   17.112126   21.058158 H          1 MOL1         0.1004
      21    H14     21.263499   17.685096   21.449759 H          1 MOL1         0.1004
      22    H15     20.897427   17.089352   19.826382 H          1 MOL1         0.1004
      23    C7      19.158196   18.573429   26.719537 C.3        1 MOL1        -0.0781
      24    H16     19.094455   17.874033   27.556119 H          1 MOL1         0.0978
      25    H17     18.969979   19.589416   27.073352 H          1 MOL1         0.0978
      26    H18     18.422907   18.303362   25.958976 H          1 MOL1         0.0978
@<TRIPOS>BOND
    1     1     2    1
    2     1     3    1
    3     1     4    1
    4     4     5    1
    5     4     6    1
    6     4     7    1
    7     7     8    1
    8     7     9    1
    9     7    10    1
   10    10    11    1
   11    10    12    1
   12    10    13    1
   13    13    14    1
   14    13    15    1
   15    13    16    1
   16    16    17    1
   17    16    18    1
   18    16    19    1
   19    19    20    1
   20    19    21    1
   21    19    22    1
   22     1    23    1
   23    23    24    1
   24    23    25    1
   25    23    26    1
@<TRIPOS>SUBSTRUCTURE
       1 MOL1            1 RESIDUE      1      MOL     
@<SCITEGIC>MOL_PROPERTY
VM2 Rank
SciTegic.value.IntegerValue
146

@<SCITEGIC>MOL_PROPERTY
Conf_Id
SciTegic.value.IntegerValue
861

@<SCITEGIC>MOL_PROPERTY
Probability
SciTegic.value.DoubleValue
0.01

@<SCITEGIC>MOL_PROPERTY
Sum Probability
SciTegic.value.DoubleValue
99.60

@<SCITEGIC>MOL_PROPERTY
Delta G
SciTegic.value.DoubleValue
3.649

@<SCITEGIC>MOL_PROPERTY
G
SciTegic.value.DoubleValue
79.115

@<SCITEGIC>MOL_PROPERTY
E
SciTegic.value.DoubleValue
46.442

@<SCITEGIC>MOL_PROPERTY
-TS
SciTegic.value.DoubleValue
32.673

@<SCITEGIC>MOL_PROPERTY
U+W
SciTegic.value.DoubleValue
24.980

@<SCITEGIC>MOL_PROPERTY
U
SciTegic.value.DoubleValue
74.461

@<SCITEGIC>MOL_PROPERTY
W
SciTegic.value.DoubleValue
-49.481

@<SCITEGIC>MOL_PROPERTY
W(PB)
SciTegic.value.DoubleValue
-51.719

@<SCITEGIC>MOL_PROPERTY
W(SA)
SciTegic.value.DoubleValue
2.238

@<SCITEGIC>MOL_PROPERTY
Valence
SciTegic.value.DoubleValue
4.969

@<SCITEGIC>MOL_PROPERTY
Coulomb
SciTegic.value.DoubleValue
68.965

@<SCITEGIC>MOL_PROPERTY
VdW
SciTegic.value.DoubleValue
0.528

@<SCITEGIC>MOL_PROPERTY
VdW6
SciTegic.value.DoubleValue
-7.525

@<SCITEGIC>MOL_PROPERTY
VdW12
SciTegic.value.DoubleValue
8.053

@<SCITEGIC>MOL_PROPERTY
Bond
SciTegic.value.DoubleValue
0.248

@<SCITEGIC>MOL_PROPERTY
Angle
SciTegic.value.DoubleValue
1.260

@<SCITEGIC>MOL_PROPERTY
Pdih
SciTegic.value.DoubleValue
3.461

@<SCITEGIC>MOL_PROPERTY
Idih
SciTegic.value.DoubleValue
0.000

@<SCITEGIC>MOL_PROPERTY
Tether
SciTegic.value.DoubleValue
0.000

@<TRIPOS>MOLECULE
guest-s12_vm2.mol2 : vm2 ligand conformer 147
          26          25           1
SMALL
USER_CHARGES
 
@<TRIPOS>ATOM
       1    N1      19.438281   18.620786   26.099820 N.4        1 MOL1        -0.4857
       2    H1      18.883057   17.813129   25.777713 H          1 MOL1         0.3650
       3    H2      18.946545   18.963602   26.940428 H          1 MOL1         0.3650
       4    C1      19.448846   19.708343   25.038479 C.3        1 MOL1         0.0209
       5    H3      20.073654   20.527760   25.402544 H          1 MOL1         0.0967
       6    H4      18.425031   20.079043   24.943351 H          1 MOL1         0.0967
       7    C2      19.944864   19.246184   23.653285 C.3        1 MOL1        -0.1378
       8    H5      20.985328   18.904618   23.726166 H          1 MOL1         0.0993
       9    H6      19.338806   18.391825   23.327919 H          1 MOL1         0.0993
      10    C3      19.846218   20.384456   22.612566 C.3        1 MOL1        -0.1338
      11    H7      20.341125   21.279051   23.015665 H          1 MOL1         0.0993
      12    H8      18.791526   20.657763   22.469597 H          1 MOL1         0.0993
      13    C4      20.484336   20.054510   21.238074 C.3        1 MOL1        -0.1338
      14    H9      20.390527   20.949617   20.607600 H          1 MOL1         0.0993
      15    H10     21.564105   19.886826   21.352981 H          1 MOL1         0.0993
      16    C5      19.834063   18.864788   20.485414 C.3        1 MOL1        -0.1313
      17    H11     19.860144   19.077171   19.407349 H          1 MOL1         0.0993
      18    H12     18.770879   18.780141   20.750172 H          1 MOL1         0.0993
      19    C6      20.556644   17.517684   20.721963 C.3        1 MOL1        -0.2328
      20    H13     20.071342   16.716428   20.149796 H          1 MOL1         0.1004
      21    H14     20.547984   17.223037   21.776941 H          1 MOL1         0.1004
      22    H15     21.603247   17.571914   20.395300 H          1 MOL1         0.1004
      23    C7      20.854747   18.193248   26.467399 C.3        1 MOL1        -0.0781
      24    H16     21.411602   19.063513   26.821508 H          1 MOL1         0.0978
      25    H17     20.806837   17.440020   27.256982 H          1 MOL1         0.0978
      26    H18     21.345340   17.771748   25.587800 H          1 MOL1         0.0978
@<TRIPOS>BOND
    1     1     2    1
    2     1     3    1
    3     1     4    1
    4     4     5    1
    5     4     6    1
    6     4     7    1
    7     7     8    1
    8     7     9    1
    9     7    10    1
   10    10    11    1
   11    10    12    1
   12    10    13    1
   13    13    14    1
   14    13    15    1
   15    13    16    1
   16    16    17    1
   17    16    18    1
   18    16    19    1
   19    19    20    1
   20    19    21    1
   21    19    22    1
   22     1    23    1
   23    23    24    1
   24    23    25    1
   25    23    26    1
@<TRIPOS>SUBSTRUCTURE
       1 MOL1            1 RESIDUE      1      MOL     
@<SCITEGIC>MOL_PROPERTY
VM2 Rank
SciTegic.value.IntegerValue
147

@<SCITEGIC>MOL_PROPERTY
Conf_Id
SciTegic.value.IntegerValue
1337

@<SCITEGIC>MOL_PROPERTY
Probability
SciTegic.value.DoubleValue
0.01

@<SCITEGIC>MOL_PROPERTY
Sum Probability
SciTegic.value.DoubleValue
99.61

@<SCITEGIC>MOL_PROPERTY
Delta G
SciTegic.value.DoubleValue
3.651

@<SCITEGIC>MOL_PROPERTY
G
SciTegic.value.DoubleValue
79.118

@<SCITEGIC>MOL_PROPERTY
E
SciTegic.value.DoubleValue
46.447

@<SCITEGIC>MOL_PROPERTY
-TS
SciTegic.value.DoubleValue
32.671

@<SCITEGIC>MOL_PROPERTY
U+W
SciTegic.value.DoubleValue
24.985

@<SCITEGIC>MOL_PROPERTY
U
SciTegic.value.DoubleValue
74.475

@<SCITEGIC>MOL_PROPERTY
W
SciTegic.value.DoubleValue
-49.490

@<SCITEGIC>MOL_PROPERTY
W(PB)
SciTegic.value.DoubleValue
-51.738

@<SCITEGIC>MOL_PROPERTY
W(SA)
SciTegic.value.DoubleValue
2.248

@<SCITEGIC>MOL_PROPERTY
Valence
SciTegic.value.DoubleValue
4.984

@<SCITEGIC>MOL_PROPERTY
Coulomb
SciTegic.value.DoubleValue
68.965

@<SCITEGIC>MOL_PROPERTY
VdW
SciTegic.value.DoubleValue
0.526

@<SCITEGIC>MOL_PROPERTY
VdW6
SciTegic.value.DoubleValue
-7.550

@<SCITEGIC>MOL_PROPERTY
VdW12
SciTegic.value.DoubleValue
8.076

@<SCITEGIC>MOL_PROPERTY
Bond
SciTegic.value.DoubleValue
0.247

@<SCITEGIC>MOL_PROPERTY
Angle
SciTegic.value.DoubleValue
1.295

@<SCITEGIC>MOL_PROPERTY
Pdih
SciTegic.value.DoubleValue
3.441

@<SCITEGIC>MOL_PROPERTY
Idih
SciTegic.value.DoubleValue
0.000

@<SCITEGIC>MOL_PROPERTY
Tether
SciTegic.value.DoubleValue
0.000

@<TRIPOS>MOLECULE
guest-s12_vm2.mol2 : vm2 ligand conformer 148
          26          25           1
SMALL
USER_CHARGES
 
@<TRIPOS>ATOM
       1    N1      19.473006   18.393811   26.078957 N.4        1 MOL1        -0.4857
       2    H1      19.481026   17.417955   25.744322 H          1 MOL1         0.3650
       3    H2      18.694131   18.436969   26.755306 H          1 MOL1         0.3650
       4    C1      19.196919   19.343203   24.924927 C.3        1 MOL1         0.0209
       5    H3      19.234156   20.364276   25.312748 H          1 MOL1         0.0967
       6    H4      18.177906   19.148143   24.581105 H          1 MOL1         0.0967
       7    C2      20.163608   19.199780   23.731898 C.3        1 MOL1        -0.1378
       8    H5      21.187011   19.426244   24.057448 H          1 MOL1         0.0993
       9    H6      20.162645   18.158229   23.392255 H          1 MOL1         0.0993
      10    C3      19.772703   20.150998   22.575250 C.3        1 MOL1        -0.1338
      11    H7      19.808408   21.181618   22.955134 H          1 MOL1         0.0993
      12    H8      18.731531   19.976356   22.270485 H          1 MOL1         0.0993
      13    C4      20.712022   20.048876   21.344891 C.3        1 MOL1        -0.1338
      14    H9      20.809112   21.051159   20.904988 H          1 MOL1         0.0993
      15    H10     21.725600   19.765852   21.660661 H          1 MOL1         0.0993
      16    C5      20.216739   19.096168   20.226601 C.3        1 MOL1        -0.1313
      17    H11     20.917301   19.157180   19.382001 H          1 MOL1         0.0993
      18    H12     19.248793   19.448862   19.843866 H          1 MOL1         0.0993
      19    C6      20.089250   17.618539   20.657439 C.3        1 MOL1        -0.2328
      20    H13     19.865895   16.984351   19.789796 H          1 MOL1         0.1004
      21    H14     19.274680   17.482592   21.379289 H          1 MOL1         0.1004
      22    H15     21.021806   17.254623   21.107705 H          1 MOL1         0.1004
      23    C7      20.783752   18.738624   26.777036 C.3        1 MOL1        -0.0781
      24    H16     20.928057   18.060376   27.620979 H          1 MOL1         0.0978
      25    H17     21.609681   18.627240   26.071719 H          1 MOL1         0.0978
      26    H18     20.738741   19.769167   27.135918 H          1 MOL1         0.0978
@<TRIPOS>BOND
    1     1     2    1
    2     1     3    1
    3     1     4    1
    4     4     5    1
    5     4     6    1
    6     4     7    1
    7     7     8    1
    8     7     9    1
    9     7    10    1
   10    10    11    1
   11    10    12    1
   12    10    13    1
   13    13    14    1
   14    13    15    1
   15    13    16    1
   16    16    17    1
   17    16    18    1
   18    16    19    1
   19    19    20    1
   20    19    21    1
   21    19    22    1
   22     1    23    1
   23    23    24    1
   24    23    25    1
   25    23    26    1
@<TRIPOS>SUBSTRUCTURE
       1 MOL1            1 RESIDUE      1      MOL     
@<SCITEGIC>MOL_PROPERTY
VM2 Rank
SciTegic.value.IntegerValue
148

@<SCITEGIC>MOL_PROPERTY
Conf_Id
SciTegic.value.IntegerValue
545

@<SCITEGIC>MOL_PROPERTY
Probability
SciTegic.value.DoubleValue
0.01

@<SCITEGIC>MOL_PROPERTY
Sum Probability
SciTegic.value.DoubleValue
99.62

@<SCITEGIC>MOL_PROPERTY
Delta G
SciTegic.value.DoubleValue
3.662

@<SCITEGIC>MOL_PROPERTY
G
SciTegic.value.DoubleValue
79.129

@<SCITEGIC>MOL_PROPERTY
E
SciTegic.value.DoubleValue
46.456

@<SCITEGIC>MOL_PROPERTY
-TS
SciTegic.value.DoubleValue
32.673

@<SCITEGIC>MOL_PROPERTY
U+W
SciTegic.value.DoubleValue
24.994

@<SCITEGIC>MOL_PROPERTY
U
SciTegic.value.DoubleValue
74.461

@<SCITEGIC>MOL_PROPERTY
W
SciTegic.value.DoubleValue
-49.467

@<SCITEGIC>MOL_PROPERTY
W(PB)
SciTegic.value.DoubleValue
-51.713

@<SCITEGIC>MOL_PROPERTY
W(SA)
SciTegic.value.DoubleValue
2.246

@<SCITEGIC>MOL_PROPERTY
Valence
SciTegic.value.DoubleValue
4.969

@<SCITEGIC>MOL_PROPERTY
Coulomb
SciTegic.value.DoubleValue
68.965

@<SCITEGIC>MOL_PROPERTY
VdW
SciTegic.value.DoubleValue
0.528

@<SCITEGIC>MOL_PROPERTY
VdW6
SciTegic.value.DoubleValue
-7.525

@<SCITEGIC>MOL_PROPERTY
VdW12
SciTegic.value.DoubleValue
8.053

@<SCITEGIC>MOL_PROPERTY
Bond
SciTegic.value.DoubleValue
0.248

@<SCITEGIC>MOL_PROPERTY
Angle
SciTegic.value.DoubleValue
1.260

@<SCITEGIC>MOL_PROPERTY
Pdih
SciTegic.value.DoubleValue
3.461

@<SCITEGIC>MOL_PROPERTY
Idih
SciTegic.value.DoubleValue
0.000

@<SCITEGIC>MOL_PROPERTY
Tether
SciTegic.value.DoubleValue
0.000

@<TRIPOS>MOLECULE
guest-s12_vm2.mol2 : vm2 ligand conformer 149
          26          25           1
SMALL
USER_CHARGES
 
@<TRIPOS>ATOM
       1    N1      20.076640   18.645966   26.196133 N.4        1 MOL1        -0.4857
       2    H1      20.248708   17.635740   26.076899 H          1 MOL1         0.3650
       3    H2      19.574528   18.726134   27.094683 H          1 MOL1         0.3650
       4    C1      19.194078   19.164802   25.073074 C.3        1 MOL1         0.0209
       5    H3      19.066956   20.241016   25.214449 H          1 MOL1         0.0967
       6    H4      18.215691   18.690357   25.183983 H          1 MOL1         0.0967
       7    C2      19.730176   18.881922   23.654984 C.3        1 MOL1        -0.1378
       8    H5      20.695697   19.385601   23.527882 H          1 MOL1         0.0993
       9    H6      19.901768   17.803805   23.538332 H          1 MOL1         0.0993
      10    C3      18.743045   19.373629   22.572247 C.3        1 MOL1        -0.1338
      11    H7      18.646281   20.466356   22.636398 H          1 MOL1         0.0993
      12    H8      17.745538   18.965988   22.787880 H          1 MOL1         0.0993
      13    C4      19.128018   18.974138   21.123971 C.3        1 MOL1        -0.1338
      14    H9      19.121320   17.880448   21.018990 H          1 MOL1         0.0993
      15    H10     18.332980   19.338946   20.458882 H          1 MOL1         0.0993
      16    C5      20.477329   19.552590   20.624334 C.3        1 MOL1        -0.1313
      17    H11     20.688120   20.511765   21.117471 H          1 MOL1         0.0993
      18    H12     20.385230   19.778605   19.552679 H          1 MOL1         0.0993
      19    C6      21.667841   18.581520   20.804616 C.3        1 MOL1        -0.2328
      20    H13     21.496805   17.646149   20.256109 H          1 MOL1         0.1004
      21    H14     21.839941   18.328383   21.856375 H          1 MOL1         0.1004
      22    H15     22.591162   19.030233   20.415979 H          1 MOL1         0.1004
      23    C7      21.390874   19.415434   26.267640 C.3        1 MOL1        -0.0781
      24    H16     21.979039   19.040156   27.108069 H          1 MOL1         0.0978
      25    H17     21.945784   19.271358   25.338480 H          1 MOL1         0.0978
      26    H18     21.177706   20.476859   26.411800 H          1 MOL1         0.0978
@<TRIPOS>BOND
    1     1     2    1
    2     1     3    1
    3     1     4    1
    4     4     5    1
    5     4     6    1
    6     4     7    1
    7     7     8    1
    8     7     9    1
    9     7    10    1
   10    10    11    1
   11    10    12    1
   12    10    13    1
   13    13    14    1
   14    13    15    1
   15    13    16    1
   16    16    17    1
   17    16    18    1
   18    16    19    1
   19    19    20    1
   20    19    21    1
   21    19    22    1
   22     1    23    1
   23    23    24    1
   24    23    25    1
   25    23    26    1
@<TRIPOS>SUBSTRUCTURE
       1 MOL1            1 RESIDUE      1      MOL     
@<SCITEGIC>MOL_PROPERTY
VM2 Rank
SciTegic.value.IntegerValue
149

@<SCITEGIC>MOL_PROPERTY
Conf_Id
SciTegic.value.IntegerValue
556

@<SCITEGIC>MOL_PROPERTY
Probability
SciTegic.value.DoubleValue
0.01

@<SCITEGIC>MOL_PROPERTY
Sum Probability
SciTegic.value.DoubleValue
99.64

@<SCITEGIC>MOL_PROPERTY
Delta G
SciTegic.value.DoubleValue
3.683

@<SCITEGIC>MOL_PROPERTY
G
SciTegic.value.DoubleValue
79.149

@<SCITEGIC>MOL_PROPERTY
E
SciTegic.value.DoubleValue
46.473

@<SCITEGIC>MOL_PROPERTY
-TS
SciTegic.value.DoubleValue
32.676

@<SCITEGIC>MOL_PROPERTY
U+W
SciTegic.value.DoubleValue
25.011

@<SCITEGIC>MOL_PROPERTY
U
SciTegic.value.DoubleValue
74.458

@<SCITEGIC>MOL_PROPERTY
W
SciTegic.value.DoubleValue
-49.447

@<SCITEGIC>MOL_PROPERTY
W(PB)
SciTegic.value.DoubleValue
-51.669

@<SCITEGIC>MOL_PROPERTY
W(SA)
SciTegic.value.DoubleValue
2.223

@<SCITEGIC>MOL_PROPERTY
Valence
SciTegic.value.DoubleValue
4.984

@<SCITEGIC>MOL_PROPERTY
Coulomb
SciTegic.value.DoubleValue
68.955

@<SCITEGIC>MOL_PROPERTY
VdW
SciTegic.value.DoubleValue
0.518

@<SCITEGIC>MOL_PROPERTY
VdW6
SciTegic.value.DoubleValue
-7.574

@<SCITEGIC>MOL_PROPERTY
VdW12
SciTegic.value.DoubleValue
8.093

@<SCITEGIC>MOL_PROPERTY
Bond
SciTegic.value.DoubleValue
0.249

@<SCITEGIC>MOL_PROPERTY
Angle
SciTegic.value.DoubleValue
1.287

@<SCITEGIC>MOL_PROPERTY
Pdih
SciTegic.value.DoubleValue
3.448

@<SCITEGIC>MOL_PROPERTY
Idih
SciTegic.value.DoubleValue
0.000

@<SCITEGIC>MOL_PROPERTY
Tether
SciTegic.value.DoubleValue
0.000

@<TRIPOS>MOLECULE
guest-s12_vm2.mol2 : vm2 ligand conformer 150
          26          25           1
SMALL
USER_CHARGES
 
@<TRIPOS>ATOM
       1    N1      19.908680   18.628837   26.190183 N.4        1 MOL1        -0.4857
       2    H1      20.320014   18.802311   27.121121 H          1 MOL1         0.3650
       3    H2      19.952816   17.605545   26.066476 H          1 MOL1         0.3650
       4    C1      20.744903   19.323069   25.128043 C.3        1 MOL1         0.0209
       5    H3      21.788670   19.055026   25.310651 H          1 MOL1         0.0967
       6    H4      20.642021   20.401761   25.270250 H          1 MOL1         0.0967
       7    C2      20.377637   18.947941   23.677940 C.3        1 MOL1        -0.1378
       8    H5      20.435872   17.858247   23.557263 H          1 MOL1         0.0993
       9    H6      19.341626   19.247186   23.479922 H          1 MOL1         0.0993
      10    C3      21.318501   19.636577   22.663507 C.3        1 MOL1        -0.1338
      11    H7      22.360172   19.437165   22.951337 H          1 MOL1         0.0993
      12    H8      21.187939   20.725851   22.726497 H          1 MOL1         0.0993
      13    C4      21.124426   19.177999   21.194719 C.3        1 MOL1        -0.1338
      14    H9      21.874033   19.700515   20.584327 H          1 MOL1         0.0993
      15    H10     21.359058   18.108948   21.098268 H          1 MOL1         0.0993
      16    C5      19.724477   19.475778   20.597760 C.3        1 MOL1        -0.1313
      17    H11     19.843839   19.723542   19.533629 H          1 MOL1         0.0993
      18    H12     19.290385   20.369027   21.068189 H          1 MOL1         0.0993
      19    C6      18.744885   18.283079   20.701037 C.3        1 MOL1        -0.2328
      20    H13     19.139206   17.405510   20.172442 H          1 MOL1         0.1004
      21    H14     17.779508   18.538970   20.245546 H          1 MOL1         0.1004
      22    H15     18.554236   17.992770   21.739915 H          1 MOL1         0.1004
      23    C7      18.464491   19.116719   26.163811 C.3        1 MOL1        -0.0781
      24    H16     18.016595   18.870116   25.199136 H          1 MOL1         0.0978
      25    H17     17.906726   18.624599   26.963691 H          1 MOL1         0.0978
      26    H18     18.448435   20.198290   26.314777 H          1 MOL1         0.0978
@<TRIPOS>BOND
    1     1     2    1
    2     1     3    1
    3     1     4    1
    4     4     5    1
    5     4     6    1
    6     4     7    1
    7     7     8    1
    8     7     9    1
    9     7    10    1
   10    10    11    1
   11    10    12    1
   12    10    13    1
   13    13    14    1
   14    13    15    1
   15    13    16    1
   16    16    17    1
   17    16    18    1
   18    16    19    1
   19    19    20    1
   20    19    21    1
   21    19    22    1
   22     1    23    1
   23    23    24    1
   24    23    25    1
   25    23    26    1
@<TRIPOS>SUBSTRUCTURE
       1 MOL1            1 RESIDUE      1      MOL     
@<SCITEGIC>MOL_PROPERTY
VM2 Rank
SciTegic.value.IntegerValue
150

@<SCITEGIC>MOL_PROPERTY
Conf_Id
SciTegic.value.IntegerValue
550

@<SCITEGIC>MOL_PROPERTY
Probability
SciTegic.value.DoubleValue
0.01

@<SCITEGIC>MOL_PROPERTY
Sum Probability
SciTegic.value.DoubleValue
99.65

@<SCITEGIC>MOL_PROPERTY
Delta G
SciTegic.value.DoubleValue
3.687

@<SCITEGIC>MOL_PROPERTY
G
SciTegic.value.DoubleValue
79.153

@<SCITEGIC>MOL_PROPERTY
E
SciTegic.value.DoubleValue
46.478

@<SCITEGIC>MOL_PROPERTY
-TS
SciTegic.value.DoubleValue
32.676

@<SCITEGIC>MOL_PROPERTY
U+W
SciTegic.value.DoubleValue
25.016

@<SCITEGIC>MOL_PROPERTY
U
SciTegic.value.DoubleValue
74.458

@<SCITEGIC>MOL_PROPERTY
W
SciTegic.value.DoubleValue
-49.442

@<SCITEGIC>MOL_PROPERTY
W(PB)
SciTegic.value.DoubleValue
-51.688

@<SCITEGIC>MOL_PROPERTY
W(SA)
SciTegic.value.DoubleValue
2.246

@<SCITEGIC>MOL_PROPERTY
Valence
SciTegic.value.DoubleValue
4.984

@<SCITEGIC>MOL_PROPERTY
Coulomb
SciTegic.value.DoubleValue
68.955

@<SCITEGIC>MOL_PROPERTY
VdW
SciTegic.value.DoubleValue
0.519

@<SCITEGIC>MOL_PROPERTY
VdW6
SciTegic.value.DoubleValue
-7.575

@<SCITEGIC>MOL_PROPERTY
VdW12
SciTegic.value.DoubleValue
8.093

@<SCITEGIC>MOL_PROPERTY
Bond
SciTegic.value.DoubleValue
0.249

@<SCITEGIC>MOL_PROPERTY
Angle
SciTegic.value.DoubleValue
1.287

@<SCITEGIC>MOL_PROPERTY
Pdih
SciTegic.value.DoubleValue
3.449

@<SCITEGIC>MOL_PROPERTY
Idih
SciTegic.value.DoubleValue
0.000

@<SCITEGIC>MOL_PROPERTY
Tether
SciTegic.value.DoubleValue
0.000

@<TRIPOS>MOLECULE
guest-s12_vm2.mol2 : vm2 ligand conformer 151
          26          25           1
SMALL
USER_CHARGES
 
@<TRIPOS>ATOM
       1    N1      20.584890   19.276757   25.431284 N.4        1 MOL1        -0.4857
       2    H1      21.109063   19.600859   24.606124 H          1 MOL1         0.3650
       3    H2      21.124074   18.481041   25.806651 H          1 MOL1         0.3650
       4    C1      19.198025   18.818841   25.022503 C.3        1 MOL1         0.0209
       5    H3      18.637588   19.687156   24.667151 H          1 MOL1         0.0967
       6    H4      18.708661   18.445533   25.925683 H          1 MOL1         0.0967
       7    C2      19.182957   17.711422   23.947741 C.3        1 MOL1        -0.1378
       8    H5      19.947398   16.956208   24.173751 H          1 MOL1         0.0993
       9    H6      18.217753   17.192286   24.016364 H          1 MOL1         0.0993
      10    C3      19.343408   18.226478   22.494362 C.3        1 MOL1        -0.1338
      11    H7      18.531208   18.931627   22.272305 H          1 MOL1         0.0993
      12    H8      19.206912   17.375775   21.812473 H          1 MOL1         0.0993
      13    C4      20.710968   18.891911   22.198650 C.3        1 MOL1        -0.1338
      14    H9      20.784493   19.849690   22.728957 H          1 MOL1         0.0993
      15    H10     21.516897   18.249917   22.580259 H          1 MOL1         0.0993
      16    C5      20.955112   19.140774   20.690561 C.3        1 MOL1        -0.1313
      17    H11     20.917700   18.187375   20.145131 H          1 MOL1         0.0993
      18    H12     21.973919   19.530668   20.556727 H          1 MOL1         0.0993
      19    C6      19.952915   20.137120   20.064263 C.3        1 MOL1        -0.2328
      20    H13     20.217932   20.342979   19.019129 H          1 MOL1         0.1004
      21    H14     19.954972   21.092356   20.605100 H          1 MOL1         0.1004
      22    H15     18.930554   19.739191   20.072924 H          1 MOL1         0.1004
      23    C7      20.479725   20.386697   26.467636 C.3        1 MOL1        -0.0781
      24    H16     19.932968   21.228842   26.037780 H          1 MOL1         0.0978
      25    H17     19.948850   20.009752   27.344567 H          1 MOL1         0.0978
      26    H18     21.484258   20.706265   26.753814 H          1 MOL1         0.0978
@<TRIPOS>BOND
    1     1     2    1
    2     1     3    1
    3     1     4    1
    4     4     5    1
    5     4     6    1
    6     4     7    1
    7     7     8    1
    8     7     9    1
    9     7    10    1
   10    10    11    1
   11    10    12    1
   12    10    13    1
   13    13    14    1
   14    13    15    1
   15    13    16    1
   16    16    17    1
   17    16    18    1
   18    16    19    1
   19    19    20    1
   20    19    21    1
   21    19    22    1
   22     1    23    1
   23    23    24    1
   24    23    25    1
   25    23    26    1
@<TRIPOS>SUBSTRUCTURE
       1 MOL1            1 RESIDUE      1      MOL     
@<SCITEGIC>MOL_PROPERTY
VM2 Rank
SciTegic.value.IntegerValue
151

@<SCITEGIC>MOL_PROPERTY
Conf_Id
SciTegic.value.IntegerValue
818

@<SCITEGIC>MOL_PROPERTY
Probability
SciTegic.value.DoubleValue
0.01

@<SCITEGIC>MOL_PROPERTY
Sum Probability
SciTegic.value.DoubleValue
99.67

@<SCITEGIC>MOL_PROPERTY
Delta G
SciTegic.value.DoubleValue
3.702

@<SCITEGIC>MOL_PROPERTY
G
SciTegic.value.DoubleValue
79.168

@<SCITEGIC>MOL_PROPERTY
E
SciTegic.value.DoubleValue
46.697

@<SCITEGIC>MOL_PROPERTY
-TS
SciTegic.value.DoubleValue
32.472

@<SCITEGIC>MOL_PROPERTY
U+W
SciTegic.value.DoubleValue
25.235

@<SCITEGIC>MOL_PROPERTY
U
SciTegic.value.DoubleValue
74.474

@<SCITEGIC>MOL_PROPERTY
W
SciTegic.value.DoubleValue
-49.240

@<SCITEGIC>MOL_PROPERTY
W(PB)
SciTegic.value.DoubleValue
-51.484

@<SCITEGIC>MOL_PROPERTY
W(SA)
SciTegic.value.DoubleValue
2.244

@<SCITEGIC>MOL_PROPERTY
Valence
SciTegic.value.DoubleValue
3.793

@<SCITEGIC>MOL_PROPERTY
Coulomb
SciTegic.value.DoubleValue
70.589

@<SCITEGIC>MOL_PROPERTY
VdW
SciTegic.value.DoubleValue
0.093

@<SCITEGIC>MOL_PROPERTY
VdW6
SciTegic.value.DoubleValue
-7.603

@<SCITEGIC>MOL_PROPERTY
VdW12
SciTegic.value.DoubleValue
7.696

@<SCITEGIC>MOL_PROPERTY
Bond
SciTegic.value.DoubleValue
0.211

@<SCITEGIC>MOL_PROPERTY
Angle
SciTegic.value.DoubleValue
1.117

@<SCITEGIC>MOL_PROPERTY
Pdih
SciTegic.value.DoubleValue
2.465

@<SCITEGIC>MOL_PROPERTY
Idih
SciTegic.value.DoubleValue
0.000

@<SCITEGIC>MOL_PROPERTY
Tether
SciTegic.value.DoubleValue
0.000

@<TRIPOS>MOLECULE
guest-s12_vm2.mol2 : vm2 ligand conformer 152
          26          25           1
SMALL
USER_CHARGES
 
@<TRIPOS>ATOM
       1    N1      19.338385   19.147788   25.387154 N.4        1 MOL1        -0.4857
       2    H1      18.948388   18.255905   25.729544 H          1 MOL1         0.3650
       3    H2      18.818086   19.363886   24.525019 H          1 MOL1         0.3650
       4    C1      20.814717   18.986135   25.079756 C.3        1 MOL1         0.0209
       5    H3      21.305643   18.714224   26.017641 H          1 MOL1         0.0967
       6    H4      21.209218   19.953265   24.758251 H          1 MOL1         0.0967
       7    C2      21.131092   17.913040   24.016698 C.3        1 MOL1        -0.1378
       8    H5      22.174847   17.601780   24.156423 H          1 MOL1         0.0993
       9    H6      20.523356   17.015837   24.194122 H          1 MOL1         0.0993
      10    C3      20.970769   18.394917   22.551968 C.3        1 MOL1        -0.1338
      11    H7      21.325686   17.595057   21.887471 H          1 MOL1         0.0993
      12    H8      21.635122   19.252831   22.382169 H          1 MOL1         0.0993
      13    C4      19.520141   18.768773   22.156508 C.3        1 MOL1        -0.1338
      14    H9      18.837833   17.972832   22.485499 H          1 MOL1         0.0993
      15    H10     19.215431   19.687450   22.673379 H          1 MOL1         0.0993
      16    C5      19.336354   18.973271   20.633261 C.3        1 MOL1        -0.1313
      17    H11     18.271263   19.147592   20.425674 H          1 MOL1         0.0993
      18    H12     19.605934   18.051588   20.098760 H          1 MOL1         0.0993
      19    C6      20.154994   20.157917   20.071304 C.3        1 MOL1        -0.2328
      20    H13     19.919841   21.088671   20.603641 H          1 MOL1         0.1004
      21    H14     19.927288   20.312690   19.008707 H          1 MOL1         0.1004
      22    H15     21.233952   19.977374   20.154377 H          1 MOL1         0.1004
      23    C7      19.141546   20.248158   26.420350 C.3        1 MOL1        -0.0781
      24    H16     19.533262   21.187440   26.023819 H          1 MOL1         0.0978
      25    H17     18.075375   20.353457   26.633188 H          1 MOL1         0.0978
      26    H18     19.675558   19.981315   27.334982 H          1 MOL1         0.0978
@<TRIPOS>BOND
    1     1     2    1
    2     1     3    1
    3     1     4    1
    4     4     5    1
    5     4     6    1
    6     4     7    1
    7     7     8    1
    8     7     9    1
    9     7    10    1
   10    10    11    1
   11    10    12    1
   12    10    13    1
   13    13    14    1
   14    13    15    1
   15    13    16    1
   16    16    17    1
   17    16    18    1
   18    16    19    1
   19    19    20    1
   20    19    21    1
   21    19    22    1
   22     1    23    1
   23    23    24    1
   24    23    25    1
   25    23    26    1
@<TRIPOS>SUBSTRUCTURE
       1 MOL1            1 RESIDUE      1      MOL     
@<SCITEGIC>MOL_PROPERTY
VM2 Rank
SciTegic.value.IntegerValue
152

@<SCITEGIC>MOL_PROPERTY
Conf_Id
SciTegic.value.IntegerValue
802

@<SCITEGIC>MOL_PROPERTY
Probability
SciTegic.value.DoubleValue
0.01

@<SCITEGIC>MOL_PROPERTY
Sum Probability
SciTegic.value.DoubleValue
99.68

@<SCITEGIC>MOL_PROPERTY
Delta G
SciTegic.value.DoubleValue
3.724

@<SCITEGIC>MOL_PROPERTY
G
SciTegic.value.DoubleValue
79.190

@<SCITEGIC>MOL_PROPERTY
E
SciTegic.value.DoubleValue
46.718

@<SCITEGIC>MOL_PROPERTY
-TS
SciTegic.value.DoubleValue
32.472

@<SCITEGIC>MOL_PROPERTY
U+W
SciTegic.value.DoubleValue
25.256

@<SCITEGIC>MOL_PROPERTY
U
SciTegic.value.DoubleValue
74.474

@<SCITEGIC>MOL_PROPERTY
W
SciTegic.value.DoubleValue
-49.218

@<SCITEGIC>MOL_PROPERTY
W(PB)
SciTegic.value.DoubleValue
-51.462

@<SCITEGIC>MOL_PROPERTY
W(SA)
SciTegic.value.DoubleValue
2.244

@<SCITEGIC>MOL_PROPERTY
Valence
SciTegic.value.DoubleValue
3.793

@<SCITEGIC>MOL_PROPERTY
Coulomb
SciTegic.value.DoubleValue
70.589

@<SCITEGIC>MOL_PROPERTY
VdW
SciTegic.value.DoubleValue
0.093

@<SCITEGIC>MOL_PROPERTY
VdW6
SciTegic.value.DoubleValue
-7.603

@<SCITEGIC>MOL_PROPERTY
VdW12
SciTegic.value.DoubleValue
7.696

@<SCITEGIC>MOL_PROPERTY
Bond
SciTegic.value.DoubleValue
0.211

@<SCITEGIC>MOL_PROPERTY
Angle
SciTegic.value.DoubleValue
1.117

@<SCITEGIC>MOL_PROPERTY
Pdih
SciTegic.value.DoubleValue
2.465

@<SCITEGIC>MOL_PROPERTY
Idih
SciTegic.value.DoubleValue
0.000

@<SCITEGIC>MOL_PROPERTY
Tether
SciTegic.value.DoubleValue
0.000

@<TRIPOS>MOLECULE
guest-s12_vm2.mol2 : vm2 ligand conformer 153
          26          25           1
SMALL
USER_CHARGES
 
@<TRIPOS>ATOM
       1    N1      19.542272   19.826405   25.487478 N.4        1 MOL1        -0.4857
       2    H1      18.895308   20.219582   26.189365 H          1 MOL1         0.3650
       3    H2      19.377767   20.377736   24.632847 H          1 MOL1         0.3650
       4    C1      19.195579   18.368530   25.238188 C.3        1 MOL1         0.0209
       5    H3      18.122723   18.319336   25.035509 H          1 MOL1         0.0967
       6    H4      19.382579   17.828577   26.169819 H          1 MOL1         0.0967
       7    C2      19.954381   17.669216   24.085584 C.3        1 MOL1        -0.1378
       8    H5      21.036043   17.677935   24.271736 H          1 MOL1         0.0993
       9    H6      19.659873   16.611552   24.103449 H          1 MOL1         0.0993
      10    C3      19.638687   18.230972   22.675122 C.3        1 MOL1        -0.1338
      11    H7      18.574779   18.497196   22.608644 H          1 MOL1         0.0993
      12    H8      19.796756   17.422040   21.949986 H          1 MOL1         0.0993
      13    C4      20.523639   19.437674   22.268291 C.3        1 MOL1        -0.1338
      14    H9      20.435324   20.238036   23.010511 H          1 MOL1         0.0993
      15    H10     21.580147   19.136014   22.269375 H          1 MOL1         0.0993
      16    C5      20.159989   20.027792   20.883954 C.3        1 MOL1        -0.1313
      17    H11     20.756182   20.936651   20.721296 H          1 MOL1         0.0993
      18    H12     19.108187   20.346381   20.880005 H          1 MOL1         0.0993
      19    C6      20.412068   19.052842   19.711092 C.3        1 MOL1        -0.2328
      20    H13     21.449061   18.692807   19.712278 H          1 MOL1         0.1004
      21    H14     20.232191   19.553132   18.750740 H          1 MOL1         0.1004
      22    H15     19.745343   18.183034   19.758247 H          1 MOL1         0.1004
      23    C7      20.981384   19.976570   25.967291 C.3        1 MOL1        -0.0781
      24    H16     21.115854   19.397753   26.883618 H          1 MOL1         0.0978
      25    H17     21.659622   19.609753   25.194270 H          1 MOL1         0.0978
      26    H18     21.184396   21.031553   26.164291 H          1 MOL1         0.0978
@<TRIPOS>BOND
    1     1     2    1
    2     1     3    1
    3     1     4    1
    4     4     5    1
    5     4     6    1
    6     4     7    1
    7     7     8    1
    8     7     9    1
    9     7    10    1
   10    10    11    1
   11    10    12    1
   12    10    13    1
   13    13    14    1
   14    13    15    1
   15    13    16    1
   16    16    17    1
   17    16    18    1
   18    16    19    1
   19    19    20    1
   20    19    21    1
   21    19    22    1
   22     1    23    1
   23    23    24    1
   24    23    25    1
   25    23    26    1
@<TRIPOS>SUBSTRUCTURE
       1 MOL1            1 RESIDUE      1      MOL     
@<SCITEGIC>MOL_PROPERTY
VM2 Rank
SciTegic.value.IntegerValue
153

@<SCITEGIC>MOL_PROPERTY
Conf_Id
SciTegic.value.IntegerValue
535

@<SCITEGIC>MOL_PROPERTY
Probability
SciTegic.value.DoubleValue
0.01

@<SCITEGIC>MOL_PROPERTY
Sum Probability
SciTegic.value.DoubleValue
99.69

@<SCITEGIC>MOL_PROPERTY
Delta G
SciTegic.value.DoubleValue
3.724

@<SCITEGIC>MOL_PROPERTY
G
SciTegic.value.DoubleValue
79.190

@<SCITEGIC>MOL_PROPERTY
E
SciTegic.value.DoubleValue
46.515

@<SCITEGIC>MOL_PROPERTY
-TS
SciTegic.value.DoubleValue
32.676

@<SCITEGIC>MOL_PROPERTY
U+W
SciTegic.value.DoubleValue
25.053

@<SCITEGIC>MOL_PROPERTY
U
SciTegic.value.DoubleValue
75.034

@<SCITEGIC>MOL_PROPERTY
W
SciTegic.value.DoubleValue
-49.981

@<SCITEGIC>MOL_PROPERTY
W(PB)
SciTegic.value.DoubleValue
-52.181

@<SCITEGIC>MOL_PROPERTY
W(SA)
SciTegic.value.DoubleValue
2.200

@<SCITEGIC>MOL_PROPERTY
Valence
SciTegic.value.DoubleValue
4.541

@<SCITEGIC>MOL_PROPERTY
Coulomb
SciTegic.value.DoubleValue
70.171

@<SCITEGIC>MOL_PROPERTY
VdW
SciTegic.value.DoubleValue
0.322

@<SCITEGIC>MOL_PROPERTY
VdW6
SciTegic.value.DoubleValue
-8.485

@<SCITEGIC>MOL_PROPERTY
VdW12
SciTegic.value.DoubleValue
8.807

@<SCITEGIC>MOL_PROPERTY
Bond
SciTegic.value.DoubleValue
0.270

@<SCITEGIC>MOL_PROPERTY
Angle
SciTegic.value.DoubleValue
1.463

@<SCITEGIC>MOL_PROPERTY
Pdih
SciTegic.value.DoubleValue
2.808

@<SCITEGIC>MOL_PROPERTY
Idih
SciTegic.value.DoubleValue
0.000

@<SCITEGIC>MOL_PROPERTY
Tether
SciTegic.value.DoubleValue
0.000

@<TRIPOS>MOLECULE
guest-s12_vm2.mol2 : vm2 ligand conformer 154
          26          25           1
SMALL
USER_CHARGES
 
@<TRIPOS>ATOM
       1    N1      20.715751   18.987003   25.841790 N.4        1 MOL1        -0.4857
       2    H1      21.708559   18.981749   26.124774 H          1 MOL1         0.3650
       3    H2      20.267921   18.265413   26.427531 H          1 MOL1         0.3650
       4    C1      20.602748   18.616722   24.372860 C.3        1 MOL1         0.0209
       5    H3      21.208677   17.720666   24.216554 H          1 MOL1         0.0967
       6    H4      21.045524   19.427280   23.792267 H          1 MOL1         0.0967
       7    C2      19.162232   18.333761   23.894382 C.3        1 MOL1        -0.1378
       8    H5      18.749163   17.530508   24.518680 H          1 MOL1         0.0993
       9    H6      18.521606   19.210269   24.054886 H          1 MOL1         0.0993
      10    C3      19.087283   17.892722   22.410431 C.3        1 MOL1        -0.1338
      11    H7      18.185483   17.277141   22.287223 H          1 MOL1         0.0993
      12    H8      19.927733   17.229064   22.167005 H          1 MOL1         0.0993
      13    C4      18.993812   19.057603   21.387557 C.3        1 MOL1        -0.1338
      14    H9      18.844354   18.630135   20.386458 H          1 MOL1         0.0993
      15    H10     18.087778   19.642507   21.597779 H          1 MOL1         0.0993
      16    C5      20.205127   20.021549   21.334934 C.3        1 MOL1        -0.1313
      17    H11     20.308765   20.555183   22.288154 H          1 MOL1         0.0993
      18    H12     19.998078   20.797505   20.584733 H          1 MOL1         0.0993
      19    C6      21.532624   19.321584   20.963720 C.3        1 MOL1        -0.2328
      20    H13     21.445318   18.798825   20.002458 H          1 MOL1         0.1004
      21    H14     21.833759   18.590091   21.722900 H          1 MOL1         0.1004
      22    H15     22.342580   20.056767   20.872547 H          1 MOL1         0.1004
      23    C7      20.108424   20.359056   26.111326 C.3        1 MOL1        -0.0781
      24    H16     20.239598   20.606371   27.167120 H          1 MOL1         0.0978
      25    H17     20.614717   21.103285   25.492792 H          1 MOL1         0.0978
      26    H18     19.044040   20.337710   25.869237 H          1 MOL1         0.0978
@<TRIPOS>BOND
    1     1     2    1
    2     1     3    1
    3     1     4    1
    4     4     5    1
    5     4     6    1
    6     4     7    1
    7     7     8    1
    8     7     9    1
    9     7    10    1
   10    10    11    1
   11    10    12    1
   12    10    13    1
   13    13    14    1
   14    13    15    1
   15    13    16    1
   16    16    17    1
   17    16    18    1
   18    16    19    1
   19    19    20    1
   20    19    21    1
   21    19    22    1
   22     1    23    1
   23    23    24    1
   24    23    25    1
   25    23    26    1
@<TRIPOS>SUBSTRUCTURE
       1 MOL1            1 RESIDUE      1      MOL     
@<SCITEGIC>MOL_PROPERTY
VM2 Rank
SciTegic.value.IntegerValue
154

@<SCITEGIC>MOL_PROPERTY
Conf_Id
SciTegic.value.IntegerValue
1601

@<SCITEGIC>MOL_PROPERTY
Probability
SciTegic.value.DoubleValue
0.01

@<SCITEGIC>MOL_PROPERTY
Sum Probability
SciTegic.value.DoubleValue
99.70

@<SCITEGIC>MOL_PROPERTY
Delta G
SciTegic.value.DoubleValue
3.751

@<SCITEGIC>MOL_PROPERTY
G
SciTegic.value.DoubleValue
79.217

@<SCITEGIC>MOL_PROPERTY
E
SciTegic.value.DoubleValue
46.083

@<SCITEGIC>MOL_PROPERTY
-TS
SciTegic.value.DoubleValue
33.135

@<SCITEGIC>MOL_PROPERTY
U+W
SciTegic.value.DoubleValue
24.621

@<SCITEGIC>MOL_PROPERTY
U
SciTegic.value.DoubleValue
74.630

@<SCITEGIC>MOL_PROPERTY
W
SciTegic.value.DoubleValue
-50.010

@<SCITEGIC>MOL_PROPERTY
W(PB)
SciTegic.value.DoubleValue
-52.190

@<SCITEGIC>MOL_PROPERTY
W(SA)
SciTegic.value.DoubleValue
2.180

@<SCITEGIC>MOL_PROPERTY
Valence
SciTegic.value.DoubleValue
4.879

@<SCITEGIC>MOL_PROPERTY
Coulomb
SciTegic.value.DoubleValue
69.648

@<SCITEGIC>MOL_PROPERTY
VdW
SciTegic.value.DoubleValue
0.103

@<SCITEGIC>MOL_PROPERTY
VdW6
SciTegic.value.DoubleValue
-8.910

@<SCITEGIC>MOL_PROPERTY
VdW12
SciTegic.value.DoubleValue
9.013

@<SCITEGIC>MOL_PROPERTY
Bond
SciTegic.value.DoubleValue
0.274

@<SCITEGIC>MOL_PROPERTY
Angle
SciTegic.value.DoubleValue
1.756

@<SCITEGIC>MOL_PROPERTY
Pdih
SciTegic.value.DoubleValue
2.849

@<SCITEGIC>MOL_PROPERTY
Idih
SciTegic.value.DoubleValue
0.000

@<SCITEGIC>MOL_PROPERTY
Tether
SciTegic.value.DoubleValue
0.000

@<TRIPOS>MOLECULE
guest-s12_vm2.mol2 : vm2 ligand conformer 155
          26          25           1
SMALL
USER_CHARGES
 
@<TRIPOS>ATOM
       1    N1      19.729019   18.903340   25.932584 N.4        1 MOL1        -0.4857
       2    H1      20.444389   18.219367   26.222057 H          1 MOL1         0.3650
       3    H2      19.015737   18.871566   26.677992 H          1 MOL1         0.3650
       4    C1      19.094625   18.478777   24.616768 C.3        1 MOL1         0.0209
       5    H3      18.622008   19.351875   24.160769 H          1 MOL1         0.0967
       6    H4      18.303075   17.769416   24.871499 H          1 MOL1         0.0967
       7    C2      20.043432   17.785330   23.611815 C.3        1 MOL1        -0.1378
       8    H5      20.546712   16.948299   24.113152 H          1 MOL1         0.0993
       9    H6      19.434122   17.330550   22.820518 H          1 MOL1         0.0993
      10    C3      21.108130   18.706258   22.961882 C.3        1 MOL1        -0.1338
      11    H7      21.698488   18.115670   22.248913 H          1 MOL1         0.0993
      12    H8      21.825560   19.028382   23.727057 H          1 MOL1         0.0993
      13    C4      20.535489   19.957063   22.241400 C.3        1 MOL1        -0.1338
      14    H9      20.068605   20.623513   22.978036 H          1 MOL1         0.0993
      15    H10     21.370654   20.528650   21.813806 H          1 MOL1         0.0993
      16    C5      19.508071   19.658381   21.119978 C.3        1 MOL1        -0.1313
      17    H11     19.162659   20.612836   20.698775 H          1 MOL1         0.0993
      18    H12     18.615954   19.175713   21.540985 H          1 MOL1         0.0993
      19    C6      20.081287   18.789639   19.977347 C.3        1 MOL1        -0.2328
      20    H13     20.983766   19.245418   19.549909 H          1 MOL1         0.1004
      21    H14     19.345371   18.681507   19.170155 H          1 MOL1         0.1004
      22    H15     20.337784   17.782074   20.327311 H          1 MOL1         0.1004
      23    C7      20.307947   20.311211   25.855227 C.3        1 MOL1        -0.0781
      24    H16     20.712486   20.583879   26.832485 H          1 MOL1         0.0978
      25    H17     21.103011   20.341416   25.109686 H          1 MOL1         0.0978
      26    H18     19.514860   21.009127   25.578417 H          1 MOL1         0.0978
@<TRIPOS>BOND
    1     1     2    1
    2     1     3    1
    3     1     4    1
    4     4     5    1
    5     4     6    1
    6     4     7    1
    7     7     8    1
    8     7     9    1
    9     7    10    1
   10    10    11    1
   11    10    12    1
   12    10    13    1
   13    13    14    1
   14    13    15    1
   15    13    16    1
   16    16    17    1
   17    16    18    1
   18    16    19    1
   19    19    20    1
   20    19    21    1
   21    19    22    1
   22     1    23    1
   23    23    24    1
   24    23    25    1
   25    23    26    1
@<TRIPOS>SUBSTRUCTURE
       1 MOL1            1 RESIDUE      1      MOL     
@<SCITEGIC>MOL_PROPERTY
VM2 Rank
SciTegic.value.IntegerValue
155

@<SCITEGIC>MOL_PROPERTY
Conf_Id
SciTegic.value.IntegerValue
254

@<SCITEGIC>MOL_PROPERTY
Probability
SciTegic.value.DoubleValue
0.01

@<SCITEGIC>MOL_PROPERTY
Sum Probability
SciTegic.value.DoubleValue
99.72

@<SCITEGIC>MOL_PROPERTY
Delta G
SciTegic.value.DoubleValue
3.753

@<SCITEGIC>MOL_PROPERTY
G
SciTegic.value.DoubleValue
79.220

@<SCITEGIC>MOL_PROPERTY
E
SciTegic.value.DoubleValue
45.809

@<SCITEGIC>MOL_PROPERTY
-TS
SciTegic.value.DoubleValue
33.411

@<SCITEGIC>MOL_PROPERTY
U+W
SciTegic.value.DoubleValue
24.347

@<SCITEGIC>MOL_PROPERTY
U
SciTegic.value.DoubleValue
74.535

@<SCITEGIC>MOL_PROPERTY
W
SciTegic.value.DoubleValue
-50.187

@<SCITEGIC>MOL_PROPERTY
W(PB)
SciTegic.value.DoubleValue
-52.346

@<SCITEGIC>MOL_PROPERTY
W(SA)
SciTegic.value.DoubleValue
2.159

@<SCITEGIC>MOL_PROPERTY
Valence
SciTegic.value.DoubleValue
4.948

@<SCITEGIC>MOL_PROPERTY
Coulomb
SciTegic.value.DoubleValue
69.619

@<SCITEGIC>MOL_PROPERTY
VdW
SciTegic.value.DoubleValue
-0.032

@<SCITEGIC>MOL_PROPERTY
VdW6
SciTegic.value.DoubleValue
-9.810

@<SCITEGIC>MOL_PROPERTY
VdW12
SciTegic.value.DoubleValue
9.778

@<SCITEGIC>MOL_PROPERTY
Bond
SciTegic.value.DoubleValue
0.300

@<SCITEGIC>MOL_PROPERTY
Angle
SciTegic.value.DoubleValue
1.880

@<SCITEGIC>MOL_PROPERTY
Pdih
SciTegic.value.DoubleValue
2.768

@<SCITEGIC>MOL_PROPERTY
Idih
SciTegic.value.DoubleValue
0.000

@<SCITEGIC>MOL_PROPERTY
Tether
SciTegic.value.DoubleValue
0.000

@<TRIPOS>MOLECULE
guest-s12_vm2.mol2 : vm2 ligand conformer 156
          26          25           1
SMALL
USER_CHARGES
 
@<TRIPOS>ATOM
       1    N1      20.285658   19.129063   25.932966 N.4        1 MOL1        -0.4857
       2    H1      20.970975   19.821251   25.594761 H          1 MOL1         0.3650
       3    H2      20.827883   18.271234   26.119462 H          1 MOL1         0.3650
       4    C1      19.241999   18.864709   24.864900 C.3        1 MOL1         0.0209
       5    H3      18.697095   19.795437   24.688102 H          1 MOL1         0.0967
       6    H4      18.539807   18.129212   25.265633 H          1 MOL1         0.0967
       7    C2      19.823362   18.344087   23.535631 C.3        1 MOL1        -0.1378
       8    H5      20.374615   17.412279   23.718986 H          1 MOL1         0.0993
       9    H6      18.988269   18.081470   22.876655 H          1 MOL1         0.0993
      10    C3      20.749251   19.376859   22.843432 C.3        1 MOL1        -0.1338
      11    H7      21.617127   19.557772   23.491501 H          1 MOL1         0.0993
      12    H8      20.236740   20.343733   22.743649 H          1 MOL1         0.0993
      13    C4      21.269661   18.906396   21.459899 C.3        1 MOL1        -0.1338
      14    H9      22.297843   19.274396   21.337594 H          1 MOL1         0.0993
      15    H10     21.343227   17.810478   21.432027 H          1 MOL1         0.0993
      16    C5      20.445861   19.416565   20.249673 C.3        1 MOL1        -0.1313
      17    H11     20.942174   19.086513   19.326313 H          1 MOL1         0.0993
      18    H12     20.464706   20.515195   20.228168 H          1 MOL1         0.0993
      19    C6      18.980524   18.929133   20.225111 C.3        1 MOL1        -0.2328
      20    H13     18.494613   19.222851   19.285693 H          1 MOL1         0.1004
      21    H14     18.399805   19.369378   21.044984 H          1 MOL1         0.1004
      22    H15     18.925001   17.835714   20.303648 H          1 MOL1         0.1004
      23    C7      19.611684   19.623189   27.205387 C.3        1 MOL1        -0.0781
      24    H16     18.914730   18.861406   27.561580 H          1 MOL1         0.0978
      25    H17     20.373842   19.810001   27.965213 H          1 MOL1         0.0978
      26    H18     19.071243   20.547526   26.989839 H          1 MOL1         0.0978
@<TRIPOS>BOND
    1     1     2    1
    2     1     3    1
    3     1     4    1
    4     4     5    1
    5     4     6    1
    6     4     7    1
    7     7     8    1
    8     7     9    1
    9     7    10    1
   10    10    11    1
   11    10    12    1
   12    10    13    1
   13    13    14    1
   14    13    15    1
   15    13    16    1
   16    16    17    1
   17    16    18    1
   18    16    19    1
   19    19    20    1
   20    19    21    1
   21    19    22    1
   22     1    23    1
   23    23    24    1
   24    23    25    1
   25    23    26    1
@<TRIPOS>SUBSTRUCTURE
       1 MOL1            1 RESIDUE      1      MOL     
@<SCITEGIC>MOL_PROPERTY
VM2 Rank
SciTegic.value.IntegerValue
156

@<SCITEGIC>MOL_PROPERTY
Conf_Id
SciTegic.value.IntegerValue
427

@<SCITEGIC>MOL_PROPERTY
Probability
SciTegic.value.DoubleValue
0.01

@<SCITEGIC>MOL_PROPERTY
Sum Probability
SciTegic.value.DoubleValue
99.73

@<SCITEGIC>MOL_PROPERTY
Delta G
SciTegic.value.DoubleValue
3.796

@<SCITEGIC>MOL_PROPERTY
G
SciTegic.value.DoubleValue
79.262

@<SCITEGIC>MOL_PROPERTY
E
SciTegic.value.DoubleValue
46.644

@<SCITEGIC>MOL_PROPERTY
-TS
SciTegic.value.DoubleValue
32.619

@<SCITEGIC>MOL_PROPERTY
U+W
SciTegic.value.DoubleValue
25.182

@<SCITEGIC>MOL_PROPERTY
U
SciTegic.value.DoubleValue
74.517

@<SCITEGIC>MOL_PROPERTY
W
SciTegic.value.DoubleValue
-49.335

@<SCITEGIC>MOL_PROPERTY
W(PB)
SciTegic.value.DoubleValue
-51.569

@<SCITEGIC>MOL_PROPERTY
W(SA)
SciTegic.value.DoubleValue
2.234

@<SCITEGIC>MOL_PROPERTY
Valence
SciTegic.value.DoubleValue
4.842

@<SCITEGIC>MOL_PROPERTY
Coulomb
SciTegic.value.DoubleValue
69.333

@<SCITEGIC>MOL_PROPERTY
VdW
SciTegic.value.DoubleValue
0.342

@<SCITEGIC>MOL_PROPERTY
VdW6
SciTegic.value.DoubleValue
-7.369

@<SCITEGIC>MOL_PROPERTY
VdW12
SciTegic.value.DoubleValue
7.711

@<SCITEGIC>MOL_PROPERTY
Bond
SciTegic.value.DoubleValue
0.232

@<SCITEGIC>MOL_PROPERTY
Angle
SciTegic.value.DoubleValue
1.153

@<SCITEGIC>MOL_PROPERTY
Pdih
SciTegic.value.DoubleValue
3.457

@<SCITEGIC>MOL_PROPERTY
Idih
SciTegic.value.DoubleValue
0.000

@<SCITEGIC>MOL_PROPERTY
Tether
SciTegic.value.DoubleValue
0.000

@<TRIPOS>MOLECULE
guest-s12_vm2.mol2 : vm2 ligand conformer 157
          26          25           1
SMALL
USER_CHARGES
 
@<TRIPOS>ATOM
       1    N1      20.631584   18.988383   25.494140 N.4        1 MOL1        -0.4857
       2    H1      21.213529   19.296493   24.702172 H          1 MOL1         0.3650
       3    H2      20.951232   18.032632   25.715941 H          1 MOL1         0.3650
       4    C1      19.168872   18.967584   25.092868 C.3        1 MOL1         0.0209
       5    H3      18.844648   19.994827   24.908511 H          1 MOL1         0.0967
       6    H4      18.611088   18.584514   25.951185 H          1 MOL1         0.0967
       7    C2      18.859622   18.091846   23.860355 C.3        1 MOL1        -0.1378
       8    H5      19.440131   17.160771   23.904392 H          1 MOL1         0.0993
       9    H6      17.805088   17.791457   23.920134 H          1 MOL1         0.0993
      10    C3      19.074757   18.798818   22.497317 C.3        1 MOL1        -0.1338
      11    H7      18.426177   19.683856   22.439490 H          1 MOL1         0.0993
      12    H8      18.730541   18.115744   21.710510 H          1 MOL1         0.0993
      13    C4      20.540432   19.215964   22.215601 C.3        1 MOL1        -0.1338
      14    H9      20.848327   19.971948   22.948280 H          1 MOL1         0.0993
      15    H10     21.207643   18.352751   22.345780 H          1 MOL1         0.0993
      16    C5      20.748975   19.820049   20.805320 C.3        1 MOL1        -0.1313
      17    H11     21.768431   20.226254   20.744850 H          1 MOL1         0.0993
      18    H12     20.070600   20.672575   20.660783 H          1 MOL1         0.0993
      19    C6      20.556255   18.799498   19.660066 C.3        1 MOL1        -0.2328
      20    H13     20.815412   19.253231   18.694717 H          1 MOL1         0.1004
      21    H14     19.516616   18.456792   19.592450 H          1 MOL1         0.1004
      22    H15     21.199889   17.921451   19.800584 H          1 MOL1         0.1004
      23    C7      20.827502   19.907858   26.691333 C.3        1 MOL1        -0.0781
      24    H16     20.512197   20.918642   26.423330 H          1 MOL1         0.0978
      25    H17     20.226611   19.542126   27.526856 H          1 MOL1         0.0978
      26    H18     21.883454   19.912510   26.970718 H          1 MOL1         0.0978
@<TRIPOS>BOND
    1     1     2    1
    2     1     3    1
    3     1     4    1
    4     4     5    1
    5     4     6    1
    6     4     7    1
    7     7     8    1
    8     7     9    1
    9     7    10    1
   10    10    11    1
   11    10    12    1
   12    10    13    1
   13    13    14    1
   14    13    15    1
   15    13    16    1
   16    16    17    1
   17    16    18    1
   18    16    19    1
   19    19    20    1
   20    19    21    1
   21    19    22    1
   22     1    23    1
   23    23    24    1
   24    23    25    1
   25    23    26    1
@<TRIPOS>SUBSTRUCTURE
       1 MOL1            1 RESIDUE      1      MOL     
@<SCITEGIC>MOL_PROPERTY
VM2 Rank
SciTegic.value.IntegerValue
157

@<SCITEGIC>MOL_PROPERTY
Conf_Id
SciTegic.value.IntegerValue
519

@<SCITEGIC>MOL_PROPERTY
Probability
SciTegic.value.DoubleValue
0.01

@<SCITEGIC>MOL_PROPERTY
Sum Probability
SciTegic.value.DoubleValue
99.74

@<SCITEGIC>MOL_PROPERTY
Delta G
SciTegic.value.DoubleValue
3.818

@<SCITEGIC>MOL_PROPERTY
G
SciTegic.value.DoubleValue
79.285

@<SCITEGIC>MOL_PROPERTY
E
SciTegic.value.DoubleValue
46.910

@<SCITEGIC>MOL_PROPERTY
-TS
SciTegic.value.DoubleValue
32.375

@<SCITEGIC>MOL_PROPERTY
U+W
SciTegic.value.DoubleValue
25.448

@<SCITEGIC>MOL_PROPERTY
U
SciTegic.value.DoubleValue
74.712

@<SCITEGIC>MOL_PROPERTY
W
SciTegic.value.DoubleValue
-49.264

@<SCITEGIC>MOL_PROPERTY
W(PB)
SciTegic.value.DoubleValue
-51.536

@<SCITEGIC>MOL_PROPERTY
W(SA)
SciTegic.value.DoubleValue
2.272

@<SCITEGIC>MOL_PROPERTY
Valence
SciTegic.value.DoubleValue
4.001

@<SCITEGIC>MOL_PROPERTY
Coulomb
SciTegic.value.DoubleValue
70.536

@<SCITEGIC>MOL_PROPERTY
VdW
SciTegic.value.DoubleValue
0.175

@<SCITEGIC>MOL_PROPERTY
VdW6
SciTegic.value.DoubleValue
-7.477

@<SCITEGIC>MOL_PROPERTY
VdW12
SciTegic.value.DoubleValue
7.652

@<SCITEGIC>MOL_PROPERTY
Bond
SciTegic.value.DoubleValue
0.220

@<SCITEGIC>MOL_PROPERTY
Angle
SciTegic.value.DoubleValue
1.251

@<SCITEGIC>MOL_PROPERTY
Pdih
SciTegic.value.DoubleValue
2.531

@<SCITEGIC>MOL_PROPERTY
Idih
SciTegic.value.DoubleValue
0.000

@<SCITEGIC>MOL_PROPERTY
Tether
SciTegic.value.DoubleValue
0.000

@<TRIPOS>MOLECULE
guest-s12_vm2.mol2 : vm2 ligand conformer 158
          26          25           1
SMALL
USER_CHARGES
 
@<TRIPOS>ATOM
       1    N1      20.517298   19.386350   25.725147 N.4        1 MOL1        -0.4857
       2    H1      20.335686   20.347215   25.398066 H          1 MOL1         0.3650
       3    H2      21.505557   19.198124   25.496060 H          1 MOL1         0.3650
       4    C1      19.616873   18.409151   24.994326 C.3        1 MOL1         0.0209
       5    H3      18.581940   18.645215   25.254354 H          1 MOL1         0.0967
       6    H4      19.843070   17.407798   25.369466 H          1 MOL1         0.0967
       7    C2      19.784576   18.431390   23.462311 C.3        1 MOL1        -0.1378
       8    H5      20.826282   18.192822   23.214382 H          1 MOL1         0.0993
       9    H6      19.161760   17.635697   23.032668 H          1 MOL1         0.0993
      10    C3      19.384982   19.791120   22.839990 C.3        1 MOL1        -0.1338
      11    H7      20.087492   20.569988   23.165468 H          1 MOL1         0.0993
      12    H8      18.399832   20.084319   23.228880 H          1 MOL1         0.0993
      13    C4      19.313182   19.788356   21.290904 C.3        1 MOL1        -0.1338
      14    H9      18.540116   19.086580   20.948715 H          1 MOL1         0.0993
      15    H10     18.968795   20.782960   20.975178 H          1 MOL1         0.0993
      16    C5      20.658102   19.495790   20.576427 C.3        1 MOL1        -0.1313
      17    H11     21.500634   19.845030   21.189416 H          1 MOL1         0.0993
      18    H12     20.695833   20.084441   19.649027 H          1 MOL1         0.0993
      19    C6      20.846302   18.006940   20.201706 C.3        1 MOL1        -0.2328
      20    H13     20.853119   17.356156   21.082698 H          1 MOL1         0.1004
      21    H14     21.798303   17.861487   19.674977 H          1 MOL1         0.1004
      22    H15     20.042966   17.665802   19.535899 H          1 MOL1         0.1004
      23    C7      20.286685   19.280903   27.226188 C.3        1 MOL1        -0.0781
      24    H16     20.515103   18.264382   27.553969 H          1 MOL1         0.0978
      25    H17     20.940132   19.989670   27.739773 H          1 MOL1         0.0978
      26    H18     19.242852   19.515046   27.446474 H          1 MOL1         0.0978
@<TRIPOS>BOND
    1     1     2    1
    2     1     3    1
    3     1     4    1
    4     4     5    1
    5     4     6    1
    6     4     7    1
    7     7     8    1
    8     7     9    1
    9     7    10    1
   10    10    11    1
   11    10    12    1
   12    10    13    1
   13    13    14    1
   14    13    15    1
   15    13    16    1
   16    16    17    1
   17    16    18    1
   18    16    19    1
   19    19    20    1
   20    19    21    1
   21    19    22    1
   22     1    23    1
   23    23    24    1
   24    23    25    1
   25    23    26    1
@<TRIPOS>SUBSTRUCTURE
       1 MOL1            1 RESIDUE      1      MOL     
@<SCITEGIC>MOL_PROPERTY
VM2 Rank
SciTegic.value.IntegerValue
158

@<SCITEGIC>MOL_PROPERTY
Conf_Id
SciTegic.value.IntegerValue
284

@<SCITEGIC>MOL_PROPERTY
Probability
SciTegic.value.DoubleValue
0.01

@<SCITEGIC>MOL_PROPERTY
Sum Probability
SciTegic.value.DoubleValue
99.75

@<SCITEGIC>MOL_PROPERTY
Delta G
SciTegic.value.DoubleValue
3.831

@<SCITEGIC>MOL_PROPERTY
G
SciTegic.value.DoubleValue
79.298

@<SCITEGIC>MOL_PROPERTY
E
SciTegic.value.DoubleValue
46.712

@<SCITEGIC>MOL_PROPERTY
-TS
SciTegic.value.DoubleValue
32.586

@<SCITEGIC>MOL_PROPERTY
U+W
SciTegic.value.DoubleValue
25.250

@<SCITEGIC>MOL_PROPERTY
U
SciTegic.value.DoubleValue
74.608

@<SCITEGIC>MOL_PROPERTY
W
SciTegic.value.DoubleValue
-49.357

@<SCITEGIC>MOL_PROPERTY
W(PB)
SciTegic.value.DoubleValue
-51.611

@<SCITEGIC>MOL_PROPERTY
W(SA)
SciTegic.value.DoubleValue
2.254

@<SCITEGIC>MOL_PROPERTY
Valence
SciTegic.value.DoubleValue
4.823

@<SCITEGIC>MOL_PROPERTY
Coulomb
SciTegic.value.DoubleValue
69.470

@<SCITEGIC>MOL_PROPERTY
VdW
SciTegic.value.DoubleValue
0.315

@<SCITEGIC>MOL_PROPERTY
VdW6
SciTegic.value.DoubleValue
-7.375

@<SCITEGIC>MOL_PROPERTY
VdW12
SciTegic.value.DoubleValue
7.690

@<SCITEGIC>MOL_PROPERTY
Bond
SciTegic.value.DoubleValue
0.227

@<SCITEGIC>MOL_PROPERTY
Angle
SciTegic.value.DoubleValue
1.209

@<SCITEGIC>MOL_PROPERTY
Pdih
SciTegic.value.DoubleValue
3.387

@<SCITEGIC>MOL_PROPERTY
Idih
SciTegic.value.DoubleValue
0.000

@<SCITEGIC>MOL_PROPERTY
Tether
SciTegic.value.DoubleValue
0.000

@<TRIPOS>MOLECULE
guest-s12_vm2.mol2 : vm2 ligand conformer 159
          26          25           1
SMALL
USER_CHARGES
 
@<TRIPOS>ATOM
       1    N1      19.625485   19.061374   25.909652 N.4        1 MOL1        -0.4857
       2    H1      19.256438   18.110217   26.063811 H          1 MOL1         0.3650
       3    H2      18.839628   19.602941   25.519392 H          1 MOL1         0.3650
       4    C1      20.773208   19.021488   24.919189 C.3        1 MOL1         0.0209
       5    H3      21.579915   18.440445   25.373311 H          1 MOL1         0.0967
       6    H4      21.129468   20.044497   24.774402 H          1 MOL1         0.0967
       7    C2      20.403782   18.403631   23.556190 C.3        1 MOL1        -0.1378
       8    H5      21.318815   18.320120   22.959246 H          1 MOL1         0.0993
       9    H6      20.040936   17.378285   23.707105 H          1 MOL1         0.0993
      10    C3      19.338968   19.232741   22.793453 C.3        1 MOL1        -0.1338
      11    H7      19.651099   20.283955   22.722794 H          1 MOL1         0.0993
      12    H8      18.409255   19.229849   23.377880 H          1 MOL1         0.0993
      13    C4      19.022559   18.676581   21.380337 C.3        1 MOL1        -0.1338
      14    H9      19.174251   17.588654   21.355304 H          1 MOL1         0.0993
      15    H10     17.952336   18.829920   21.183745 H          1 MOL1         0.0993
      16    C5      19.808802   19.351357   20.227053 C.3        1 MOL1        -0.1313
      17    H11     19.569832   20.423625   20.196404 H          1 MOL1         0.0993
      18    H12     19.455261   18.934390   19.273638 H          1 MOL1         0.0993
      19    C6      21.340472   19.170359   20.308524 C.3        1 MOL1        -0.2328
      20    H13     21.821464   19.562878   19.403283 H          1 MOL1         0.1004
      21    H14     21.610225   18.110205   20.398644 H          1 MOL1         0.1004
      22    H15     21.761431   19.713081   21.163794 H          1 MOL1         0.1004
      23    C7      20.094723   19.672469   27.222602 C.3        1 MOL1        -0.0781
      24    H16     20.450528   20.688632   27.038884 H          1 MOL1         0.0978
      25    H17     19.259273   19.695555   27.925886 H          1 MOL1         0.0978
      26    H18     20.904830   19.065020   27.632072 H          1 MOL1         0.0978
@<TRIPOS>BOND
    1     1     2    1
    2     1     3    1
    3     1     4    1
    4     4     5    1
    5     4     6    1
    6     4     7    1
    7     7     8    1
    8     7     9    1
    9     7    10    1
   10    10    11    1
   11    10    12    1
   12    10    13    1
   13    13    14    1
   14    13    15    1
   15    13    16    1
   16    16    17    1
   17    16    18    1
   18    16    19    1
   19    19    20    1
   20    19    21    1
   21    19    22    1
   22     1    23    1
   23    23    24    1
   24    23    25    1
   25    23    26    1
@<TRIPOS>SUBSTRUCTURE
       1 MOL1            1 RESIDUE      1      MOL     
@<SCITEGIC>MOL_PROPERTY
VM2 Rank
SciTegic.value.IntegerValue
159

@<SCITEGIC>MOL_PROPERTY
Conf_Id
SciTegic.value.IntegerValue
423

@<SCITEGIC>MOL_PROPERTY
Probability
SciTegic.value.DoubleValue
0.01

@<SCITEGIC>MOL_PROPERTY
Sum Probability
SciTegic.value.DoubleValue
99.76

@<SCITEGIC>MOL_PROPERTY
Delta G
SciTegic.value.DoubleValue
3.837

@<SCITEGIC>MOL_PROPERTY
G
SciTegic.value.DoubleValue
79.303

@<SCITEGIC>MOL_PROPERTY
E
SciTegic.value.DoubleValue
46.685

@<SCITEGIC>MOL_PROPERTY
-TS
SciTegic.value.DoubleValue
32.618

@<SCITEGIC>MOL_PROPERTY
U+W
SciTegic.value.DoubleValue
25.223

@<SCITEGIC>MOL_PROPERTY
U
SciTegic.value.DoubleValue
74.516

@<SCITEGIC>MOL_PROPERTY
W
SciTegic.value.DoubleValue
-49.294

@<SCITEGIC>MOL_PROPERTY
W(PB)
SciTegic.value.DoubleValue
-51.561

@<SCITEGIC>MOL_PROPERTY
W(SA)
SciTegic.value.DoubleValue
2.267

@<SCITEGIC>MOL_PROPERTY
Valence
SciTegic.value.DoubleValue
4.842

@<SCITEGIC>MOL_PROPERTY
Coulomb
SciTegic.value.DoubleValue
69.332

@<SCITEGIC>MOL_PROPERTY
VdW
SciTegic.value.DoubleValue
0.342

@<SCITEGIC>MOL_PROPERTY
VdW6
SciTegic.value.DoubleValue
-7.369

@<SCITEGIC>MOL_PROPERTY
VdW12
SciTegic.value.DoubleValue
7.710

@<SCITEGIC>MOL_PROPERTY
Bond
SciTegic.value.DoubleValue
0.232

@<SCITEGIC>MOL_PROPERTY
Angle
SciTegic.value.DoubleValue
1.153

@<SCITEGIC>MOL_PROPERTY
Pdih
SciTegic.value.DoubleValue
3.457

@<SCITEGIC>MOL_PROPERTY
Idih
SciTegic.value.DoubleValue
0.000

@<SCITEGIC>MOL_PROPERTY
Tether
SciTegic.value.DoubleValue
0.000

@<TRIPOS>MOLECULE
guest-s12_vm2.mol2 : vm2 ligand conformer 160
          26          25           1
SMALL
USER_CHARGES
 
@<TRIPOS>ATOM
       1    N1      19.134341   19.680258   25.284419 N.4        1 MOL1        -0.4857
       2    H1      18.121306   19.801837   25.441631 H          1 MOL1         0.3650
       3    H2      19.413348   20.481653   24.699536 H          1 MOL1         0.3650
       4    C1      19.380976   18.377484   24.539284 C.3        1 MOL1         0.0209
       5    H3      18.708103   18.363970   23.681233 H          1 MOL1         0.0967
       6    H4      19.085735   17.560802   25.202857 H          1 MOL1         0.0967
       7    C2      20.836007   18.148874   24.065207 C.3        1 MOL1        -0.1378
       8    H5      21.482366   18.091112   24.950394 H          1 MOL1         0.0993
       9    H6      20.908663   17.165322   23.582777 H          1 MOL1         0.0993
      10    C3      21.393698   19.239425   23.110993 C.3        1 MOL1        -0.1338
      11    H7      22.489981   19.216608   23.182015 H          1 MOL1         0.0993
      12    H8      21.102389   20.240516   23.453655 H          1 MOL1         0.0993
      13    C4      21.025810   19.061285   21.614746 C.3        1 MOL1        -0.1338
      14    H9      21.557445   19.833239   21.041224 H          1 MOL1         0.0993
      15    H10     21.410399   18.097282   21.254151 H          1 MOL1         0.0993
      16    C5      19.514931   19.160723   21.301812 C.3        1 MOL1        -0.1313
      17    H11     19.090444   20.054477   21.779676 H          1 MOL1         0.0993
      18    H12     18.990131   18.289290   21.712795 H          1 MOL1         0.0993
      19    C6      19.251108   19.219329   19.781923 C.3        1 MOL1        -0.2328
      20    H13     18.174077   19.275684   19.577369 H          1 MOL1         0.1004
      21    H14     19.643218   18.325935   19.278600 H          1 MOL1         0.1004
      22    H15     19.725131   20.101219   19.331637 H          1 MOL1         0.1004
      23    C7      19.871131   19.702622   26.618615 C.3        1 MOL1        -0.0781
      24    H16     20.946125   19.638757   26.438523 H          1 MOL1         0.0978
      25    H17     19.640744   20.635206   27.138450 H          1 MOL1         0.0978
      26    H18     19.544875   18.853331   27.222784 H          1 MOL1         0.0978
@<TRIPOS>BOND
    1     1     2    1
    2     1     3    1
    3     1     4    1
    4     4     5    1
    5     4     6    1
    6     4     7    1
    7     7     8    1
    8     7     9    1
    9     7    10    1
   10    10    11    1
   11    10    12    1
   12    10    13    1
   13    13    14    1
   14    13    15    1
   15    13    16    1
   16    16    17    1
   17    16    18    1
   18    16    19    1
   19    19    20    1
   20    19    21    1
   21    19    22    1
   22     1    23    1
   23    23    24    1
   24    23    25    1
   25    23    26    1
@<TRIPOS>SUBSTRUCTURE
       1 MOL1            1 RESIDUE      1      MOL     
@<SCITEGIC>MOL_PROPERTY
VM2 Rank
SciTegic.value.IntegerValue
160

@<SCITEGIC>MOL_PROPERTY
Conf_Id
SciTegic.value.IntegerValue
1058

@<SCITEGIC>MOL_PROPERTY
Probability
SciTegic.value.DoubleValue
0.01

@<SCITEGIC>MOL_PROPERTY
Sum Probability
SciTegic.value.DoubleValue
99.77

@<SCITEGIC>MOL_PROPERTY
Delta G
SciTegic.value.DoubleValue
3.841

@<SCITEGIC>MOL_PROPERTY
G
SciTegic.value.DoubleValue
79.307

@<SCITEGIC>MOL_PROPERTY
E
SciTegic.value.DoubleValue
46.718

@<SCITEGIC>MOL_PROPERTY
-TS
SciTegic.value.DoubleValue
32.589

@<SCITEGIC>MOL_PROPERTY
U+W
SciTegic.value.DoubleValue
25.257

@<SCITEGIC>MOL_PROPERTY
U
SciTegic.value.DoubleValue
75.226

@<SCITEGIC>MOL_PROPERTY
W
SciTegic.value.DoubleValue
-49.969

@<SCITEGIC>MOL_PROPERTY
W(PB)
SciTegic.value.DoubleValue
-52.203

@<SCITEGIC>MOL_PROPERTY
W(SA)
SciTegic.value.DoubleValue
2.234

@<SCITEGIC>MOL_PROPERTY
Valence
SciTegic.value.DoubleValue
4.592

@<SCITEGIC>MOL_PROPERTY
Coulomb
SciTegic.value.DoubleValue
70.317

@<SCITEGIC>MOL_PROPERTY
VdW
SciTegic.value.DoubleValue
0.317

@<SCITEGIC>MOL_PROPERTY
VdW6
SciTegic.value.DoubleValue
-8.478

@<SCITEGIC>MOL_PROPERTY
VdW12
SciTegic.value.DoubleValue
8.795

@<SCITEGIC>MOL_PROPERTY
Bond
SciTegic.value.DoubleValue
0.276

@<SCITEGIC>MOL_PROPERTY
Angle
SciTegic.value.DoubleValue
1.616

@<SCITEGIC>MOL_PROPERTY
Pdih
SciTegic.value.DoubleValue
2.700

@<SCITEGIC>MOL_PROPERTY
Idih
SciTegic.value.DoubleValue
0.000

@<SCITEGIC>MOL_PROPERTY
Tether
SciTegic.value.DoubleValue
0.000

@<TRIPOS>MOLECULE
guest-s12_vm2.mol2 : vm2 ligand conformer 161
          26          25           1
SMALL
USER_CHARGES
 
@<TRIPOS>ATOM
       1    N1      19.374920   19.696976   25.471703 N.4        1 MOL1        -0.4857
       2    H1      18.846990   19.846425   24.600564 H          1 MOL1         0.3650
       3    H2      19.188945   20.532957   26.048324 H          1 MOL1         0.3650
       4    C1      20.864104   19.605616   25.176692 C.3        1 MOL1         0.0209
       5    H3      21.359238   19.369764   26.122037 H          1 MOL1         0.0967
       6    H4      21.205395   20.594207   24.859353 H          1 MOL1         0.0967
       7    C2      21.278743   18.561773   24.113631 C.3        1 MOL1        -0.1378
       8    H5      22.342852   18.339514   24.268181 H          1 MOL1         0.0993
       9    H6      20.751571   17.613583   24.277687 H          1 MOL1         0.0993
      10    C3      21.103228   19.026430   22.644887 C.3        1 MOL1        -0.1338
      11    H7      21.552899   18.260923   22.000102 H          1 MOL1         0.0993
      12    H8      21.683196   19.944785   22.479178 H          1 MOL1         0.0993
      13    C4      19.631896   19.259931   22.218271 C.3        1 MOL1        -0.1338
      14    H9      19.024418   18.379148   22.468482 H          1 MOL1         0.0993
      15    H10     19.220432   20.102836   22.785804 H          1 MOL1         0.0993
      16    C5      19.470577   19.587773   20.713653 C.3        1 MOL1        -0.1313
      17    H11     20.094913   20.453424   20.451487 H          1 MOL1         0.0993
      18    H12     18.430832   19.893481   20.530839 H          1 MOL1         0.0993
      19    C6      19.805865   18.400466   19.781847 C.3        1 MOL1        -0.2328
      20    H13     19.576374   18.655032   18.739032 H          1 MOL1         0.1004
      21    H14     19.217887   17.512088   20.046502 H          1 MOL1         0.1004
      22    H15     20.869124   18.135594   19.828016 H          1 MOL1         0.1004
      23    C7      18.878669   18.451033   26.196316 C.3        1 MOL1        -0.0781
      24    H16     17.817429   18.570259   26.425655 H          1 MOL1         0.0978
      25    H17     19.019359   17.578422   25.555635 H          1 MOL1         0.0978
      26    H18     19.443810   18.326050   27.122483 H          1 MOL1         0.0978
@<TRIPOS>BOND
    1     1     2    1
    2     1     3    1
    3     1     4    1
    4     4     5    1
    5     4     6    1
    6     4     7    1
    7     7     8    1
    8     7     9    1
    9     7    10    1
   10    10    11    1
   11    10    12    1
   12    10    13    1
   13    13    14    1
   14    13    15    1
   15    13    16    1
   16    16    17    1
   17    16    18    1
   18    16    19    1
   19    19    20    1
   20    19    21    1
   21    19    22    1
   22     1    23    1
   23    23    24    1
   24    23    25    1
   25    23    26    1
@<TRIPOS>SUBSTRUCTURE
       1 MOL1            1 RESIDUE      1      MOL     
@<SCITEGIC>MOL_PROPERTY
VM2 Rank
SciTegic.value.IntegerValue
161

@<SCITEGIC>MOL_PROPERTY
Conf_Id
SciTegic.value.IntegerValue
1103

@<SCITEGIC>MOL_PROPERTY
Probability
SciTegic.value.DoubleValue
0.01

@<SCITEGIC>MOL_PROPERTY
Sum Probability
SciTegic.value.DoubleValue
99.78

@<SCITEGIC>MOL_PROPERTY
Delta G
SciTegic.value.DoubleValue
3.848

@<SCITEGIC>MOL_PROPERTY
G
SciTegic.value.DoubleValue
79.315

@<SCITEGIC>MOL_PROPERTY
E
SciTegic.value.DoubleValue
46.924

@<SCITEGIC>MOL_PROPERTY
-TS
SciTegic.value.DoubleValue
32.391

@<SCITEGIC>MOL_PROPERTY
U+W
SciTegic.value.DoubleValue
25.462

@<SCITEGIC>MOL_PROPERTY
U
SciTegic.value.DoubleValue
75.175

@<SCITEGIC>MOL_PROPERTY
W
SciTegic.value.DoubleValue
-49.713

@<SCITEGIC>MOL_PROPERTY
W(PB)
SciTegic.value.DoubleValue
-51.954

@<SCITEGIC>MOL_PROPERTY
W(SA)
SciTegic.value.DoubleValue
2.241

@<SCITEGIC>MOL_PROPERTY
Valence
SciTegic.value.DoubleValue
4.303

@<SCITEGIC>MOL_PROPERTY
Coulomb
SciTegic.value.DoubleValue
70.504

@<SCITEGIC>MOL_PROPERTY
VdW
SciTegic.value.DoubleValue
0.368

@<SCITEGIC>MOL_PROPERTY
VdW6
SciTegic.value.DoubleValue
-8.223

@<SCITEGIC>MOL_PROPERTY
VdW12
SciTegic.value.DoubleValue
8.590

@<SCITEGIC>MOL_PROPERTY
Bond
SciTegic.value.DoubleValue
0.267

@<SCITEGIC>MOL_PROPERTY
Angle
SciTegic.value.DoubleValue
1.486

@<SCITEGIC>MOL_PROPERTY
Pdih
SciTegic.value.DoubleValue
2.551

@<SCITEGIC>MOL_PROPERTY
Idih
SciTegic.value.DoubleValue
0.000

@<SCITEGIC>MOL_PROPERTY
Tether
SciTegic.value.DoubleValue
0.000

@<TRIPOS>MOLECULE
guest-s12_vm2.mol2 : vm2 ligand conformer 162
          26          25           1
SMALL
USER_CHARGES
 
@<TRIPOS>ATOM
       1    N1      19.361718   19.268353   25.684131 N.4        1 MOL1        -0.4857
       2    H1      18.450339   18.886103   25.387757 H          1 MOL1         0.3650
       3    H2      19.368072   20.248375   25.363598 H          1 MOL1         0.3650
       4    C1      20.489826   18.498235   25.025287 C.3        1 MOL1         0.0209
       5    H3      20.444669   17.469191   25.390846 H          1 MOL1         0.0967
       6    H4      21.434981   18.936480   25.355513 H          1 MOL1         0.0967
       7    C2      20.428893   18.497079   23.485166 C.3        1 MOL1        -0.1378
       8    H5      21.228001   17.846504   23.105954 H          1 MOL1         0.0993
       9    H6      19.476743   18.054998   23.166566 H          1 MOL1         0.0993
      10    C3      20.588522   19.913870   22.882635 C.3        1 MOL1        -0.1338
      11    H7      21.464547   20.397016   23.337468 H          1 MOL1         0.0993
      12    H8      19.722282   20.532646   23.152515 H          1 MOL1         0.0993
      13    C4      20.767744   19.936705   21.342443 C.3        1 MOL1        -0.1338
      14    H9      20.925776   20.982551   21.044525 H          1 MOL1         0.0993
      15    H10     21.688458   19.407673   21.060267 H          1 MOL1         0.0993
      16    C5      19.562853   19.384108   20.537611 C.3        1 MOL1        -0.1313
      17    H11     19.472343   19.959622   19.605625 H          1 MOL1         0.0993
      18    H12     18.626372   19.552005   21.087519 H          1 MOL1         0.0993
      19    C6      19.705336   17.890573   20.161361 C.3        1 MOL1        -0.2328
      20    H13     20.605615   17.723070   19.556000 H          1 MOL1         0.1004
      21    H14     18.841521   17.559971   19.570234 H          1 MOL1         0.1004
      22    H15     19.768044   17.245539   21.044371 H          1 MOL1         0.1004
      23    C7      19.503109   19.201077   27.198367 C.3        1 MOL1        -0.0781
      24    H16     18.685644   19.759646   27.659742 H          1 MOL1         0.0978
      25    H17     19.462267   18.157091   27.516731 H          1 MOL1         0.0978
      26    H18     20.460097   19.639639   27.489523 H          1 MOL1         0.0978
@<TRIPOS>BOND
    1     1     2    1
    2     1     3    1
    3     1     4    1
    4     4     5    1
    5     4     6    1
    6     4     7    1
    7     7     8    1
    8     7     9    1
    9     7    10    1
   10    10    11    1
   11    10    12    1
   12    10    13    1
   13    13    14    1
   14    13    15    1
   15    13    16    1
   16    16    17    1
   17    16    18    1
   18    16    19    1
   19    19    20    1
   20    19    21    1
   21    19    22    1
   22     1    23    1
   23    23    24    1
   24    23    25    1
   25    23    26    1
@<TRIPOS>SUBSTRUCTURE
       1 MOL1            1 RESIDUE      1      MOL     
@<SCITEGIC>MOL_PROPERTY
VM2 Rank
SciTegic.value.IntegerValue
162

@<SCITEGIC>MOL_PROPERTY
Conf_Id
SciTegic.value.IntegerValue
228

@<SCITEGIC>MOL_PROPERTY
Probability
SciTegic.value.DoubleValue
0.01

@<SCITEGIC>MOL_PROPERTY
Sum Probability
SciTegic.value.DoubleValue
99.79

@<SCITEGIC>MOL_PROPERTY
Delta G
SciTegic.value.DoubleValue
3.876

@<SCITEGIC>MOL_PROPERTY
G
SciTegic.value.DoubleValue
79.343

@<SCITEGIC>MOL_PROPERTY
E
SciTegic.value.DoubleValue
46.757

@<SCITEGIC>MOL_PROPERTY
-TS
SciTegic.value.DoubleValue
32.585

@<SCITEGIC>MOL_PROPERTY
U+W
SciTegic.value.DoubleValue
25.295

@<SCITEGIC>MOL_PROPERTY
U
SciTegic.value.DoubleValue
74.609

@<SCITEGIC>MOL_PROPERTY
W
SciTegic.value.DoubleValue
-49.313

@<SCITEGIC>MOL_PROPERTY
W(PB)
SciTegic.value.DoubleValue
-51.565

@<SCITEGIC>MOL_PROPERTY
W(SA)
SciTegic.value.DoubleValue
2.252

@<SCITEGIC>MOL_PROPERTY
Valence
SciTegic.value.DoubleValue
4.823

@<SCITEGIC>MOL_PROPERTY
Coulomb
SciTegic.value.DoubleValue
69.470

@<SCITEGIC>MOL_PROPERTY
VdW
SciTegic.value.DoubleValue
0.315

@<SCITEGIC>MOL_PROPERTY
VdW6
SciTegic.value.DoubleValue
-7.375

@<SCITEGIC>MOL_PROPERTY
VdW12
SciTegic.value.DoubleValue
7.690

@<SCITEGIC>MOL_PROPERTY
Bond
SciTegic.value.DoubleValue
0.227

@<SCITEGIC>MOL_PROPERTY
Angle
SciTegic.value.DoubleValue
1.209

@<SCITEGIC>MOL_PROPERTY
Pdih
SciTegic.value.DoubleValue
3.386

@<SCITEGIC>MOL_PROPERTY
Idih
SciTegic.value.DoubleValue
0.000

@<SCITEGIC>MOL_PROPERTY
Tether
SciTegic.value.DoubleValue
0.000

@<TRIPOS>MOLECULE
guest-s12_vm2.mol2 : vm2 ligand conformer 163
          26          25           1
SMALL
USER_CHARGES
 
@<TRIPOS>ATOM
       1    N1      19.706838   18.742141   25.880507 N.4        1 MOL1        -0.4857
       2    H1      19.741958   17.713266   25.810945 H          1 MOL1         0.3650
       3    H2      18.754283   19.006354   25.587504 H          1 MOL1         0.3650
       4    C1      20.730474   19.363164   24.949496 C.3        1 MOL1         0.0209
       5    H3      21.719774   19.057018   25.299025 H          1 MOL1         0.0967
       6    H4      20.657178   20.449632   25.042543 H          1 MOL1         0.0967
       7    C2      20.563913   18.956260   23.471960 C.3        1 MOL1        -0.1378
       8    H5      21.420897   19.356158   22.916324 H          1 MOL1         0.0993
       9    H6      20.607501   17.862582   23.384755 H          1 MOL1         0.0993
      10    C3      19.251573   19.490741   22.848081 C.3        1 MOL1        -0.1338
      11    H7      19.258768   20.589335   22.871611 H          1 MOL1         0.0993
      12    H8      18.398962   19.178230   23.465037 H          1 MOL1         0.0993
      13    C4      18.990778   19.009144   21.397096 C.3        1 MOL1        -0.1338
      14    H9      18.873469   17.916864   21.376941 H          1 MOL1         0.0993
      15    H10     18.018905   19.415553   21.084316 H          1 MOL1         0.0993
      16    C5      20.054720   19.453560   20.360117 C.3        1 MOL1        -0.1313
      17    H11     20.517198   20.401471   20.668655 H          1 MOL1         0.0993
      18    H12     19.548700   19.661634   19.406879 H          1 MOL1         0.0993
      19    C6      21.141353   18.384319   20.098183 C.3        1 MOL1        -0.2328
      20    H13     21.857568   18.740955   19.346681 H          1 MOL1         0.1004
      21    H14     20.694318   17.456955   19.717129 H          1 MOL1         0.1004
      22    H15     21.706161   18.138134   21.003956 H          1 MOL1         0.1004
      23    C7      19.968351   19.190670   27.311560 C.3        1 MOL1        -0.0781
      24    H16     19.894362   20.279018   27.365995 H          1 MOL1         0.0978
      25    H17     19.224989   18.736875   27.970803 H          1 MOL1         0.0978
      26    H18     20.969534   18.872359   27.610295 H          1 MOL1         0.0978
@<TRIPOS>BOND
    1     1     2    1
    2     1     3    1
    3     1     4    1
    4     4     5    1
    5     4     6    1
    6     4     7    1
    7     7     8    1
    8     7     9    1
    9     7    10    1
   10    10    11    1
   11    10    12    1
   12    10    13    1
   13    13    14    1
   14    13    15    1
   15    13    16    1
   16    16    17    1
   17    16    18    1
   18    16    19    1
   19    19    20    1
   20    19    21    1
   21    19    22    1
   22     1    23    1
   23    23    24    1
   24    23    25    1
   25    23    26    1
@<TRIPOS>SUBSTRUCTURE
       1 MOL1            1 RESIDUE      1      MOL     
@<SCITEGIC>MOL_PROPERTY
VM2 Rank
SciTegic.value.IntegerValue
163

@<SCITEGIC>MOL_PROPERTY
Conf_Id
SciTegic.value.IntegerValue
73

@<SCITEGIC>MOL_PROPERTY
Probability
SciTegic.value.DoubleValue
0.01

@<SCITEGIC>MOL_PROPERTY
Sum Probability
SciTegic.value.DoubleValue
99.80

@<SCITEGIC>MOL_PROPERTY
Delta G
SciTegic.value.DoubleValue
3.877

@<SCITEGIC>MOL_PROPERTY
G
SciTegic.value.DoubleValue
79.344

@<SCITEGIC>MOL_PROPERTY
E
SciTegic.value.DoubleValue
46.765

@<SCITEGIC>MOL_PROPERTY
-TS
SciTegic.value.DoubleValue
32.579

@<SCITEGIC>MOL_PROPERTY
U+W
SciTegic.value.DoubleValue
25.303

@<SCITEGIC>MOL_PROPERTY
U
SciTegic.value.DoubleValue
74.594

@<SCITEGIC>MOL_PROPERTY
W
SciTegic.value.DoubleValue
-49.291

@<SCITEGIC>MOL_PROPERTY
W(PB)
SciTegic.value.DoubleValue
-51.537

@<SCITEGIC>MOL_PROPERTY
W(SA)
SciTegic.value.DoubleValue
2.246

@<SCITEGIC>MOL_PROPERTY
Valence
SciTegic.value.DoubleValue
4.886

@<SCITEGIC>MOL_PROPERTY
Coulomb
SciTegic.value.DoubleValue
69.331

@<SCITEGIC>MOL_PROPERTY
VdW
SciTegic.value.DoubleValue
0.376

@<SCITEGIC>MOL_PROPERTY
VdW6
SciTegic.value.DoubleValue
-7.329

@<SCITEGIC>MOL_PROPERTY
VdW12
SciTegic.value.DoubleValue
7.706

@<SCITEGIC>MOL_PROPERTY
Bond
SciTegic.value.DoubleValue
0.232

@<SCITEGIC>MOL_PROPERTY
Angle
SciTegic.value.DoubleValue
1.251

@<SCITEGIC>MOL_PROPERTY
Pdih
SciTegic.value.DoubleValue
3.403

@<SCITEGIC>MOL_PROPERTY
Idih
SciTegic.value.DoubleValue
0.000

@<SCITEGIC>MOL_PROPERTY
Tether
SciTegic.value.DoubleValue
0.000

@<TRIPOS>MOLECULE
guest-s12_vm2.mol2 : vm2 ligand conformer 164
          26          25           1
SMALL
USER_CHARGES
 
@<TRIPOS>ATOM
       1    N1      20.272720   18.800109   25.900580 N.4        1 MOL1        -0.4857
       2    H1      21.170359   19.253458   25.673117 H          1 MOL1         0.3650
       3    H2      20.451204   17.785887   25.836115 H          1 MOL1         0.3650
       4    C1      19.212485   19.208107   24.895727 C.3        1 MOL1         0.0209
       5    H3      19.058097   20.286293   24.985830 H          1 MOL1         0.0967
       6    H4      18.283430   18.705951   25.177345 H          1 MOL1         0.0967
       7    C2      19.560844   18.853725   23.436446 C.3        1 MOL1        -0.1378
       8    H5      19.745065   17.774398   23.354253 H          1 MOL1         0.0993
       9    H6      18.681883   19.076415   22.819271 H          1 MOL1         0.0993
      10    C3      20.778767   19.646443   22.902226 C.3        1 MOL1        -0.1338
      11    H7      21.631540   19.507976   23.579610 H          1 MOL1         0.0993
      12    H8      20.548441   20.720797   22.917336 H          1 MOL1         0.0993
      13    C4      21.232357   19.237732   21.476562 C.3        1 MOL1        -0.1338
      14    H9      22.121838   19.833946   21.229804 H          1 MOL1         0.0993
      15    H10     21.568560   18.191693   21.472450 H          1 MOL1         0.0993
      16    C5      20.176037   19.466004   20.364410 C.3        1 MOL1        -0.1313
      17    H11     20.695275   19.778703   19.447554 H          1 MOL1         0.0993
      18    H12     19.511476   20.298958   20.633042 H          1 MOL1         0.0993
      19    C6      19.348379   18.201571   20.034494 C.3        1 MOL1        -0.2328
      20    H13     18.629447   18.411926   19.232125 H          1 MOL1         0.1004
      21    H14     18.782724   17.840031   20.900153 H          1 MOL1         0.1004
      22    H15     19.998788   17.386154   19.692281 H          1 MOL1         0.1004
      23    C7      19.826411   19.176309   27.306554 C.3        1 MOL1        -0.0781
      24    H16     19.674889   20.256731   27.358210 H          1 MOL1         0.0978
      25    H17     18.891831   18.660073   27.536757 H          1 MOL1         0.0978
      26    H18     20.598146   18.877458   28.019459 H          1 MOL1         0.0978
@<TRIPOS>BOND
    1     1     2    1
    2     1     3    1
    3     1     4    1
    4     4     5    1
    5     4     6    1
    6     4     7    1
    7     7     8    1
    8     7     9    1
    9     7    10    1
   10    10    11    1
   11    10    12    1
   12    10    13    1
   13    13    14    1
   14    13    15    1
   15    13    16    1
   16    16    17    1
   17    16    18    1
   18    16    19    1
   19    19    20    1
   20    19    21    1
   21    19    22    1
   22     1    23    1
   23    23    24    1
   24    23    25    1
   25    23    26    1
@<TRIPOS>SUBSTRUCTURE
       1 MOL1            1 RESIDUE      1      MOL     
@<SCITEGIC>MOL_PROPERTY
VM2 Rank
SciTegic.value.IntegerValue
164

@<SCITEGIC>MOL_PROPERTY
Conf_Id
SciTegic.value.IntegerValue
109

@<SCITEGIC>MOL_PROPERTY
Probability
SciTegic.value.DoubleValue
0.01

@<SCITEGIC>MOL_PROPERTY
Sum Probability
SciTegic.value.DoubleValue
99.81

@<SCITEGIC>MOL_PROPERTY
Delta G
SciTegic.value.DoubleValue
3.884

@<SCITEGIC>MOL_PROPERTY
G
SciTegic.value.DoubleValue
79.350

@<SCITEGIC>MOL_PROPERTY
E
SciTegic.value.DoubleValue
46.771

@<SCITEGIC>MOL_PROPERTY
-TS
SciTegic.value.DoubleValue
32.579

@<SCITEGIC>MOL_PROPERTY
U+W
SciTegic.value.DoubleValue
25.309

@<SCITEGIC>MOL_PROPERTY
U
SciTegic.value.DoubleValue
74.594

@<SCITEGIC>MOL_PROPERTY
W
SciTegic.value.DoubleValue
-49.284

@<SCITEGIC>MOL_PROPERTY
W(PB)
SciTegic.value.DoubleValue
-51.538

@<SCITEGIC>MOL_PROPERTY
W(SA)
SciTegic.value.DoubleValue
2.253

@<SCITEGIC>MOL_PROPERTY
Valence
SciTegic.value.DoubleValue
4.886

@<SCITEGIC>MOL_PROPERTY
Coulomb
SciTegic.value.DoubleValue
69.332

@<SCITEGIC>MOL_PROPERTY
VdW
SciTegic.value.DoubleValue
0.376

@<SCITEGIC>MOL_PROPERTY
VdW6
SciTegic.value.DoubleValue
-7.329

@<SCITEGIC>MOL_PROPERTY
VdW12
SciTegic.value.DoubleValue
7.706

@<SCITEGIC>MOL_PROPERTY
Bond
SciTegic.value.DoubleValue
0.232

@<SCITEGIC>MOL_PROPERTY
Angle
SciTegic.value.DoubleValue
1.250

@<SCITEGIC>MOL_PROPERTY
Pdih
SciTegic.value.DoubleValue
3.403

@<SCITEGIC>MOL_PROPERTY
Idih
SciTegic.value.DoubleValue
0.000

@<SCITEGIC>MOL_PROPERTY
Tether
SciTegic.value.DoubleValue
0.000

@<TRIPOS>MOLECULE
guest-s12_vm2.mol2 : vm2 ligand conformer 165
          26          25           1
SMALL
USER_CHARGES
 
@<TRIPOS>ATOM
       1    N1      19.346787   18.856987   25.448733 N.4        1 MOL1        -0.4857
       2    H1      19.212265   17.854790   25.654481 H          1 MOL1         0.3650
       3    H2      18.771436   19.046705   24.615799 H          1 MOL1         0.3650
       4    C1      20.807907   19.135243   25.150948 C.3        1 MOL1         0.0209
       5    H3      21.370172   18.866727   26.048907 H          1 MOL1         0.0967
       6    H4      20.929816   20.208120   24.982396 H          1 MOL1         0.0967
       7    C2      21.373311   18.348982   23.949384 C.3        1 MOL1        -0.1378
       8    H5      22.459980   18.267619   24.084955 H          1 MOL1         0.0993
       9    H6      20.991444   17.319464   23.959345 H          1 MOL1         0.0993
      10    C3      21.115581   19.007601   22.569615 C.3        1 MOL1        -0.1338
      11    H7      21.645200   18.414028   21.813762 H          1 MOL1         0.0993
      12    H8      21.574025   20.005988   22.551067 H          1 MOL1         0.0993
      13    C4      19.619229   19.121451   22.182901 C.3        1 MOL1        -0.1338
      14    H9      19.133158   18.140104   22.272040 H          1 MOL1         0.0993
      15    H10     19.114074   19.794053   22.886856 H          1 MOL1         0.0993
      16    C5      19.392052   19.681135   20.757260 C.3        1 MOL1        -0.1313
      17    H11     19.892040   20.654471   20.654721 H          1 MOL1         0.0993
      18    H12     18.318240   19.872796   20.622554 H          1 MOL1         0.0993
      19    C6      19.867410   18.729298   19.635513 C.3        1 MOL1        -0.2328
      20    H13     20.957052   18.604852   19.643424 H          1 MOL1         0.1004
      21    H14     19.590062   19.128249   18.651210 H          1 MOL1         0.1004
      22    H15     19.406802   17.738040   19.736638 H          1 MOL1         0.1004
      23    C7      18.885724   19.709301   26.622646 C.3        1 MOL1        -0.0781
      24    H16     19.008121   20.764843   26.370104 H          1 MOL1         0.0978
      25    H17     17.833730   19.498369   26.827412 H          1 MOL1         0.0978
      26    H18     19.488176   19.466672   27.500775 H          1 MOL1         0.0978
@<TRIPOS>BOND
    1     1     2    1
    2     1     3    1
    3     1     4    1
    4     4     5    1
    5     4     6    1
    6     4     7    1
    7     7     8    1
    8     7     9    1
    9     7    10    1
   10    10    11    1
   11    10    12    1
   12    10    13    1
   13    13    14    1
   14    13    15    1
   15    13    16    1
   16    16    17    1
   17    16    18    1
   18    16    19    1
   19    19    20    1
   20    19    21    1
   21    19    22    1
   22     1    23    1
   23    23    24    1
   24    23    25    1
   25    23    26    1
@<TRIPOS>SUBSTRUCTURE
       1 MOL1            1 RESIDUE      1      MOL     
@<SCITEGIC>MOL_PROPERTY
VM2 Rank
SciTegic.value.IntegerValue
165

@<SCITEGIC>MOL_PROPERTY
Conf_Id
SciTegic.value.IntegerValue
1253

@<SCITEGIC>MOL_PROPERTY
Probability
SciTegic.value.DoubleValue
0.01

@<SCITEGIC>MOL_PROPERTY
Sum Probability
SciTegic.value.DoubleValue
99.82

@<SCITEGIC>MOL_PROPERTY
Delta G
SciTegic.value.DoubleValue
3.890

@<SCITEGIC>MOL_PROPERTY
G
SciTegic.value.DoubleValue
79.356

@<SCITEGIC>MOL_PROPERTY
E
SciTegic.value.DoubleValue
46.982

@<SCITEGIC>MOL_PROPERTY
-TS
SciTegic.value.DoubleValue
32.375

@<SCITEGIC>MOL_PROPERTY
U+W
SciTegic.value.DoubleValue
25.520

@<SCITEGIC>MOL_PROPERTY
U
SciTegic.value.DoubleValue
74.712

@<SCITEGIC>MOL_PROPERTY
W
SciTegic.value.DoubleValue
-49.192

@<SCITEGIC>MOL_PROPERTY
W(PB)
SciTegic.value.DoubleValue
-51.483

@<SCITEGIC>MOL_PROPERTY
W(SA)
SciTegic.value.DoubleValue
2.291

@<SCITEGIC>MOL_PROPERTY
Valence
SciTegic.value.DoubleValue
4.001

@<SCITEGIC>MOL_PROPERTY
Coulomb
SciTegic.value.DoubleValue
70.536

@<SCITEGIC>MOL_PROPERTY
VdW
SciTegic.value.DoubleValue
0.175

@<SCITEGIC>MOL_PROPERTY
VdW6
SciTegic.value.DoubleValue
-7.476

@<SCITEGIC>MOL_PROPERTY
VdW12
SciTegic.value.DoubleValue
7.651

@<SCITEGIC>MOL_PROPERTY
Bond
SciTegic.value.DoubleValue
0.220

@<SCITEGIC>MOL_PROPERTY
Angle
SciTegic.value.DoubleValue
1.251

@<SCITEGIC>MOL_PROPERTY
Pdih
SciTegic.value.DoubleValue
2.530

@<SCITEGIC>MOL_PROPERTY
Idih
SciTegic.value.DoubleValue
0.000

@<SCITEGIC>MOL_PROPERTY
Tether
SciTegic.value.DoubleValue
0.000

@<TRIPOS>MOLECULE
guest-s12_vm2.mol2 : vm2 ligand conformer 166
          26          25           1
SMALL
USER_CHARGES
 
@<TRIPOS>ATOM
       1    N1      19.787745   18.430365   25.890314 N.4        1 MOL1        -0.4857
       2    H1      20.656065   18.064326   26.310820 H          1 MOL1         0.3650
       3    H2      19.273753   17.600787   25.555254 H          1 MOL1         0.3650
       4    C1      20.115242   19.347280   24.729036 C.3        1 MOL1         0.0209
       5    H3      20.666769   20.204157   25.123966 H          1 MOL1         0.0967
       6    H4      19.171129   19.707144   24.313990 H          1 MOL1         0.0967
       7    C2      20.945019   18.660716   23.626714 C.3        1 MOL1        -0.1378
       8    H5      21.869449   18.269714   24.072026 H          1 MOL1         0.0993
       9    H6      20.396115   17.793828   23.242895 H          1 MOL1         0.0993
      10    C3      21.319947   19.626391   22.473657 C.3        1 MOL1        -0.1338
      11    H7      22.045947   19.141953   21.806325 H          1 MOL1         0.0993
      12    H8      21.847736   20.486415   22.908949 H          1 MOL1         0.0993
      13    C4      20.117107   20.151573   21.642447 C.3        1 MOL1        -0.1338
      14    H9      19.218897   20.244536   22.266098 H          1 MOL1         0.0993
      15    H10     20.352543   21.173771   21.315132 H          1 MOL1         0.0993
      16    C5      19.792985   19.323454   20.372650 C.3        1 MOL1        -0.1313
      17    H11     20.661621   19.323812   19.699409 H          1 MOL1         0.0993
      18    H12     18.985143   19.829165   19.825365 H          1 MOL1         0.0993
      19    C6      19.362330   17.867227   20.653272 C.3        1 MOL1        -0.2328
      20    H13     19.007075   17.388507   19.731588 H          1 MOL1         0.1004
      21    H14     18.547112   17.828556   21.387295 H          1 MOL1         0.1004
      22    H15     20.201486   17.268926   21.028277 H          1 MOL1         0.1004
      23    C7      18.967625   19.182994   26.928910 C.3        1 MOL1        -0.0781
      24    H16     18.039766   19.531619   26.470122 H          1 MOL1         0.0978
      25    H17     18.738836   18.511751   27.759707 H          1 MOL1         0.0978
      26    H18     19.544357   20.036381   27.292321 H          1 MOL1         0.0978
@<TRIPOS>BOND
    1     1     2    1
    2     1     3    1
    3     1     4    1
    4     4     5    1
    5     4     6    1
    6     4     7    1
    7     7     8    1
    8     7     9    1
    9     7    10    1
   10    10    11    1
   11    10    12    1
   12    10    13    1
   13    13    14    1
   14    13    15    1
   15    13    16    1
   16    16    17    1
   17    16    18    1
   18    16    19    1
   19    19    20    1
   20    19    21    1
   21    19    22    1
   22     1    23    1
   23    23    24    1
   24    23    25    1
   25    23    26    1
@<TRIPOS>SUBSTRUCTURE
       1 MOL1            1 RESIDUE      1      MOL     
@<SCITEGIC>MOL_PROPERTY
VM2 Rank
SciTegic.value.IntegerValue
166

@<SCITEGIC>MOL_PROPERTY
Conf_Id
SciTegic.value.IntegerValue
514

@<SCITEGIC>MOL_PROPERTY
Probability
SciTegic.value.DoubleValue
0.01

@<SCITEGIC>MOL_PROPERTY
Sum Probability
SciTegic.value.DoubleValue
99.83

@<SCITEGIC>MOL_PROPERTY
Delta G
SciTegic.value.DoubleValue
3.905

@<SCITEGIC>MOL_PROPERTY
G
SciTegic.value.DoubleValue
79.372

@<SCITEGIC>MOL_PROPERTY
E
SciTegic.value.DoubleValue
46.848

@<SCITEGIC>MOL_PROPERTY
-TS
SciTegic.value.DoubleValue
32.524

@<SCITEGIC>MOL_PROPERTY
U+W
SciTegic.value.DoubleValue
25.386

@<SCITEGIC>MOL_PROPERTY
U
SciTegic.value.DoubleValue
74.853

@<SCITEGIC>MOL_PROPERTY
W
SciTegic.value.DoubleValue
-49.467

@<SCITEGIC>MOL_PROPERTY
W(PB)
SciTegic.value.DoubleValue
-51.720

@<SCITEGIC>MOL_PROPERTY
W(SA)
SciTegic.value.DoubleValue
2.254

@<SCITEGIC>MOL_PROPERTY
Valence
SciTegic.value.DoubleValue
5.100

@<SCITEGIC>MOL_PROPERTY
Coulomb
SciTegic.value.DoubleValue
69.478

@<SCITEGIC>MOL_PROPERTY
VdW
SciTegic.value.DoubleValue
0.275

@<SCITEGIC>MOL_PROPERTY
VdW6
SciTegic.value.DoubleValue
-7.403

@<SCITEGIC>MOL_PROPERTY
VdW12
SciTegic.value.DoubleValue
7.678

@<SCITEGIC>MOL_PROPERTY
Bond
SciTegic.value.DoubleValue
0.247

@<SCITEGIC>MOL_PROPERTY
Angle
SciTegic.value.DoubleValue
1.394

@<SCITEGIC>MOL_PROPERTY
Pdih
SciTegic.value.DoubleValue
3.458

@<SCITEGIC>MOL_PROPERTY
Idih
SciTegic.value.DoubleValue
0.000

@<SCITEGIC>MOL_PROPERTY
Tether
SciTegic.value.DoubleValue
0.000

@<TRIPOS>MOLECULE
guest-s12_vm2.mol2 : vm2 ligand conformer 167
          26          25           1
SMALL
USER_CHARGES
 
@<TRIPOS>ATOM
       1    N1      20.255936   18.478158   25.906799 N.4        1 MOL1        -0.4857
       2    H1      20.948942   17.771826   25.614404 H          1 MOL1         0.3650
       3    H2      19.452143   17.941380   26.268147 H          1 MOL1         0.3650
       4    C1      19.832120   19.318402   24.718975 C.3        1 MOL1         0.0209
       5    H3      20.710810   19.864443   24.368466 H          1 MOL1         0.0967
       6    H4      19.092694   20.043416   25.068254 H          1 MOL1         0.0967
       7    C2      19.237261   18.486387   23.566193 C.3        1 MOL1        -0.1378
       8    H5      19.975338   17.750890   23.227979 H          1 MOL1         0.0993
       9    H6      18.381910   17.913672   23.948459 H          1 MOL1         0.0993
      10    C3      18.756832   19.364716   22.382822 C.3        1 MOL1        -0.1338
      11    H7      18.037147   20.097374   22.773911 H          1 MOL1         0.0993
      12    H8      18.192120   18.748485   21.669767 H          1 MOL1         0.0993
      13    C4      19.884104   20.127806   21.634156 C.3        1 MOL1        -0.1338
      14    H9      19.470639   21.083672   21.283697 H          1 MOL1         0.0993
      15    H10     20.699048   20.395860   22.318538 H          1 MOL1         0.0993
      16    C5      20.457001   19.391166   20.396264 C.3        1 MOL1        -0.1313
      17    H11     21.182386   20.053462   19.903260 H          1 MOL1         0.0993
      18    H12     19.655570   19.220802   19.663825 H          1 MOL1         0.0993
      19    C6      21.152154   18.050002   20.716966 C.3        1 MOL1        -0.2328
      20    H13     21.660550   17.659445   19.825967 H          1 MOL1         0.1004
      21    H14     20.426948   17.291886   21.036507 H          1 MOL1         0.1004
      22    H15     21.904827   18.171603   21.506626 H          1 MOL1         0.1004
      23    C7      20.832593   19.373363   26.994826 C.3        1 MOL1        -0.0781
      24    H16     20.071506   20.090139   27.310950 H          1 MOL1         0.0978
      25    H17     21.133511   18.756175   27.844334 H          1 MOL1         0.0978
      26    H18     21.700738   19.905383   26.599576 H          1 MOL1         0.0978
@<TRIPOS>BOND
    1     1     2    1
    2     1     3    1
    3     1     4    1
    4     4     5    1
    5     4     6    1
    6     4     7    1
    7     7     8    1
    8     7     9    1
    9     7    10    1
   10    10    11    1
   11    10    12    1
   12    10    13    1
   13    13    14    1
   14    13    15    1
   15    13    16    1
   16    16    17    1
   17    16    18    1
   18    16    19    1
   19    19    20    1
   20    19    21    1
   21    19    22    1
   22     1    23    1
   23    23    24    1
   24    23    25    1
   25    23    26    1
@<TRIPOS>SUBSTRUCTURE
       1 MOL1            1 RESIDUE      1      MOL     
@<SCITEGIC>MOL_PROPERTY
VM2 Rank
SciTegic.value.IntegerValue
167

@<SCITEGIC>MOL_PROPERTY
Conf_Id
SciTegic.value.IntegerValue
1495

@<SCITEGIC>MOL_PROPERTY
Probability
SciTegic.value.DoubleValue
0.01

@<SCITEGIC>MOL_PROPERTY
Sum Probability
SciTegic.value.DoubleValue
99.84

@<SCITEGIC>MOL_PROPERTY
Delta G
SciTegic.value.DoubleValue
3.916

@<SCITEGIC>MOL_PROPERTY
G
SciTegic.value.DoubleValue
79.383

@<SCITEGIC>MOL_PROPERTY
E
SciTegic.value.DoubleValue
46.860

@<SCITEGIC>MOL_PROPERTY
-TS
SciTegic.value.DoubleValue
32.523

@<SCITEGIC>MOL_PROPERTY
U+W
SciTegic.value.DoubleValue
25.398

@<SCITEGIC>MOL_PROPERTY
U
SciTegic.value.DoubleValue
74.853

@<SCITEGIC>MOL_PROPERTY
W
SciTegic.value.DoubleValue
-49.455

@<SCITEGIC>MOL_PROPERTY
W(PB)
SciTegic.value.DoubleValue
-51.723

@<SCITEGIC>MOL_PROPERTY
W(SA)
SciTegic.value.DoubleValue
2.268

@<SCITEGIC>MOL_PROPERTY
Valence
SciTegic.value.DoubleValue
5.100

@<SCITEGIC>MOL_PROPERTY
Coulomb
SciTegic.value.DoubleValue
69.479

@<SCITEGIC>MOL_PROPERTY
VdW
SciTegic.value.DoubleValue
0.275

@<SCITEGIC>MOL_PROPERTY
VdW6
SciTegic.value.DoubleValue
-7.404

@<SCITEGIC>MOL_PROPERTY
VdW12
SciTegic.value.DoubleValue
7.679

@<SCITEGIC>MOL_PROPERTY
Bond
SciTegic.value.DoubleValue
0.247

@<SCITEGIC>MOL_PROPERTY
Angle
SciTegic.value.DoubleValue
1.395

@<SCITEGIC>MOL_PROPERTY
Pdih
SciTegic.value.DoubleValue
3.458

@<SCITEGIC>MOL_PROPERTY
Idih
SciTegic.value.DoubleValue
0.000

@<SCITEGIC>MOL_PROPERTY
Tether
SciTegic.value.DoubleValue
0.000

@<TRIPOS>MOLECULE
guest-s12_vm2.mol2 : vm2 ligand conformer 168
          26          25           1
SMALL
USER_CHARGES
 
@<TRIPOS>ATOM
       1    N1      20.206085   19.304021   25.967558 N.4        1 MOL1        -0.4857
       2    H1      21.005887   19.872199   25.650954 H          1 MOL1         0.3650
       3    H2      20.425841   19.052392   26.944388 H          1 MOL1         0.3650
       4    C1      20.098669   18.040256   25.128331 C.3        1 MOL1         0.0209
       5    H3      19.234901   17.475884   25.488702 H          1 MOL1         0.0967
       6    H4      20.993954   17.443711   25.321206 H          1 MOL1         0.0967
       7    C2      19.967543   18.270359   23.606933 C.3        1 MOL1        -0.1378
       8    H5      19.876641   17.292903   23.115317 H          1 MOL1         0.0993
       9    H6      19.038163   18.815075   23.402505 H          1 MOL1         0.0993
      10    C3      21.175366   19.035028   23.013807 C.3        1 MOL1        -0.1338
      11    H7      22.103069   18.554995   23.355097 H          1 MOL1         0.0993
      12    H8      21.195349   20.059353   23.409557 H          1 MOL1         0.0993
      13    C4      21.198415   19.089827   21.464268 C.3        1 MOL1        -0.1338
      14    H9      22.122121   19.605093   21.166334 H          1 MOL1         0.0993
      15    H10     21.280245   18.075308   21.050450 H          1 MOL1         0.0993
      16    C5      20.001493   19.837387   20.821274 C.3        1 MOL1        -0.1313
      17    H11     20.358551   20.361046   19.923340 H          1 MOL1         0.0993
      18    H12     19.630625   20.619246   21.498611 H          1 MOL1         0.0993
      19    C6      18.845881   18.900875   20.397000 C.3        1 MOL1        -0.2328
      20    H13     18.039145   19.476657   19.925250 H          1 MOL1         0.1004
      21    H14     18.414609   18.363814   21.248659 H          1 MOL1         0.1004
      22    H15     19.192267   18.156315   19.668530 H          1 MOL1         0.1004
      23    C7      18.914548   20.112249   25.917829 C.3        1 MOL1        -0.0781
      24    H16     19.018121   20.991064   26.558137 H          1 MOL1         0.0978
      25    H17     18.725219   20.427395   24.889722 H          1 MOL1         0.0978
      26    H18     18.089280   19.491785   26.273832 H          1 MOL1         0.0978
@<TRIPOS>BOND
    1     1     2    1
    2     1     3    1
    3     1     4    1
    4     4     5    1
    5     4     6    1
    6     4     7    1
    7     7     8    1
    8     7     9    1
    9     7    10    1
   10    10    11    1
   11    10    12    1
   12    10    13    1
   13    13    14    1
   14    13    15    1
   15    13    16    1
   16    16    17    1
   17    16    18    1
   18    16    19    1
   19    19    20    1
   20    19    21    1
   21    19    22    1
   22     1    23    1
   23    23    24    1
   24    23    25    1
   25    23    26    1
@<TRIPOS>SUBSTRUCTURE
       1 MOL1            1 RESIDUE      1      MOL     
@<SCITEGIC>MOL_PROPERTY
VM2 Rank
SciTegic.value.IntegerValue
168

@<SCITEGIC>MOL_PROPERTY
Conf_Id
SciTegic.value.IntegerValue
1102

@<SCITEGIC>MOL_PROPERTY
Probability
SciTegic.value.DoubleValue
0.01

@<SCITEGIC>MOL_PROPERTY
Sum Probability
SciTegic.value.DoubleValue
99.85

@<SCITEGIC>MOL_PROPERTY
Delta G
SciTegic.value.DoubleValue
3.933

@<SCITEGIC>MOL_PROPERTY
G
SciTegic.value.DoubleValue
79.400

@<SCITEGIC>MOL_PROPERTY
E
SciTegic.value.DoubleValue
46.583

@<SCITEGIC>MOL_PROPERTY
-TS
SciTegic.value.DoubleValue
32.817

@<SCITEGIC>MOL_PROPERTY
U+W
SciTegic.value.DoubleValue
25.121

@<SCITEGIC>MOL_PROPERTY
U
SciTegic.value.DoubleValue
74.888

@<SCITEGIC>MOL_PROPERTY
W
SciTegic.value.DoubleValue
-49.767

@<SCITEGIC>MOL_PROPERTY
W(PB)
SciTegic.value.DoubleValue
-51.981

@<SCITEGIC>MOL_PROPERTY
W(SA)
SciTegic.value.DoubleValue
2.214

@<SCITEGIC>MOL_PROPERTY
Valence
SciTegic.value.DoubleValue
5.066

@<SCITEGIC>MOL_PROPERTY
Coulomb
SciTegic.value.DoubleValue
69.354

@<SCITEGIC>MOL_PROPERTY
VdW
SciTegic.value.DoubleValue
0.468

@<SCITEGIC>MOL_PROPERTY
VdW6
SciTegic.value.DoubleValue
-8.349

@<SCITEGIC>MOL_PROPERTY
VdW12
SciTegic.value.DoubleValue
8.817

@<SCITEGIC>MOL_PROPERTY
Bond
SciTegic.value.DoubleValue
0.269

@<SCITEGIC>MOL_PROPERTY
Angle
SciTegic.value.DoubleValue
1.348

@<SCITEGIC>MOL_PROPERTY
Pdih
SciTegic.value.DoubleValue
3.450

@<SCITEGIC>MOL_PROPERTY
Idih
SciTegic.value.DoubleValue
0.000

@<SCITEGIC>MOL_PROPERTY
Tether
SciTegic.value.DoubleValue
0.000

@<TRIPOS>MOLECULE
guest-s12_vm2.mol2 : vm2 ligand conformer 169
          26          25           1
SMALL
USER_CHARGES
 
@<TRIPOS>ATOM
       1    N1      19.229785   19.071866   25.459428 N.4        1 MOL1        -0.4857
       2    H1      18.596947   18.335811   25.109930 H          1 MOL1         0.3650
       3    H2      18.940267   19.937096   24.979218 H          1 MOL1         0.3650
       4    C1      20.665994   18.736086   25.106677 C.3        1 MOL1         0.0209
       5    H3      20.927843   17.815031   25.633649 H          1 MOL1         0.0967
       6    H4      21.303422   19.538972   25.485475 H          1 MOL1         0.0967
       7    C2      20.910494   18.547973   23.596642 C.3        1 MOL1        -0.1378
       8    H5      21.943646   18.203895   23.455590 H          1 MOL1         0.0993
       9    H6      20.265451   17.744474   23.223979 H          1 MOL1         0.0993
      10    C3      20.695368   19.854899   22.790987 C.3        1 MOL1        -0.1338
      11    H7      21.365877   20.622176   23.202625 H          1 MOL1         0.0993
      12    H8      19.675498   20.237277   22.929195 H          1 MOL1         0.0993
      13    C4      20.996916   19.703143   21.276930 C.3        1 MOL1        -0.1338
      14    H9      21.429227   20.647586   20.918250 H          1 MOL1         0.0993
      15    H10     21.774052   18.943339   21.116128 H          1 MOL1         0.0993
      16    C5      19.759377   19.393989   20.395750 C.3        1 MOL1        -0.1313
      17    H11     20.077076   19.376739   19.343787 H          1 MOL1         0.0993
      18    H12     19.032790   20.214245   20.479602 H          1 MOL1         0.0993
      19    C6      19.061034   18.055997   20.723246 C.3        1 MOL1        -0.2328
      20    H13     18.572451   18.090896   21.704476 H          1 MOL1         0.1004
      21    H14     19.775970   17.223140   20.716277 H          1 MOL1         0.1004
      22    H15     18.284078   17.837269   19.979348 H          1 MOL1         0.1004
      23    C7      19.089031   19.226048   26.967339 C.3        1 MOL1        -0.0781
      24    H16     19.743908   20.030741   27.308718 H          1 MOL1         0.0978
      25    H17     18.051274   19.467886   27.207517 H          1 MOL1         0.0978
      26    H18     19.370960   18.288705   27.451934 H          1 MOL1         0.0978
@<TRIPOS>BOND
    1     1     2    1
    2     1     3    1
    3     1     4    1
    4     4     5    1
    5     4     6    1
    6     4     7    1
    7     7     8    1
    8     7     9    1
    9     7    10    1
   10    10    11    1
   11    10    12    1
   12    10    13    1
   13    13    14    1
   14    13    15    1
   15    13    16    1
   16    16    17    1
   17    16    18    1
   18    16    19    1
   19    19    20    1
   20    19    21    1
   21    19    22    1
   22     1    23    1
   23    23    24    1
   24    23    25    1
   25    23    26    1
@<TRIPOS>SUBSTRUCTURE
       1 MOL1            1 RESIDUE      1      MOL     
@<SCITEGIC>MOL_PROPERTY
VM2 Rank
SciTegic.value.IntegerValue
169

@<SCITEGIC>MOL_PROPERTY
Conf_Id
SciTegic.value.IntegerValue
984

@<SCITEGIC>MOL_PROPERTY
Probability
SciTegic.value.DoubleValue
0.01

@<SCITEGIC>MOL_PROPERTY
Sum Probability
SciTegic.value.DoubleValue
99.86

@<SCITEGIC>MOL_PROPERTY
Delta G
SciTegic.value.DoubleValue
3.950

@<SCITEGIC>MOL_PROPERTY
G
SciTegic.value.DoubleValue
79.417

@<SCITEGIC>MOL_PROPERTY
E
SciTegic.value.DoubleValue
46.833

@<SCITEGIC>MOL_PROPERTY
-TS
SciTegic.value.DoubleValue
32.584

@<SCITEGIC>MOL_PROPERTY
U+W
SciTegic.value.DoubleValue
25.371

@<SCITEGIC>MOL_PROPERTY
U
SciTegic.value.DoubleValue
74.907

@<SCITEGIC>MOL_PROPERTY
W
SciTegic.value.DoubleValue
-49.536

@<SCITEGIC>MOL_PROPERTY
W(PB)
SciTegic.value.DoubleValue
-51.747

@<SCITEGIC>MOL_PROPERTY
W(SA)
SciTegic.value.DoubleValue
2.211

@<SCITEGIC>MOL_PROPERTY
Valence
SciTegic.value.DoubleValue
4.797

@<SCITEGIC>MOL_PROPERTY
Coulomb
SciTegic.value.DoubleValue
69.863

@<SCITEGIC>MOL_PROPERTY
VdW
SciTegic.value.DoubleValue
0.247

@<SCITEGIC>MOL_PROPERTY
VdW6
SciTegic.value.DoubleValue
-7.454

@<SCITEGIC>MOL_PROPERTY
VdW12
SciTegic.value.DoubleValue
7.702

@<SCITEGIC>MOL_PROPERTY
Bond
SciTegic.value.DoubleValue
0.232

@<SCITEGIC>MOL_PROPERTY
Angle
SciTegic.value.DoubleValue
1.219

@<SCITEGIC>MOL_PROPERTY
Pdih
SciTegic.value.DoubleValue
3.346

@<SCITEGIC>MOL_PROPERTY
Idih
SciTegic.value.DoubleValue
0.000

@<SCITEGIC>MOL_PROPERTY
Tether
SciTegic.value.DoubleValue
0.000

@<TRIPOS>MOLECULE
guest-s12_vm2.mol2 : vm2 ligand conformer 170
          26          25           1
SMALL
USER_CHARGES
 
@<TRIPOS>ATOM
       1    N1      19.751717   19.632359   25.733515 N.4        1 MOL1        -0.4857
       2    H1      19.397699   19.692228   26.701438 H          1 MOL1         0.3650
       3    H2      19.141868   20.257762   25.186276 H          1 MOL1         0.3650
       4    C1      19.619955   18.202870   25.231396 C.3        1 MOL1         0.0209
       5    H3      18.594780   17.880065   25.429910 H          1 MOL1         0.0967
       6    H4      20.289998   17.579813   25.829158 H          1 MOL1         0.0967
       7    C2      19.928222   18.001055   23.731782 C.3        1 MOL1        -0.1378
       8    H5      20.972086   18.266373   23.533271 H          1 MOL1         0.0993
       9    H6      19.838830   16.930534   23.504974 H          1 MOL1         0.0993
      10    C3      18.967598   18.797381   22.811983 C.3        1 MOL1        -0.1338
      11    H7      19.017310   19.871787   23.032687 H          1 MOL1         0.0993
      12    H8      17.939186   18.486033   23.042249 H          1 MOL1         0.0993
      13    C4      19.224908   18.561704   21.300555 C.3        1 MOL1        -0.1338
      14    H9      19.624078   17.551810   21.133656 H          1 MOL1         0.0993
      15    H10     18.257009   18.585969   20.780876 H          1 MOL1         0.0993
      16    C5      20.141631   19.614775   20.626548 C.3        1 MOL1        -0.1313
      17    H11     19.678142   20.608449   20.701144 H          1 MOL1         0.0993
      18    H12     20.201514   19.387861   19.552880 H          1 MOL1         0.0993
      19    C6      21.574222   19.674225   21.200446 C.3        1 MOL1        -0.2328
      20    H13     21.577151   20.066655   22.224444 H          1 MOL1         0.1004
      21    H14     22.202629   20.339240   20.594039 H          1 MOL1         0.1004
      22    H15     22.041979   18.681249   21.203452 H          1 MOL1         0.1004
      23    C7      21.199746   20.105630   25.680775 C.3        1 MOL1        -0.0781
      24    H16     21.258613   21.120728   26.079730 H          1 MOL1         0.0978
      25    H17     21.817846   19.436307   26.283067 H          1 MOL1         0.0978
      26    H18     21.544762   20.097599   24.645085 H          1 MOL1         0.0978
@<TRIPOS>BOND
    1     1     2    1
    2     1     3    1
    3     1     4    1
    4     4     5    1
    5     4     6    1
    6     4     7    1
    7     7     8    1
    8     7     9    1
    9     7    10    1
   10    10    11    1
   11    10    12    1
   12    10    13    1
   13    13    14    1
   14    13    15    1
   15    13    16    1
   16    16    17    1
   17    16    18    1
   18    16    19    1
   19    19    20    1
   20    19    21    1
   21    19    22    1
   22     1    23    1
   23    23    24    1
   24    23    25    1
   25    23    26    1
@<TRIPOS>SUBSTRUCTURE
       1 MOL1            1 RESIDUE      1      MOL     
@<SCITEGIC>MOL_PROPERTY
VM2 Rank
SciTegic.value.IntegerValue
170

@<SCITEGIC>MOL_PROPERTY
Conf_Id
SciTegic.value.IntegerValue
862

@<SCITEGIC>MOL_PROPERTY
Probability
SciTegic.value.DoubleValue
0.01

@<SCITEGIC>MOL_PROPERTY
Sum Probability
SciTegic.value.DoubleValue
99.87

@<SCITEGIC>MOL_PROPERTY
Delta G
SciTegic.value.DoubleValue
3.959

@<SCITEGIC>MOL_PROPERTY
G
SciTegic.value.DoubleValue
79.426

@<SCITEGIC>MOL_PROPERTY
E
SciTegic.value.DoubleValue
46.533

@<SCITEGIC>MOL_PROPERTY
-TS
SciTegic.value.DoubleValue
32.892

@<SCITEGIC>MOL_PROPERTY
U+W
SciTegic.value.DoubleValue
25.071

@<SCITEGIC>MOL_PROPERTY
U
SciTegic.value.DoubleValue
75.103

@<SCITEGIC>MOL_PROPERTY
W
SciTegic.value.DoubleValue
-50.032

@<SCITEGIC>MOL_PROPERTY
W(PB)
SciTegic.value.DoubleValue
-52.209

@<SCITEGIC>MOL_PROPERTY
W(SA)
SciTegic.value.DoubleValue
2.177

@<SCITEGIC>MOL_PROPERTY
Valence
SciTegic.value.DoubleValue
5.036

@<SCITEGIC>MOL_PROPERTY
Coulomb
SciTegic.value.DoubleValue
69.777

@<SCITEGIC>MOL_PROPERTY
VdW
SciTegic.value.DoubleValue
0.290

@<SCITEGIC>MOL_PROPERTY
VdW6
SciTegic.value.DoubleValue
-8.613

@<SCITEGIC>MOL_PROPERTY
VdW12
SciTegic.value.DoubleValue
8.904

@<SCITEGIC>MOL_PROPERTY
Bond
SciTegic.value.DoubleValue
0.274

@<SCITEGIC>MOL_PROPERTY
Angle
SciTegic.value.DoubleValue
1.357

@<SCITEGIC>MOL_PROPERTY
Pdih
SciTegic.value.DoubleValue
3.405

@<SCITEGIC>MOL_PROPERTY
Idih
SciTegic.value.DoubleValue
0.000

@<SCITEGIC>MOL_PROPERTY
Tether
SciTegic.value.DoubleValue
0.000

@<TRIPOS>MOLECULE
guest-s12_vm2.mol2 : vm2 ligand conformer 171
          26          25           1
SMALL
USER_CHARGES
 
@<TRIPOS>ATOM
       1    N1      20.701622   19.222194   25.511547 N.4        1 MOL1        -0.4857
       2    H1      20.843338   20.131520   25.046696 H          1 MOL1         0.3650
       3    H2      21.492941   18.631650   25.212414 H          1 MOL1         0.3650
       4    C1      19.391099   18.605884   25.061470 C.3        1 MOL1         0.0209
       5    H3      18.579751   19.260773   25.388978 H          1 MOL1         0.0967
       6    H4      19.284381   17.647154   25.575331 H          1 MOL1         0.0967
       7    C2      19.295992   18.383162   23.539393 C.3        1 MOL1        -0.1378
       8    H5      20.114464   17.729144   23.218572 H          1 MOL1         0.0993
       9    H6      18.366062   17.838598   23.328758 H          1 MOL1         0.0993
      10    C3      19.298710   19.712367   22.741504 C.3        1 MOL1        -0.1338
      11    H7      20.208108   20.291809   22.948123 H          1 MOL1         0.0993
      12    H8      18.459906   20.325459   23.099652 H          1 MOL1         0.0993
      13    C4      19.140886   19.513742   21.211154 C.3        1 MOL1        -0.1338
      14    H9      18.546231   18.613955   21.001708 H          1 MOL1         0.0993
      15    H10     18.553163   20.354095   20.816308 H          1 MOL1         0.0993
      16    C5      20.474006   19.466918   20.421113 C.3        1 MOL1        -0.1313
      17    H11     21.012454   20.416285   20.549777 H          1 MOL1         0.0993
      18    H12     20.240842   19.393416   19.349624 H          1 MOL1         0.0993
      19    C6      21.403245   18.295047   20.806333 C.3        1 MOL1        -0.2328
      20    H13     20.873302   17.335150   20.755396 H          1 MOL1         0.1004
      21    H14     21.804861   18.420894   21.819059 H          1 MOL1         0.1004
      22    H15     22.258463   18.242802   20.120215 H          1 MOL1         0.1004
      23    C7      20.702441   19.390686   27.024486 C.3        1 MOL1        -0.0781
      24    H16     20.582507   18.412220   27.494751 H          1 MOL1         0.0978
      25    H17     21.650527   19.835459   27.335007 H          1 MOL1         0.0978
      26    H18     19.876233   20.043974   27.313501 H          1 MOL1         0.0978
@<TRIPOS>BOND
    1     1     2    1
    2     1     3    1
    3     1     4    1
    4     4     5    1
    5     4     6    1
    6     4     7    1
    7     7     8    1
    8     7     9    1
    9     7    10    1
   10    10    11    1
   11    10    12    1
   12    10    13    1
   13    13    14    1
   14    13    15    1
   15    13    16    1
   16    16    17    1
   17    16    18    1
   18    16    19    1
   19    19    20    1
   20    19    21    1
   21    19    22    1
   22     1    23    1
   23    23    24    1
   24    23    25    1
   25    23    26    1
@<TRIPOS>SUBSTRUCTURE
       1 MOL1            1 RESIDUE      1      MOL     
@<SCITEGIC>MOL_PROPERTY
VM2 Rank
SciTegic.value.IntegerValue
171

@<SCITEGIC>MOL_PROPERTY
Conf_Id
SciTegic.value.IntegerValue
983

@<SCITEGIC>MOL_PROPERTY
Probability
SciTegic.value.DoubleValue
0.01

@<SCITEGIC>MOL_PROPERTY
Sum Probability
SciTegic.value.DoubleValue
99.88

@<SCITEGIC>MOL_PROPERTY
Delta G
SciTegic.value.DoubleValue
3.962

@<SCITEGIC>MOL_PROPERTY
G
SciTegic.value.DoubleValue
79.428

@<SCITEGIC>MOL_PROPERTY
E
SciTegic.value.DoubleValue
46.844

@<SCITEGIC>MOL_PROPERTY
-TS
SciTegic.value.DoubleValue
32.584

@<SCITEGIC>MOL_PROPERTY
U+W
SciTegic.value.DoubleValue
25.383

@<SCITEGIC>MOL_PROPERTY
U
SciTegic.value.DoubleValue
74.907

@<SCITEGIC>MOL_PROPERTY
W
SciTegic.value.DoubleValue
-49.525

@<SCITEGIC>MOL_PROPERTY
W(PB)
SciTegic.value.DoubleValue
-51.776

@<SCITEGIC>MOL_PROPERTY
W(SA)
SciTegic.value.DoubleValue
2.251

@<SCITEGIC>MOL_PROPERTY
Valence
SciTegic.value.DoubleValue
4.797

@<SCITEGIC>MOL_PROPERTY
Coulomb
SciTegic.value.DoubleValue
69.863

@<SCITEGIC>MOL_PROPERTY
VdW
SciTegic.value.DoubleValue
0.248

@<SCITEGIC>MOL_PROPERTY
VdW6
SciTegic.value.DoubleValue
-7.455

@<SCITEGIC>MOL_PROPERTY
VdW12
SciTegic.value.DoubleValue
7.702

@<SCITEGIC>MOL_PROPERTY
Bond
SciTegic.value.DoubleValue
0.232

@<SCITEGIC>MOL_PROPERTY
Angle
SciTegic.value.DoubleValue
1.219

@<SCITEGIC>MOL_PROPERTY
Pdih
SciTegic.value.DoubleValue
3.345

@<SCITEGIC>MOL_PROPERTY
Idih
SciTegic.value.DoubleValue
0.000

@<SCITEGIC>MOL_PROPERTY
Tether
SciTegic.value.DoubleValue
0.000

@<TRIPOS>MOLECULE
guest-s12_vm2.mol2 : vm2 ligand conformer 172
          26          25           1
SMALL
USER_CHARGES
 
@<TRIPOS>ATOM
       1    N1      19.308433   19.201662   25.945288 N.4        1 MOL1        -0.4857
       2    H1      18.587780   18.916987   26.627522 H          1 MOL1         0.3650
       3    H2      18.951448   20.073630   25.527002 H          1 MOL1         0.3650
       4    C1      19.449585   18.128846   24.876615 C.3        1 MOL1         0.0209
       5    H3      18.446110   17.902442   24.507311 H          1 MOL1         0.0967
       6    H4      19.839927   17.229992   25.360543 H          1 MOL1         0.0967
       7    C2      20.351084   18.503390   23.679843 C.3        1 MOL1        -0.1378
       8    H5      21.376797   18.677759   24.029358 H          1 MOL1         0.0993
       9    H6      20.403302   17.638395   23.009480 H          1 MOL1         0.0993
      10    C3      19.838904   19.748231   22.911327 C.3        1 MOL1        -0.1338
      11    H7      19.879214   20.613810   23.586063 H          1 MOL1         0.0993
      12    H8      18.781980   19.622171   22.638710 H          1 MOL1         0.0993
      13    C4      20.677487   20.080622   21.649392 C.3        1 MOL1        -0.1338
      14    H9      20.722430   21.173732   21.546423 H          1 MOL1         0.0993
      15    H10     21.717704   19.754008   21.785279 H          1 MOL1         0.0993
      16    C5      20.108393   19.511408   20.324382 C.3        1 MOL1        -0.1313
      17    H11     20.735618   19.866501   19.494720 H          1 MOL1         0.0993
      18    H12     19.106236   19.925697   20.145939 H          1 MOL1         0.0993
      19    C6      20.042030   17.969339   20.269576 C.3        1 MOL1        -0.2328
      20    H13     21.017275   17.522027   20.501130 H          1 MOL1         0.1004
      21    H14     19.748953   17.633734   19.266404 H          1 MOL1         0.1004
      22    H15     19.299837   17.576642   20.975394 H          1 MOL1         0.1004
      23    C7      20.632085   19.446503   26.660576 C.3        1 MOL1        -0.0781
      24    H16     20.483138   20.195705   27.441310 H          1 MOL1         0.0978
      25    H17     20.976502   18.511453   27.107610 H          1 MOL1         0.0978
      26    H18     21.369768   19.807643   25.941156 H          1 MOL1         0.0978
@<TRIPOS>BOND
    1     1     2    1
    2     1     3    1
    3     1     4    1
    4     4     5    1
    5     4     6    1
    6     4     7    1
    7     7     8    1
    8     7     9    1
    9     7    10    1
   10    10    11    1
   11    10    12    1
   12    10    13    1
   13    13    14    1
   14    13    15    1
   15    13    16    1
   16    16    17    1
   17    16    18    1
   18    16    19    1
   19    19    20    1
   20    19    21    1
   21    19    22    1
   22     1    23    1
   23    23    24    1
   24    23    25    1
   25    23    26    1
@<TRIPOS>SUBSTRUCTURE
       1 MOL1            1 RESIDUE      1      MOL     
@<SCITEGIC>MOL_PROPERTY
VM2 Rank
SciTegic.value.IntegerValue
172

@<SCITEGIC>MOL_PROPERTY
Conf_Id
SciTegic.value.IntegerValue
1589

@<SCITEGIC>MOL_PROPERTY
Probability
SciTegic.value.DoubleValue
0.01

@<SCITEGIC>MOL_PROPERTY
Sum Probability
SciTegic.value.DoubleValue
99.88

@<SCITEGIC>MOL_PROPERTY
Delta G
SciTegic.value.DoubleValue
4.020

@<SCITEGIC>MOL_PROPERTY
G
SciTegic.value.DoubleValue
79.486

@<SCITEGIC>MOL_PROPERTY
E
SciTegic.value.DoubleValue
46.635

@<SCITEGIC>MOL_PROPERTY
-TS
SciTegic.value.DoubleValue
32.852

@<SCITEGIC>MOL_PROPERTY
U+W
SciTegic.value.DoubleValue
25.173

@<SCITEGIC>MOL_PROPERTY
U
SciTegic.value.DoubleValue
74.855

@<SCITEGIC>MOL_PROPERTY
W
SciTegic.value.DoubleValue
-49.682

@<SCITEGIC>MOL_PROPERTY
W(PB)
SciTegic.value.DoubleValue
-51.896

@<SCITEGIC>MOL_PROPERTY
W(SA)
SciTegic.value.DoubleValue
2.214

@<SCITEGIC>MOL_PROPERTY
Valence
SciTegic.value.DoubleValue
5.096

@<SCITEGIC>MOL_PROPERTY
Coulomb
SciTegic.value.DoubleValue
69.227

@<SCITEGIC>MOL_PROPERTY
VdW
SciTegic.value.DoubleValue
0.532

@<SCITEGIC>MOL_PROPERTY
VdW6
SciTegic.value.DoubleValue
-8.269

@<SCITEGIC>MOL_PROPERTY
VdW12
SciTegic.value.DoubleValue
8.801

@<SCITEGIC>MOL_PROPERTY
Bond
SciTegic.value.DoubleValue
0.274

@<SCITEGIC>MOL_PROPERTY
Angle
SciTegic.value.DoubleValue
1.323

@<SCITEGIC>MOL_PROPERTY
Pdih
SciTegic.value.DoubleValue
3.499

@<SCITEGIC>MOL_PROPERTY
Idih
SciTegic.value.DoubleValue
0.000

@<SCITEGIC>MOL_PROPERTY
Tether
SciTegic.value.DoubleValue
0.000

@<TRIPOS>MOLECULE
guest-s12_vm2.mol2 : vm2 ligand conformer 173
          26          25           1
SMALL
USER_CHARGES
 
@<TRIPOS>ATOM
       1    N1      19.289145   18.357256   25.604085 N.4        1 MOL1        -0.4857
       2    H1      19.866963   17.502828   25.623380 H          1 MOL1         0.3650
       3    H2      18.315641   18.022705   25.682640 H          1 MOL1         0.3650
       4    C1      19.471785   19.085574   24.282997 C.3        1 MOL1         0.0209
       5    H3      18.881357   20.004336   24.321930 H          1 MOL1         0.0967
       6    H4      19.048978   18.448118   23.505244 H          1 MOL1         0.0967
       7    C2      20.938032   19.421874   23.934434 C.3        1 MOL1        -0.1378
       8    H5      21.330184   20.100390   24.702855 H          1 MOL1         0.0993
       9    H6      21.556050   18.515496   23.977639 H          1 MOL1         0.0993
      10    C3      21.096806   20.107835   22.553557 C.3        1 MOL1        -0.1338
      11    H7      22.008016   20.721066   22.585717 H          1 MOL1         0.0993
      12    H8      20.275600   20.816913   22.383662 H          1 MOL1         0.0993
      13    C4      21.239613   19.134207   21.352009 C.3        1 MOL1        -0.1338
      14    H9      21.454066   19.724405   20.450365 H          1 MOL1         0.0993
      15    H10     22.125038   18.503064   21.509768 H          1 MOL1         0.0993
      16    C5      20.023429   18.219749   21.062440 C.3        1 MOL1        -0.1313
      17    H11     19.856329   17.531345   21.900447 H          1 MOL1         0.0993
      18    H12     20.267384   17.581155   20.201926 H          1 MOL1         0.0993
      19    C6      18.728552   19.001319   20.742123 C.3        1 MOL1        -0.2328
      20    H13     17.917792   18.310281   20.477585 H          1 MOL1         0.1004
      21    H14     18.879850   19.680376   19.893049 H          1 MOL1         0.1004
      22    H15     18.389544   19.596880   21.598028 H          1 MOL1         0.1004
      23    C7      19.620638   19.262186   26.785355 C.3        1 MOL1        -0.0781
      24    H16     18.982856   20.148026   26.748753 H          1 MOL1         0.0978
      25    H17     19.440888   18.716700   27.714442 H          1 MOL1         0.0978
      26    H18     20.670145   19.558193   26.731258 H          1 MOL1         0.0978
@<TRIPOS>BOND
    1     1     2    1
    2     1     3    1
    3     1     4    1
    4     4     5    1
    5     4     6    1
    6     4     7    1
    7     7     8    1
    8     7     9    1
    9     7    10    1
   10    10    11    1
   11    10    12    1
   12    10    13    1
   13    13    14    1
   14    13    15    1
   15    13    16    1
   16    16    17    1
   17    16    18    1
   18    16    19    1
   19    19    20    1
   20    19    21    1
   21    19    22    1
   22     1    23    1
   23    23    24    1
   24    23    25    1
   25    23    26    1
@<TRIPOS>SUBSTRUCTURE
       1 MOL1            1 RESIDUE      1      MOL     
@<SCITEGIC>MOL_PROPERTY
VM2 Rank
SciTegic.value.IntegerValue
173

@<SCITEGIC>MOL_PROPERTY
Conf_Id
SciTegic.value.IntegerValue
159

@<SCITEGIC>MOL_PROPERTY
Probability
SciTegic.value.DoubleValue
0.01

@<SCITEGIC>MOL_PROPERTY
Sum Probability
SciTegic.value.DoubleValue
99.89

@<SCITEGIC>MOL_PROPERTY
Delta G
SciTegic.value.DoubleValue
4.026

@<SCITEGIC>MOL_PROPERTY
G
SciTegic.value.DoubleValue
79.492

@<SCITEGIC>MOL_PROPERTY
E
SciTegic.value.DoubleValue
46.319

@<SCITEGIC>MOL_PROPERTY
-TS
SciTegic.value.DoubleValue
33.173

@<SCITEGIC>MOL_PROPERTY
U+W
SciTegic.value.DoubleValue
24.858

@<SCITEGIC>MOL_PROPERTY
U
SciTegic.value.DoubleValue
74.835

@<SCITEGIC>MOL_PROPERTY
W
SciTegic.value.DoubleValue
-49.977

@<SCITEGIC>MOL_PROPERTY
W(PB)
SciTegic.value.DoubleValue
-52.172

@<SCITEGIC>MOL_PROPERTY
W(SA)
SciTegic.value.DoubleValue
2.195

@<SCITEGIC>MOL_PROPERTY
Valence
SciTegic.value.DoubleValue
4.934

@<SCITEGIC>MOL_PROPERTY
Coulomb
SciTegic.value.DoubleValue
69.669

@<SCITEGIC>MOL_PROPERTY
VdW
SciTegic.value.DoubleValue
0.232

@<SCITEGIC>MOL_PROPERTY
VdW6
SciTegic.value.DoubleValue
-8.762

@<SCITEGIC>MOL_PROPERTY
VdW12
SciTegic.value.DoubleValue
8.993

@<SCITEGIC>MOL_PROPERTY
Bond
SciTegic.value.DoubleValue
0.278

@<SCITEGIC>MOL_PROPERTY
Angle
SciTegic.value.DoubleValue
1.765

@<SCITEGIC>MOL_PROPERTY
Pdih
SciTegic.value.DoubleValue
2.891

@<SCITEGIC>MOL_PROPERTY
Idih
SciTegic.value.DoubleValue
0.000

@<SCITEGIC>MOL_PROPERTY
Tether
SciTegic.value.DoubleValue
0.000

@<TRIPOS>MOLECULE
guest-s12_vm2.mol2 : vm2 ligand conformer 174
          26          25           1
SMALL
USER_CHARGES
 
@<TRIPOS>ATOM
       1    N1      20.777440   18.508814   25.656841 N.4        1 MOL1        -0.4857
       2    H1      21.790417   18.376526   25.805782 H          1 MOL1         0.3650
       3    H2      20.383524   17.555452   25.641849 H          1 MOL1         0.3650
       4    C1      20.544916   19.194690   24.320955 C.3        1 MOL1         0.0209
       5    H3      21.140705   18.660777   23.579345 H          1 MOL1         0.0967
       6    H4      20.934228   20.213160   24.394420 H          1 MOL1         0.0967
       7    C2      19.069056   19.231530   23.868227 C.3        1 MOL1        -0.1378
       8    H5      18.644577   18.219053   23.874600 H          1 MOL1         0.0993
       9    H6      18.495590   19.811823   24.602417 H          1 MOL1         0.0993
      10    C3      18.872532   19.881235   22.474728 C.3        1 MOL1        -0.1338
      11    H7      19.543936   20.742371   22.357699 H          1 MOL1         0.0993
      12    H8      17.856517   20.298125   22.438574 H          1 MOL1         0.0993
      13    C4      19.013284   18.907365   21.273131 C.3        1 MOL1        -0.1338
      14    H9      18.264326   18.109686   21.373014 H          1 MOL1         0.0993
      15    H10     18.748008   19.448666   20.354488 H          1 MOL1         0.0993
      16    C5      20.405979   18.258744   21.075951 C.3        1 MOL1        -0.1313
      17    H11     20.356572   17.590408   20.204925 H          1 MOL1         0.0993
      18    H12     20.649156   17.611988   21.928389 H          1 MOL1         0.0993
      19    C6      21.536101   19.287408   20.841771 C.3        1 MOL1        -0.2328
      20    H13     21.310992   19.928307   19.979502 H          1 MOL1         0.1004
      21    H14     22.485919   18.775769   20.639494 H          1 MOL1         0.1004
      22    H15     21.687426   19.932727   21.715189 H          1 MOL1         0.1004
      23    C7      20.188692   19.320215   26.805396 C.3        1 MOL1        -0.0781
      24    H16     19.107503   19.399270   26.675810 H          1 MOL1         0.0978
      25    H17     20.409046   18.815603   27.748730 H          1 MOL1         0.0978
      26    H18     20.636077   20.316537   26.807088 H          1 MOL1         0.0978
@<TRIPOS>BOND
    1     1     2    1
    2     1     3    1
    3     1     4    1
    4     4     5    1
    5     4     6    1
    6     4     7    1
    7     7     8    1
    8     7     9    1
    9     7    10    1
   10    10    11    1
   11    10    12    1
   12    10    13    1
   13    13    14    1
   14    13    15    1
   15    13    16    1
   16    16    17    1
   17    16    18    1
   18    16    19    1
   19    19    20    1
   20    19    21    1
   21    19    22    1
   22     1    23    1
   23    23    24    1
   24    23    25    1
   25    23    26    1
@<TRIPOS>SUBSTRUCTURE
       1 MOL1            1 RESIDUE      1      MOL     
@<SCITEGIC>MOL_PROPERTY
VM2 Rank
SciTegic.value.IntegerValue
174

@<SCITEGIC>MOL_PROPERTY
Conf_Id
SciTegic.value.IntegerValue
171

@<SCITEGIC>MOL_PROPERTY
Probability
SciTegic.value.DoubleValue
0.01

@<SCITEGIC>MOL_PROPERTY
Sum Probability
SciTegic.value.DoubleValue
99.90

@<SCITEGIC>MOL_PROPERTY
Delta G
SciTegic.value.DoubleValue
4.047

@<SCITEGIC>MOL_PROPERTY
G
SciTegic.value.DoubleValue
79.513

@<SCITEGIC>MOL_PROPERTY
E
SciTegic.value.DoubleValue
46.340

@<SCITEGIC>MOL_PROPERTY
-TS
SciTegic.value.DoubleValue
33.173

@<SCITEGIC>MOL_PROPERTY
U+W
SciTegic.value.DoubleValue
24.878

@<SCITEGIC>MOL_PROPERTY
U
SciTegic.value.DoubleValue
74.835

@<SCITEGIC>MOL_PROPERTY
W
SciTegic.value.DoubleValue
-49.956

@<SCITEGIC>MOL_PROPERTY
W(PB)
SciTegic.value.DoubleValue
-52.177

@<SCITEGIC>MOL_PROPERTY
W(SA)
SciTegic.value.DoubleValue
2.220

@<SCITEGIC>MOL_PROPERTY
Valence
SciTegic.value.DoubleValue
4.933

@<SCITEGIC>MOL_PROPERTY
Coulomb
SciTegic.value.DoubleValue
69.669

@<SCITEGIC>MOL_PROPERTY
VdW
SciTegic.value.DoubleValue
0.232

@<SCITEGIC>MOL_PROPERTY
VdW6
SciTegic.value.DoubleValue
-8.762

@<SCITEGIC>MOL_PROPERTY
VdW12
SciTegic.value.DoubleValue
8.994

@<SCITEGIC>MOL_PROPERTY
Bond
SciTegic.value.DoubleValue
0.278

@<SCITEGIC>MOL_PROPERTY
Angle
SciTegic.value.DoubleValue
1.765

@<SCITEGIC>MOL_PROPERTY
Pdih
SciTegic.value.DoubleValue
2.890

@<SCITEGIC>MOL_PROPERTY
Idih
SciTegic.value.DoubleValue
0.000

@<SCITEGIC>MOL_PROPERTY
Tether
SciTegic.value.DoubleValue
0.000

@<TRIPOS>MOLECULE
guest-s12_vm2.mol2 : vm2 ligand conformer 175
          26          25           1
SMALL
USER_CHARGES
 
@<TRIPOS>ATOM
       1    N1      20.308688   19.646698   25.249995 N.4        1 MOL1        -0.4857
       2    H1      20.916082   20.011230   24.501346 H          1 MOL1         0.3650
       3    H2      20.948032   19.271118   25.967559 H          1 MOL1         0.3650
       4    C1      19.427146   18.538898   24.707194 C.3        1 MOL1         0.0209
       5    H3      18.742749   18.972182   23.975207 H          1 MOL1         0.0967
       6    H4      18.830180   18.155400   25.538531 H          1 MOL1         0.0967
       7    C2      20.211266   17.378508   24.064416 C.3        1 MOL1        -0.1378
       8    H5      20.834753   16.906824   24.835524 H          1 MOL1         0.0993
       9    H6      19.496976   16.609026   23.742847 H          1 MOL1         0.0993
      10    C3      21.110360   17.774182   22.862401 C.3        1 MOL1        -0.1338
      11    H7      21.652806   16.870300   22.552010 H          1 MOL1         0.0993
      12    H8      21.886961   18.485068   23.174331 H          1 MOL1         0.0993
      13    C4      20.347005   18.315682   21.624840 C.3        1 MOL1        -0.1338
      14    H9      20.934601   18.070426   20.729174 H          1 MOL1         0.0993
      15    H10     19.390189   17.787634   21.511508 H          1 MOL1         0.0993
      16    C5      20.116851   19.846768   21.639373 C.3        1 MOL1        -0.1313
      17    H11     21.078449   20.365045   21.758813 H          1 MOL1         0.0993
      18    H12     19.491072   20.139726   22.489702 H          1 MOL1         0.0993
      19    C6      19.440089   20.330116   20.339006 C.3        1 MOL1        -0.2328
      20    H13     19.285152   21.416598   20.363209 H          1 MOL1         0.1004
      21    H14     18.460546   19.853396   20.203213 H          1 MOL1         0.1004
      22    H15     20.057692   20.098096   19.461548 H          1 MOL1         0.1004
      23    C7      19.446595   20.759148   25.829775 C.3        1 MOL1        -0.0781
      24    H16     18.835599   20.354412   26.639581 H          1 MOL1         0.0978
      25    H17     20.093843   21.549738   26.215950 H          1 MOL1         0.0978
      26    H18     18.801898   21.160461   25.044811 H          1 MOL1         0.0978
@<TRIPOS>BOND
    1     1     2    1
    2     1     3    1
    3     1     4    1
    4     4     5    1
    5     4     6    1
    6     4     7    1
    7     7     8    1
    8     7     9    1
    9     7    10    1
   10    10    11    1
   11    10    12    1
   12    10    13    1
   13    13    14    1
   14    13    15    1
   15    13    16    1
   16    16    17    1
   17    16    18    1
   18    16    19    1
   19    19    20    1
   20    19    21    1
   21    19    22    1
   22     1    23    1
   23    23    24    1
   24    23    25    1
   25    23    26    1
@<TRIPOS>SUBSTRUCTURE
       1 MOL1            1 RESIDUE      1      MOL     
@<SCITEGIC>MOL_PROPERTY
VM2 Rank
SciTegic.value.IntegerValue
175

@<SCITEGIC>MOL_PROPERTY
Conf_Id
SciTegic.value.IntegerValue
426

@<SCITEGIC>MOL_PROPERTY
Probability
SciTegic.value.DoubleValue
0.01

@<SCITEGIC>MOL_PROPERTY
Sum Probability
SciTegic.value.DoubleValue
99.91

@<SCITEGIC>MOL_PROPERTY
Delta G
SciTegic.value.DoubleValue
4.052

@<SCITEGIC>MOL_PROPERTY
G
SciTegic.value.DoubleValue
79.519

@<SCITEGIC>MOL_PROPERTY
E
SciTegic.value.DoubleValue
46.794

@<SCITEGIC>MOL_PROPERTY
-TS
SciTegic.value.DoubleValue
32.725

@<SCITEGIC>MOL_PROPERTY
U+W
SciTegic.value.DoubleValue
25.332

@<SCITEGIC>MOL_PROPERTY
U
SciTegic.value.DoubleValue
74.862

@<SCITEGIC>MOL_PROPERTY
W
SciTegic.value.DoubleValue
-49.529

@<SCITEGIC>MOL_PROPERTY
W(PB)
SciTegic.value.DoubleValue
-51.763

@<SCITEGIC>MOL_PROPERTY
W(SA)
SciTegic.value.DoubleValue
2.234

@<SCITEGIC>MOL_PROPERTY
Valence
SciTegic.value.DoubleValue
4.457

@<SCITEGIC>MOL_PROPERTY
Coulomb
SciTegic.value.DoubleValue
70.609

@<SCITEGIC>MOL_PROPERTY
VdW
SciTegic.value.DoubleValue
-0.205

@<SCITEGIC>MOL_PROPERTY
VdW6
SciTegic.value.DoubleValue
-8.103

@<SCITEGIC>MOL_PROPERTY
VdW12
SciTegic.value.DoubleValue
7.899

@<SCITEGIC>MOL_PROPERTY
Bond
SciTegic.value.DoubleValue
0.231

@<SCITEGIC>MOL_PROPERTY
Angle
SciTegic.value.DoubleValue
1.446

@<SCITEGIC>MOL_PROPERTY
Pdih
SciTegic.value.DoubleValue
2.780

@<SCITEGIC>MOL_PROPERTY
Idih
SciTegic.value.DoubleValue
0.000

@<SCITEGIC>MOL_PROPERTY
Tether
SciTegic.value.DoubleValue
0.000

@<TRIPOS>MOLECULE
guest-s12_vm2.mol2 : vm2 ligand conformer 176
          26          25           1
SMALL
USER_CHARGES
 
@<TRIPOS>ATOM
       1    N1      19.545422   19.567909   25.223075 N.4        1 MOL1        -0.4857
       2    H1      18.947680   19.064730   25.897042 H          1 MOL1         0.3650
       3    H2      18.930154   19.806185   24.431270 H          1 MOL1         0.3650
       4    C1      20.670047   18.667093   24.751148 C.3        1 MOL1         0.0209
       5    H3      21.273134   18.407412   25.624882 H          1 MOL1         0.0967
       6    H4      21.301111   19.236091   24.065628 H          1 MOL1         0.0967
       7    C2      20.185861   17.375855   24.063563 C.3        1 MOL1        -0.1378
       8    H5      21.062715   16.770433   23.798407 H          1 MOL1         0.0993
       9    H6      19.619170   16.781495   24.792554 H          1 MOL1         0.0993
      10    C3      19.311428   17.588557   22.798695 C.3        1 MOL1        -0.1338
      11    H7      18.386278   18.123860   23.050325 H          1 MOL1         0.0993
      12    H8      18.987812   16.595321   22.457597 H          1 MOL1         0.0993
      13    C4      20.033101   18.283303   21.613783 C.3        1 MOL1        -0.1338
      14    H9      21.083078   17.962445   21.571683 H          1 MOL1         0.0993
      15    H10     19.572215   17.929740   20.680931 H          1 MOL1         0.0993
      16    C5      19.944382   19.828994   21.633239 C.3        1 MOL1        -0.1313
      17    H11     20.435939   20.237373   22.523230 H          1 MOL1         0.0993
      18    H12     18.891298   20.139267   21.681104 H          1 MOL1         0.0993
      19    C6      20.597850   20.449616   20.380082 C.3        1 MOL1        -0.2328
      20    H13     20.525660   21.544646   20.407128 H          1 MOL1         0.1004
      21    H14     20.103794   20.102708   19.463152 H          1 MOL1         0.1004
      22    H15     21.661144   20.183874   20.316900 H          1 MOL1         0.1004
      23    C7      20.119910   20.828674   25.853415 C.3        1 MOL1        -0.0781
      24    H16     20.722279   21.358647   25.112378 H          1 MOL1         0.0978
      25    H17     19.299690   21.467826   26.187807 H          1 MOL1         0.0978
      26    H18     20.742676   20.551338   26.706737 H          1 MOL1         0.0978
@<TRIPOS>BOND
    1     1     2    1
    2     1     3    1
    3     1     4    1
    4     4     5    1
    5     4     6    1
    6     4     7    1
    7     7     8    1
    8     7     9    1
    9     7    10    1
   10    10    11    1
   11    10    12    1
   12    10    13    1
   13    13    14    1
   14    13    15    1
   15    13    16    1
   16    16    17    1
   17    16    18    1
   18    16    19    1
   19    19    20    1
   20    19    21    1
   21    19    22    1
   22     1    23    1
   23    23    24    1
   24    23    25    1
   25    23    26    1
@<TRIPOS>SUBSTRUCTURE
       1 MOL1            1 RESIDUE      1      MOL     
@<SCITEGIC>MOL_PROPERTY
VM2 Rank
SciTegic.value.IntegerValue
176

@<SCITEGIC>MOL_PROPERTY
Conf_Id
SciTegic.value.IntegerValue
419

@<SCITEGIC>MOL_PROPERTY
Probability
SciTegic.value.DoubleValue
0.01

@<SCITEGIC>MOL_PROPERTY
Sum Probability
SciTegic.value.DoubleValue
99.91

@<SCITEGIC>MOL_PROPERTY
Delta G
SciTegic.value.DoubleValue
4.055

@<SCITEGIC>MOL_PROPERTY
G
SciTegic.value.DoubleValue
79.521

@<SCITEGIC>MOL_PROPERTY
E
SciTegic.value.DoubleValue
46.797

@<SCITEGIC>MOL_PROPERTY
-TS
SciTegic.value.DoubleValue
32.725

@<SCITEGIC>MOL_PROPERTY
U+W
SciTegic.value.DoubleValue
25.335

@<SCITEGIC>MOL_PROPERTY
U
SciTegic.value.DoubleValue
74.861

@<SCITEGIC>MOL_PROPERTY
W
SciTegic.value.DoubleValue
-49.527

@<SCITEGIC>MOL_PROPERTY
W(PB)
SciTegic.value.DoubleValue
-51.752

@<SCITEGIC>MOL_PROPERTY
W(SA)
SciTegic.value.DoubleValue
2.225

@<SCITEGIC>MOL_PROPERTY
Valence
SciTegic.value.DoubleValue
4.458

@<SCITEGIC>MOL_PROPERTY
Coulomb
SciTegic.value.DoubleValue
70.609

@<SCITEGIC>MOL_PROPERTY
VdW
SciTegic.value.DoubleValue
-0.205

@<SCITEGIC>MOL_PROPERTY
VdW6
SciTegic.value.DoubleValue
-8.103

@<SCITEGIC>MOL_PROPERTY
VdW12
SciTegic.value.DoubleValue
7.898

@<SCITEGIC>MOL_PROPERTY
Bond
SciTegic.value.DoubleValue
0.231

@<SCITEGIC>MOL_PROPERTY
Angle
SciTegic.value.DoubleValue
1.446

@<SCITEGIC>MOL_PROPERTY
Pdih
SciTegic.value.DoubleValue
2.781

@<SCITEGIC>MOL_PROPERTY
Idih
SciTegic.value.DoubleValue
0.000

@<SCITEGIC>MOL_PROPERTY
Tether
SciTegic.value.DoubleValue
0.000

@<TRIPOS>MOLECULE
guest-s12_vm2.mol2 : vm2 ligand conformer 177
          26          25           1
SMALL
USER_CHARGES
 
@<TRIPOS>ATOM
       1    N1      19.975075   19.496386   26.049266 N.4        1 MOL1        -0.4857
       2    H1      19.314762   20.217790   25.723490 H          1 MOL1         0.3650
       3    H2      20.382704   19.879030   26.917171 H          1 MOL1         0.3650
       4    C1      21.074826   19.289227   25.019205 C.3        1 MOL1         0.0209
       5    H3      21.742292   18.513314   25.402527 H          1 MOL1         0.0967
       6    H4      21.643805   20.220351   24.956887 H          1 MOL1         0.0967
       7    C2      20.592907   18.900177   23.604144 C.3        1 MOL1        -0.1378
       8    H5      21.482415   18.731782   22.985135 H          1 MOL1         0.0993
       9    H6      20.050162   17.947102   23.643185 H          1 MOL1         0.0993
      10    C3      19.709476   19.990149   22.949704 C.3        1 MOL1        -0.1338
      11    H7      20.291041   20.916618   22.845696 H          1 MOL1         0.0993
      12    H8      18.870705   20.228357   23.616803 H          1 MOL1         0.0993
      13    C4      19.121328   19.593605   21.570567 C.3        1 MOL1        -0.1338
      14    H9      18.448856   18.731699   21.680730 H          1 MOL1         0.0993
      15    H10     18.484379   20.422881   21.232776 H          1 MOL1         0.0993
      16    C5      20.174497   19.314711   20.467030 C.3        1 MOL1        -0.1313
      17    H11     21.088275   19.895596   20.654634 H          1 MOL1         0.0993
      18    H12     19.779687   19.676125   19.507078 H          1 MOL1         0.0993
      19    C6      20.513610   17.814008   20.307174 C.3        1 MOL1        -0.2328
      20    H13     21.249307   17.669961   19.505359 H          1 MOL1         0.1004
      21    H14     19.618123   17.236170   20.044023 H          1 MOL1         0.1004
      22    H15     20.933492   17.385058   21.223564 H          1 MOL1         0.1004
      23    C7      19.246280   18.191738   26.349911 C.3        1 MOL1        -0.0781
      24    H16     19.966409   17.452931   26.708184 H          1 MOL1         0.0978
      25    H17     18.490987   18.373142   27.117807 H          1 MOL1         0.0978
      26    H18     18.764471   17.829292   25.439612 H          1 MOL1         0.0978
@<TRIPOS>BOND
    1     1     2    1
    2     1     3    1
    3     1     4    1
    4     4     5    1
    5     4     6    1
    6     4     7    1
    7     7     8    1
    8     7     9    1
    9     7    10    1
   10    10    11    1
   11    10    12    1
   12    10    13    1
   13    13    14    1
   14    13    15    1
   15    13    16    1
   16    16    17    1
   17    16    18    1
   18    16    19    1
   19    19    20    1
   20    19    21    1
   21    19    22    1
   22     1    23    1
   23    23    24    1
   24    23    25    1
   25    23    26    1
@<TRIPOS>SUBSTRUCTURE
       1 MOL1            1 RESIDUE      1      MOL     
@<SCITEGIC>MOL_PROPERTY
VM2 Rank
SciTegic.value.IntegerValue
177

@<SCITEGIC>MOL_PROPERTY
Conf_Id
SciTegic.value.IntegerValue
692

@<SCITEGIC>MOL_PROPERTY
Probability
SciTegic.value.DoubleValue
0.01

@<SCITEGIC>MOL_PROPERTY
Sum Probability
SciTegic.value.DoubleValue
99.92

@<SCITEGIC>MOL_PROPERTY
Delta G
SciTegic.value.DoubleValue
4.067

@<SCITEGIC>MOL_PROPERTY
G
SciTegic.value.DoubleValue
79.534

@<SCITEGIC>MOL_PROPERTY
E
SciTegic.value.DoubleValue
46.742

@<SCITEGIC>MOL_PROPERTY
-TS
SciTegic.value.DoubleValue
32.792

@<SCITEGIC>MOL_PROPERTY
U+W
SciTegic.value.DoubleValue
25.280

@<SCITEGIC>MOL_PROPERTY
U
SciTegic.value.DoubleValue
74.926

@<SCITEGIC>MOL_PROPERTY
W
SciTegic.value.DoubleValue
-49.645

@<SCITEGIC>MOL_PROPERTY
W(PB)
SciTegic.value.DoubleValue
-51.851

@<SCITEGIC>MOL_PROPERTY
W(SA)
SciTegic.value.DoubleValue
2.206

@<SCITEGIC>MOL_PROPERTY
Valence
SciTegic.value.DoubleValue
5.130

@<SCITEGIC>MOL_PROPERTY
Coulomb
SciTegic.value.DoubleValue
69.227

@<SCITEGIC>MOL_PROPERTY
VdW
SciTegic.value.DoubleValue
0.568

@<SCITEGIC>MOL_PROPERTY
VdW6
SciTegic.value.DoubleValue
-8.232

@<SCITEGIC>MOL_PROPERTY
VdW12
SciTegic.value.DoubleValue
8.801

@<SCITEGIC>MOL_PROPERTY
Bond
SciTegic.value.DoubleValue
0.274

@<SCITEGIC>MOL_PROPERTY
Angle
SciTegic.value.DoubleValue
1.422

@<SCITEGIC>MOL_PROPERTY
Pdih
SciTegic.value.DoubleValue
3.434

@<SCITEGIC>MOL_PROPERTY
Idih
SciTegic.value.DoubleValue
0.000

@<SCITEGIC>MOL_PROPERTY
Tether
SciTegic.value.DoubleValue
0.000

@<TRIPOS>MOLECULE
guest-s12_vm2.mol2 : vm2 ligand conformer 178
          26          25           1
SMALL
USER_CHARGES
 
@<TRIPOS>ATOM
       1    N1      20.315044   18.840852   25.884757 N.4        1 MOL1        -0.4857
       2    H1      20.801285   18.086513   26.394891 H          1 MOL1         0.3650
       3    H2      19.490343   19.064071   26.462941 H          1 MOL1         0.3650
       4    C1      19.877759   18.333233   24.521115 C.3        1 MOL1         0.0209
       5    H3      19.373975   17.375874   24.676657 H          1 MOL1         0.0967
       6    H4      20.776354   18.150669   23.927116 H          1 MOL1         0.0967
       7    C2      18.926565   19.280683   23.759622 C.3        1 MOL1        -0.1378
       8    H5      18.056492   19.496074   24.393649 H          1 MOL1         0.0993
       9    H6      19.411535   20.245741   23.572637 H          1 MOL1         0.0993
      10    C3      18.430180   18.677183   22.424148 C.3        1 MOL1        -0.1338
      11    H7      17.749740   19.392316   21.941690 H          1 MOL1         0.0993
      12    H8      17.820795   17.790411   22.647217 H          1 MOL1         0.0993
      13    C4      19.537636   18.269921   21.414498 C.3        1 MOL1        -0.1338
      14    H9      20.180968   17.486697   21.837312 H          1 MOL1         0.0993
      15    H10     19.036382   17.800015   20.556926 H          1 MOL1         0.0993
      16    C5      20.397349   19.442467   20.874448 C.3        1 MOL1        -0.1313
      17    H11     19.798147   20.361941   20.819274 H          1 MOL1         0.0993
      18    H12     20.687416   19.209825   19.840164 H          1 MOL1         0.0993
      19    C6      21.692384   19.693130   21.681910 C.3        1 MOL1        -0.2328
      20    H13     22.294190   20.477183   21.204468 H          1 MOL1         0.1004
      21    H14     22.308190   18.785803   21.730950 H          1 MOL1         0.1004
      22    H15     21.484496   20.019329   22.705644 H          1 MOL1         0.1004
      23    C7      21.231084   20.052531   25.756503 C.3        1 MOL1        -0.0781
      24    H16     22.104912   19.780075   25.160712 H          1 MOL1         0.0978
      25    H17     20.689039   20.866055   25.270303 H          1 MOL1         0.0978
      26    H18     21.548301   20.367171   26.753229 H          1 MOL1         0.0978
@<TRIPOS>BOND
    1     1     2    1
    2     1     3    1
    3     1     4    1
    4     4     5    1
    5     4     6    1
    6     4     7    1
    7     7     8    1
    8     7     9    1
    9     7    10    1
   10    10    11    1
   11    10    12    1
   12    10    13    1
   13    13    14    1
   14    13    15    1
   15    13    16    1
   16    16    17    1
   17    16    18    1
   18    16    19    1
   19    19    20    1
   20    19    21    1
   21    19    22    1
   22     1    23    1
   23    23    24    1
   24    23    25    1
   25    23    26    1
@<TRIPOS>SUBSTRUCTURE
       1 MOL1            1 RESIDUE      1      MOL     
@<SCITEGIC>MOL_PROPERTY
VM2 Rank
SciTegic.value.IntegerValue
178

@<SCITEGIC>MOL_PROPERTY
Conf_Id
SciTegic.value.IntegerValue
1114

@<SCITEGIC>MOL_PROPERTY
Probability
SciTegic.value.DoubleValue
0.01

@<SCITEGIC>MOL_PROPERTY
Sum Probability
SciTegic.value.DoubleValue
99.93

@<SCITEGIC>MOL_PROPERTY
Delta G
SciTegic.value.DoubleValue
4.068

@<SCITEGIC>MOL_PROPERTY
G
SciTegic.value.DoubleValue
79.535

@<SCITEGIC>MOL_PROPERTY
E
SciTegic.value.DoubleValue
46.351

@<SCITEGIC>MOL_PROPERTY
-TS
SciTegic.value.DoubleValue
33.184

@<SCITEGIC>MOL_PROPERTY
U+W
SciTegic.value.DoubleValue
24.890

@<SCITEGIC>MOL_PROPERTY
U
SciTegic.value.DoubleValue
75.063

@<SCITEGIC>MOL_PROPERTY
W
SciTegic.value.DoubleValue
-50.172

@<SCITEGIC>MOL_PROPERTY
W(PB)
SciTegic.value.DoubleValue
-52.327

@<SCITEGIC>MOL_PROPERTY
W(SA)
SciTegic.value.DoubleValue
2.155

@<SCITEGIC>MOL_PROPERTY
Valence
SciTegic.value.DoubleValue
5.293

@<SCITEGIC>MOL_PROPERTY
Coulomb
SciTegic.value.DoubleValue
69.832

@<SCITEGIC>MOL_PROPERTY
VdW
SciTegic.value.DoubleValue
-0.063

@<SCITEGIC>MOL_PROPERTY
VdW6
SciTegic.value.DoubleValue
-9.167

@<SCITEGIC>MOL_PROPERTY
VdW12
SciTegic.value.DoubleValue
9.104

@<SCITEGIC>MOL_PROPERTY
Bond
SciTegic.value.DoubleValue
0.277

@<SCITEGIC>MOL_PROPERTY
Angle
SciTegic.value.DoubleValue
1.740

@<SCITEGIC>MOL_PROPERTY
Pdih
SciTegic.value.DoubleValue
3.276

@<SCITEGIC>MOL_PROPERTY
Idih
SciTegic.value.DoubleValue
0.000

@<SCITEGIC>MOL_PROPERTY
Tether
SciTegic.value.DoubleValue
0.000

@<TRIPOS>MOLECULE
guest-s12_vm2.mol2 : vm2 ligand conformer 179
          26          25           1
SMALL
USER_CHARGES
 
@<TRIPOS>ATOM
       1    N1      19.681683   18.489461   25.668235 N.4        1 MOL1        -0.4857
       2    H1      20.481471   18.262263   26.279372 H          1 MOL1         0.3650
       3    H2      19.330034   17.581588   25.327128 H          1 MOL1         0.3650
       4    C1      20.139873   19.345230   24.504760 C.3        1 MOL1         0.0209
       5    H3      20.522469   20.285617   24.909293 H          1 MOL1         0.0967
       6    H4      19.265033   19.566489   23.888873 H          1 MOL1         0.0967
       7    C2      21.225177   18.672121   23.642916 C.3        1 MOL1        -0.1378
       8    H5      22.090089   18.437260   24.277364 H          1 MOL1         0.0993
       9    H6      20.861748   17.711990   23.257050 H          1 MOL1         0.0993
      10    C3      21.696158   19.566631   22.471540 C.3        1 MOL1        -0.1338
      11    H7      22.473833   19.033314   21.907614 H          1 MOL1         0.0993
      12    H8      22.187625   20.457049   22.887622 H          1 MOL1         0.0993
      13    C4      20.586823   20.032077   21.489439 C.3        1 MOL1        -0.1338
      14    H9      19.845007   20.654829   22.007137 H          1 MOL1         0.0993
      15    H10     21.062348   20.698823   20.756748 H          1 MOL1         0.0993
      16    C5      19.883843   18.893044   20.705759 C.3        1 MOL1        -0.1313
      17    H11     20.582778   18.064122   20.527101 H          1 MOL1         0.0993
      18    H12     19.610430   19.275370   19.712238 H          1 MOL1         0.0993
      19    C6      18.593800   18.371815   21.381469 C.3        1 MOL1        -0.2328
      20    H13     18.102730   17.626559   20.742459 H          1 MOL1         0.1004
      21    H14     17.879051   19.188038   21.548270 H          1 MOL1         0.1004
      22    H15     18.795090   17.893386   22.345274 H          1 MOL1         0.1004
      23    C7      18.600643   19.219622   26.452882 C.3        1 MOL1        -0.0781
      24    H16     17.752266   19.419712   25.794735 H          1 MOL1         0.0978
      25    H17     18.279756   18.593432   27.288368 H          1 MOL1         0.0978
      26    H18     19.005492   20.160713   26.831545 H          1 MOL1         0.0978
@<TRIPOS>BOND
    1     1     2    1
    2     1     3    1
    3     1     4    1
    4     4     5    1
    5     4     6    1
    6     4     7    1
    7     7     8    1
    8     7     9    1
    9     7    10    1
   10    10    11    1
   11    10    12    1
   12    10    13    1
   13    13    14    1
   14    13    15    1
   15    13    16    1
   16    16    17    1
   17    16    18    1
   18    16    19    1
   19    19    20    1
   20    19    21    1
   21    19    22    1
   22     1    23    1
   23    23    24    1
   24    23    25    1
   25    23    26    1
@<TRIPOS>SUBSTRUCTURE
       1 MOL1            1 RESIDUE      1      MOL     
@<SCITEGIC>MOL_PROPERTY
VM2 Rank
SciTegic.value.IntegerValue
179

@<SCITEGIC>MOL_PROPERTY
Conf_Id
SciTegic.value.IntegerValue
1615

@<SCITEGIC>MOL_PROPERTY
Probability
SciTegic.value.DoubleValue
0.01

@<SCITEGIC>MOL_PROPERTY
Sum Probability
SciTegic.value.DoubleValue
99.94

@<SCITEGIC>MOL_PROPERTY
Delta G
SciTegic.value.DoubleValue
4.074

@<SCITEGIC>MOL_PROPERTY
G
SciTegic.value.DoubleValue
79.540

@<SCITEGIC>MOL_PROPERTY
E
SciTegic.value.DoubleValue
46.662

@<SCITEGIC>MOL_PROPERTY
-TS
SciTegic.value.DoubleValue
32.878

@<SCITEGIC>MOL_PROPERTY
U+W
SciTegic.value.DoubleValue
25.200

@<SCITEGIC>MOL_PROPERTY
U
SciTegic.value.DoubleValue
74.864

@<SCITEGIC>MOL_PROPERTY
W
SciTegic.value.DoubleValue
-49.664

@<SCITEGIC>MOL_PROPERTY
W(PB)
SciTegic.value.DoubleValue
-51.863

@<SCITEGIC>MOL_PROPERTY
W(SA)
SciTegic.value.DoubleValue
2.199

@<SCITEGIC>MOL_PROPERTY
Valence
SciTegic.value.DoubleValue
5.001

@<SCITEGIC>MOL_PROPERTY
Coulomb
SciTegic.value.DoubleValue
70.004

@<SCITEGIC>MOL_PROPERTY
VdW
SciTegic.value.DoubleValue
-0.141

@<SCITEGIC>MOL_PROPERTY
VdW6
SciTegic.value.DoubleValue
-8.153

@<SCITEGIC>MOL_PROPERTY
VdW12
SciTegic.value.DoubleValue
8.012

@<SCITEGIC>MOL_PROPERTY
Bond
SciTegic.value.DoubleValue
0.241

@<SCITEGIC>MOL_PROPERTY
Angle
SciTegic.value.DoubleValue
1.605

@<SCITEGIC>MOL_PROPERTY
Pdih
SciTegic.value.DoubleValue
3.155

@<SCITEGIC>MOL_PROPERTY
Idih
SciTegic.value.DoubleValue
0.000

@<SCITEGIC>MOL_PROPERTY
Tether
SciTegic.value.DoubleValue
0.000

@<TRIPOS>MOLECULE
guest-s12_vm2.mol2 : vm2 ligand conformer 180
          26          25           1
SMALL
USER_CHARGES
 
@<TRIPOS>ATOM
       1    N1      19.846857   19.483452   26.044751 N.4        1 MOL1        -0.4857
       2    H1      19.310909   19.770216   26.879234 H          1 MOL1         0.3650
       3    H2      20.370075   20.325054   25.760997 H          1 MOL1         0.3650
       4    C1      18.886031   19.067167   24.941612 C.3        1 MOL1         0.0209
       5    H3      18.147633   19.865640   24.832881 H          1 MOL1         0.0967
       6    H4      18.362574   18.170444   25.282740 H          1 MOL1         0.0967
       7    C2      19.534224   18.792688   23.566651 C.3        1 MOL1        -0.1378
       8    H5      20.252818   17.967433   23.650446 H          1 MOL1         0.0993
       9    H6      18.742178   18.453896   22.887948 H          1 MOL1         0.0993
      10    C3      20.225082   20.042191   22.968114 C.3        1 MOL1        -0.1338
      11    H7      20.950307   20.438745   23.690675 H          1 MOL1         0.0993
      12    H8      19.478500   20.834147   22.817110 H          1 MOL1         0.0993
      13    C4      20.975893   19.781376   21.636408 C.3        1 MOL1        -0.1338
      14    H9      21.456029   20.723780   21.338328 H          1 MOL1         0.0993
      15    H10     21.797879   19.070747   21.799454 H          1 MOL1         0.0993
      16    C5      20.079830   19.305292   20.463739 C.3        1 MOL1        -0.1313
      17    H11     20.460429   19.745508   19.531345 H          1 MOL1         0.0993
      18    H12     19.057363   19.689964   20.582903 H          1 MOL1         0.0993
      19    C6      20.060247   17.768291   20.290816 C.3        1 MOL1        -0.2328
      20    H13     19.671760   17.257239   21.178497 H          1 MOL1         0.1004
      21    H14     21.069500   17.383473   20.094945 H          1 MOL1         0.1004
      22    H15     19.426231   17.485680   19.440486 H          1 MOL1         0.1004
      23    C7      20.799837   18.349542   26.404909 C.3        1 MOL1        -0.0781
      24    H16     20.219392   17.478618   26.716924 H          1 MOL1         0.0978
      25    H17     21.407243   18.097828   25.533215 H          1 MOL1         0.0978
      26    H18     21.447568   18.673316   27.222621 H          1 MOL1         0.0978
@<TRIPOS>BOND
    1     1     2    1
    2     1     3    1
    3     1     4    1
    4     4     5    1
    5     4     6    1
    6     4     7    1
    7     7     8    1
    8     7     9    1
    9     7    10    1
   10    10    11    1
   11    10    12    1
   12    10    13    1
   13    13    14    1
   14    13    15    1
   15    13    16    1
   16    16    17    1
   17    16    18    1
   18    16    19    1
   19    19    20    1
   20    19    21    1
   21    19    22    1
   22     1    23    1
   23    23    24    1
   24    23    25    1
   25    23    26    1
@<TRIPOS>SUBSTRUCTURE
       1 MOL1            1 RESIDUE      1      MOL     
@<SCITEGIC>MOL_PROPERTY
VM2 Rank
SciTegic.value.IntegerValue
180

@<SCITEGIC>MOL_PROPERTY
Conf_Id
SciTegic.value.IntegerValue
123

@<SCITEGIC>MOL_PROPERTY
Probability
SciTegic.value.DoubleValue
0.01

@<SCITEGIC>MOL_PROPERTY
Sum Probability
SciTegic.value.DoubleValue
99.94

@<SCITEGIC>MOL_PROPERTY
Delta G
SciTegic.value.DoubleValue
4.096

@<SCITEGIC>MOL_PROPERTY
G
SciTegic.value.DoubleValue
79.562

@<SCITEGIC>MOL_PROPERTY
E
SciTegic.value.DoubleValue
46.770

@<SCITEGIC>MOL_PROPERTY
-TS
SciTegic.value.DoubleValue
32.792

@<SCITEGIC>MOL_PROPERTY
U+W
SciTegic.value.DoubleValue
25.308

@<SCITEGIC>MOL_PROPERTY
U
SciTegic.value.DoubleValue
74.926

@<SCITEGIC>MOL_PROPERTY
W
SciTegic.value.DoubleValue
-49.617

@<SCITEGIC>MOL_PROPERTY
W(PB)
SciTegic.value.DoubleValue
-51.833

@<SCITEGIC>MOL_PROPERTY
W(SA)
SciTegic.value.DoubleValue
2.215

@<SCITEGIC>MOL_PROPERTY
Valence
SciTegic.value.DoubleValue
5.130

@<SCITEGIC>MOL_PROPERTY
Coulomb
SciTegic.value.DoubleValue
69.227

@<SCITEGIC>MOL_PROPERTY
VdW
SciTegic.value.DoubleValue
0.569

@<SCITEGIC>MOL_PROPERTY
VdW6
SciTegic.value.DoubleValue
-8.233

@<SCITEGIC>MOL_PROPERTY
VdW12
SciTegic.value.DoubleValue
8.801

@<SCITEGIC>MOL_PROPERTY
Bond
SciTegic.value.DoubleValue
0.274

@<SCITEGIC>MOL_PROPERTY
Angle
SciTegic.value.DoubleValue
1.422

@<SCITEGIC>MOL_PROPERTY
Pdih
SciTegic.value.DoubleValue
3.434

@<SCITEGIC>MOL_PROPERTY
Idih
SciTegic.value.DoubleValue
0.000

@<SCITEGIC>MOL_PROPERTY
Tether
SciTegic.value.DoubleValue
0.000

@<TRIPOS>MOLECULE
guest-s12_vm2.mol2 : vm2 ligand conformer 181
          26          25           1
SMALL
USER_CHARGES
 
@<TRIPOS>ATOM
       1    N1      19.658798   18.773329   25.861517 N.4        1 MOL1        -0.4857
       2    H1      20.378272   19.155491   26.494419 H          1 MOL1         0.3650
       3    H2      19.301676   17.932191   26.341774 H          1 MOL1         0.3650
       4    C1      20.284625   18.375112   24.535552 C.3        1 MOL1         0.0209
       5    H3      19.485824   18.017812   23.881418 H          1 MOL1         0.0967
       6    H4      20.960496   17.539185   24.732914 H          1 MOL1         0.0967
       7    C2      21.074106   19.501710   23.835695 C.3        1 MOL1        -0.1378
       8    H5      20.417250   20.349236   23.608240 H          1 MOL1         0.0993
       9    H6      21.835591   19.885052   24.527504 H          1 MOL1         0.0993
      10    C3      21.775141   19.021417   22.542648 C.3        1 MOL1        -0.1338
      11    H7      22.535017   18.275558   22.814233 H          1 MOL1         0.0993
      12    H8      22.327966   19.863459   22.103865 H          1 MOL1         0.0993
      13    C4      20.847146   18.404678   21.460903 C.3        1 MOL1        -0.1338
      14    H9      21.492292   18.052739   20.643942 H          1 MOL1         0.0993
      15    H10     20.348582   17.503947   21.843272 H          1 MOL1         0.0993
      16    C5      19.806879   19.381707   20.853544 C.3        1 MOL1        -0.1313
      17    H11     19.643380   19.102419   19.803177 H          1 MOL1         0.0993
      18    H12     20.208881   20.404215   20.833885 H          1 MOL1         0.0993
      19    C6      18.434618   19.357856   21.566475 C.3        1 MOL1        -0.2328
      20    H13     18.014327   18.343918   21.578717 H          1 MOL1         0.1004
      21    H14     17.720882   20.006585   21.042457 H          1 MOL1         0.1004
      22    H15     18.499579   19.712050   22.599906 H          1 MOL1         0.1004
      23    C7      18.526687   19.774193   25.660667 C.3        1 MOL1        -0.0781
      24    H16     17.770483   19.333944   25.007131 H          1 MOL1         0.0978
      25    H17     18.083081   20.010547   26.630428 H          1 MOL1         0.0978
      26    H18     18.924582   20.684450   25.207748 H          1 MOL1         0.0978
@<TRIPOS>BOND
    1     1     2    1
    2     1     3    1
    3     1     4    1
    4     4     5    1
    5     4     6    1
    6     4     7    1
    7     7     8    1
    8     7     9    1
    9     7    10    1
   10    10    11    1
   11    10    12    1
   12    10    13    1
   13    13    14    1
   14    13    15    1
   15    13    16    1
   16    16    17    1
   17    16    18    1
   18    16    19    1
   19    19    20    1
   20    19    21    1
   21    19    22    1
   22     1    23    1
   23    23    24    1
   24    23    25    1
   25    23    26    1
@<TRIPOS>SUBSTRUCTURE
       1 MOL1            1 RESIDUE      1      MOL     
@<SCITEGIC>MOL_PROPERTY
VM2 Rank
SciTegic.value.IntegerValue
181

@<SCITEGIC>MOL_PROPERTY
Conf_Id
SciTegic.value.IntegerValue
1596

@<SCITEGIC>MOL_PROPERTY
Probability
SciTegic.value.DoubleValue
0.01

@<SCITEGIC>MOL_PROPERTY
Sum Probability
SciTegic.value.DoubleValue
99.95

@<SCITEGIC>MOL_PROPERTY
Delta G
SciTegic.value.DoubleValue
4.132

@<SCITEGIC>MOL_PROPERTY
G
SciTegic.value.DoubleValue
79.598

@<SCITEGIC>MOL_PROPERTY
E
SciTegic.value.DoubleValue
46.415

@<SCITEGIC>MOL_PROPERTY
-TS
SciTegic.value.DoubleValue
33.184

@<SCITEGIC>MOL_PROPERTY
U+W
SciTegic.value.DoubleValue
24.953

@<SCITEGIC>MOL_PROPERTY
U
SciTegic.value.DoubleValue
75.063

@<SCITEGIC>MOL_PROPERTY
W
SciTegic.value.DoubleValue
-50.110

@<SCITEGIC>MOL_PROPERTY
W(PB)
SciTegic.value.DoubleValue
-52.261

@<SCITEGIC>MOL_PROPERTY
W(SA)
SciTegic.value.DoubleValue
2.151

@<SCITEGIC>MOL_PROPERTY
Valence
SciTegic.value.DoubleValue
5.293

@<SCITEGIC>MOL_PROPERTY
Coulomb
SciTegic.value.DoubleValue
69.832

@<SCITEGIC>MOL_PROPERTY
VdW
SciTegic.value.DoubleValue
-0.063

@<SCITEGIC>MOL_PROPERTY
VdW6
SciTegic.value.DoubleValue
-9.167

@<SCITEGIC>MOL_PROPERTY
VdW12
SciTegic.value.DoubleValue
9.104

@<SCITEGIC>MOL_PROPERTY
Bond
SciTegic.value.DoubleValue
0.277

@<SCITEGIC>MOL_PROPERTY
Angle
SciTegic.value.DoubleValue
1.740

@<SCITEGIC>MOL_PROPERTY
Pdih
SciTegic.value.DoubleValue
3.276

@<SCITEGIC>MOL_PROPERTY
Idih
SciTegic.value.DoubleValue
0.000

@<SCITEGIC>MOL_PROPERTY
Tether
SciTegic.value.DoubleValue
0.000

@<TRIPOS>MOLECULE
guest-s12_vm2.mol2 : vm2 ligand conformer 182
          26          25           1
SMALL
USER_CHARGES
 
@<TRIPOS>ATOM
       1    N1      20.351149   18.264615   25.877153 N.4        1 MOL1        -0.4857
       2    H1      21.227691   18.074451   26.388423 H          1 MOL1         0.3650
       3    H2      20.044331   17.345291   25.523625 H          1 MOL1         0.3650
       4    C1      20.633229   19.206216   24.718178 C.3        1 MOL1         0.0209
       5    H3      21.498518   18.807174   24.184249 H          1 MOL1         0.0967
       6    H4      20.910561   20.177977   25.134179 H          1 MOL1         0.0967
       7    C2      19.459481   19.374883   23.729237 C.3        1 MOL1        -0.1378
       8    H5      19.152582   18.391568   23.356714 H          1 MOL1         0.0993
       9    H6      18.594457   19.786906   24.264369 H          1 MOL1         0.0993
      10    C3      19.804539   20.322914   22.552507 C.3        1 MOL1        -0.1338
      11    H7      20.140927   21.280210   22.974512 H          1 MOL1         0.0993
      12    H8      18.892870   20.555157   21.985061 H          1 MOL1         0.0993
      13    C4      20.899222   19.793642   21.585569 C.3        1 MOL1        -0.1338
      14    H9      21.471926   20.656176   21.217483 H          1 MOL1         0.0993
      15    H10     21.625316   19.166934   22.118740 H          1 MOL1         0.0993
      16    C5      20.359151   19.034666   20.346430 C.3        1 MOL1        -0.1313
      17    H11     21.208916   18.779312   19.697924 H          1 MOL1         0.0993
      18    H12     19.716573   19.702124   19.755349 H          1 MOL1         0.0993
      19    C6      19.585552   17.740107   20.678966 C.3        1 MOL1        -0.2328
      20    H13     20.172754   17.083889   21.334268 H          1 MOL1         0.1004
      21    H14     19.359433   17.182427   19.760957 H          1 MOL1         0.1004
      22    H15     18.629867   17.961855   21.169218 H          1 MOL1         0.1004
      23    C7      19.315677   18.852956   26.828959 C.3        1 MOL1        -0.0781
      24    H16     19.169626   18.166727   27.666118 H          1 MOL1         0.0978
      25    H17     19.675136   19.815333   27.199701 H          1 MOL1         0.0978
      26    H18     18.371631   18.989262   26.297760 H          1 MOL1         0.0978
@<TRIPOS>BOND
    1     1     2    1
    2     1     3    1
    3     1     4    1
    4     4     5    1
    5     4     6    1
    6     4     7    1
    7     7     8    1
    8     7     9    1
    9     7    10    1
   10    10    11    1
   11    10    12    1
   12    10    13    1
   13    13    14    1
   14    13    15    1
   15    13    16    1
   16    16    17    1
   17    16    18    1
   18    16    19    1
   19    19    20    1
   20    19    21    1
   21    19    22    1
   22     1    23    1
   23    23    24    1
   24    23    25    1
   25    23    26    1
@<TRIPOS>SUBSTRUCTURE
       1 MOL1            1 RESIDUE      1      MOL     
@<SCITEGIC>MOL_PROPERTY
VM2 Rank
SciTegic.value.IntegerValue
182

@<SCITEGIC>MOL_PROPERTY
Conf_Id
SciTegic.value.IntegerValue
262

@<SCITEGIC>MOL_PROPERTY
Probability
SciTegic.value.DoubleValue
0.01

@<SCITEGIC>MOL_PROPERTY
Sum Probability
SciTegic.value.DoubleValue
99.96

@<SCITEGIC>MOL_PROPERTY
Delta G
SciTegic.value.DoubleValue
4.268

@<SCITEGIC>MOL_PROPERTY
G
SciTegic.value.DoubleValue
79.735

@<SCITEGIC>MOL_PROPERTY
E
SciTegic.value.DoubleValue
47.025

@<SCITEGIC>MOL_PROPERTY
-TS
SciTegic.value.DoubleValue
32.709

@<SCITEGIC>MOL_PROPERTY
U+W
SciTegic.value.DoubleValue
25.564

@<SCITEGIC>MOL_PROPERTY
U
SciTegic.value.DoubleValue
75.336

@<SCITEGIC>MOL_PROPERTY
W
SciTegic.value.DoubleValue
-49.772

@<SCITEGIC>MOL_PROPERTY
W(PB)
SciTegic.value.DoubleValue
-51.994

@<SCITEGIC>MOL_PROPERTY
W(SA)
SciTegic.value.DoubleValue
2.221

@<SCITEGIC>MOL_PROPERTY
Valence
SciTegic.value.DoubleValue
5.408

@<SCITEGIC>MOL_PROPERTY
Coulomb
SciTegic.value.DoubleValue
69.355

@<SCITEGIC>MOL_PROPERTY
VdW
SciTegic.value.DoubleValue
0.572

@<SCITEGIC>MOL_PROPERTY
VdW6
SciTegic.value.DoubleValue
-8.078

@<SCITEGIC>MOL_PROPERTY
VdW12
SciTegic.value.DoubleValue
8.651

@<SCITEGIC>MOL_PROPERTY
Bond
SciTegic.value.DoubleValue
0.286

@<SCITEGIC>MOL_PROPERTY
Angle
SciTegic.value.DoubleValue
1.495

@<SCITEGIC>MOL_PROPERTY
Pdih
SciTegic.value.DoubleValue
3.627

@<SCITEGIC>MOL_PROPERTY
Idih
SciTegic.value.DoubleValue
0.000

@<SCITEGIC>MOL_PROPERTY
Tether
SciTegic.value.DoubleValue
0.000

@<TRIPOS>MOLECULE
guest-s12_vm2.mol2 : vm2 ligand conformer 183
          26          25           1
SMALL
USER_CHARGES
 
@<TRIPOS>ATOM
       1    N1      19.673433   19.193531   25.675755 N.4        1 MOL1        -0.4857
       2    H1      19.147695   18.416597   26.105296 H          1 MOL1         0.3650
       3    H2      18.967189   19.780196   25.206528 H          1 MOL1         0.3650
       4    C1      20.658799   18.656019   24.656615 C.3        1 MOL1         0.0209
       5    H3      21.382518   18.036160   25.191923 H          1 MOL1         0.0967
       6    H4      21.194959   19.504938   24.226626 H          1 MOL1         0.0967
       7    C2      20.006840   17.823656   23.532602 C.3        1 MOL1        -0.1378
       8    H5      20.799099   17.439457   22.881621 H          1 MOL1         0.0993
       9    H6      19.534003   16.938569   23.978351 H          1 MOL1         0.0993
      10    C3      18.946401   18.593284   22.697972 C.3        1 MOL1        -0.1338
      11    H7      18.116269   18.867163   23.362599 H          1 MOL1         0.0993
      12    H8      18.506605   17.916547   21.952557 H          1 MOL1         0.0993
      13    C4      19.456018   19.880541   21.992017 C.3        1 MOL1        -0.1338
      14    H9      18.611460   20.579797   21.919921 H          1 MOL1         0.0993
      15    H10     20.206542   20.396553   22.603672 H          1 MOL1         0.0993
      16    C5      19.999388   19.671561   20.555180 C.3        1 MOL1        -0.1313
      17    H11     20.241450   20.656419   20.131692 H          1 MOL1         0.0993
      18    H12     19.208327   19.253919   19.916797 H          1 MOL1         0.0993
      19    C6      21.255311   18.777629   20.467369 C.3        1 MOL1        -0.2328
      20    H13     22.025406   19.101584   21.179308 H          1 MOL1         0.1004
      21    H14     21.688356   18.824411   19.459816 H          1 MOL1         0.1004
      22    H15     21.010817   17.727473   20.665903 H          1 MOL1         0.1004
      23    C7      20.411809   19.993779   26.739489 C.3        1 MOL1        -0.0781
      24    H16     20.933604   20.827283   26.264196 H          1 MOL1         0.0978
      25    H17     19.690585   20.375722   27.465473 H          1 MOL1         0.0978
      26    H18     21.132041   19.344273   27.241803 H          1 MOL1         0.0978
@<TRIPOS>BOND
    1     1     2    1
    2     1     3    1
    3     1     4    1
    4     4     5    1
    5     4     6    1
    6     4     7    1
    7     7     8    1
    8     7     9    1
    9     7    10    1
   10    10    11    1
   11    10    12    1
   12    10    13    1
   13    13    14    1
   14    13    15    1
   15    13    16    1
   16    16    17    1
   17    16    18    1
   18    16    19    1
   19    19    20    1
   20    19    21    1
   21    19    22    1
   22     1    23    1
   23    23    24    1
   24    23    25    1
   25    23    26    1
@<TRIPOS>SUBSTRUCTURE
       1 MOL1            1 RESIDUE      1      MOL     
@<SCITEGIC>MOL_PROPERTY
VM2 Rank
SciTegic.value.IntegerValue
183

@<SCITEGIC>MOL_PROPERTY
Conf_Id
SciTegic.value.IntegerValue
461

@<SCITEGIC>MOL_PROPERTY
Probability
SciTegic.value.DoubleValue
0.01

@<SCITEGIC>MOL_PROPERTY
Sum Probability
SciTegic.value.DoubleValue
99.96

@<SCITEGIC>MOL_PROPERTY
Delta G
SciTegic.value.DoubleValue
4.279

@<SCITEGIC>MOL_PROPERTY
G
SciTegic.value.DoubleValue
79.746

@<SCITEGIC>MOL_PROPERTY
E
SciTegic.value.DoubleValue
47.311

@<SCITEGIC>MOL_PROPERTY
-TS
SciTegic.value.DoubleValue
32.435

@<SCITEGIC>MOL_PROPERTY
U+W
SciTegic.value.DoubleValue
25.849

@<SCITEGIC>MOL_PROPERTY
U
SciTegic.value.DoubleValue
75.363

@<SCITEGIC>MOL_PROPERTY
W
SciTegic.value.DoubleValue
-49.514

@<SCITEGIC>MOL_PROPERTY
W(PB)
SciTegic.value.DoubleValue
-51.743

@<SCITEGIC>MOL_PROPERTY
W(SA)
SciTegic.value.DoubleValue
2.229

@<SCITEGIC>MOL_PROPERTY
Valence
SciTegic.value.DoubleValue
5.261

@<SCITEGIC>MOL_PROPERTY
Coulomb
SciTegic.value.DoubleValue
69.863

@<SCITEGIC>MOL_PROPERTY
VdW
SciTegic.value.DoubleValue
0.239

@<SCITEGIC>MOL_PROPERTY
VdW6
SciTegic.value.DoubleValue
-8.242

@<SCITEGIC>MOL_PROPERTY
VdW12
SciTegic.value.DoubleValue
8.481

@<SCITEGIC>MOL_PROPERTY
Bond
SciTegic.value.DoubleValue
0.287

@<SCITEGIC>MOL_PROPERTY
Angle
SciTegic.value.DoubleValue
1.777

@<SCITEGIC>MOL_PROPERTY
Pdih
SciTegic.value.DoubleValue
3.198

@<SCITEGIC>MOL_PROPERTY
Idih
SciTegic.value.DoubleValue
0.000

@<SCITEGIC>MOL_PROPERTY
Tether
SciTegic.value.DoubleValue
0.000

@<TRIPOS>MOLECULE
guest-s12_vm2.mol2 : vm2 ligand conformer 184
          26          25           1
SMALL
USER_CHARGES
 
@<TRIPOS>ATOM
       1    N1      18.980859   19.352743   25.007367 N.4        1 MOL1        -0.4857
       2    H1      17.982455   19.107955   25.102264 H          1 MOL1         0.3650
       3    H2      19.017826   20.063966   24.262533 H          1 MOL1         0.3650
       4    C1      19.771386   18.122739   24.589621 C.3        1 MOL1         0.0209
       5    H3      19.259501   17.670703   23.737772 H          1 MOL1         0.0967
       6    H4      19.730591   17.408476   25.415826 H          1 MOL1         0.0967
       7    C2      21.245249   18.387588   24.213090 C.3        1 MOL1        -0.1378
       8    H5      21.785635   18.715575   25.110476 H          1 MOL1         0.0993
       9    H6      21.708047   17.436077   23.920029 H          1 MOL1         0.0993
      10    C3      21.465876   19.432115   23.086205 C.3        1 MOL1        -0.1338
      11    H7      22.549606   19.593389   23.002585 H          1 MOL1         0.0993
      12    H8      21.049503   20.406910   23.372947 H          1 MOL1         0.0993
      13    C4      20.944763   19.009822   21.687123 C.3        1 MOL1        -0.1338
      14    H9      21.547868   19.530277   20.930147 H          1 MOL1         0.0993
      15    H10     21.121263   17.937175   21.527754 H          1 MOL1         0.0993
      16    C5      19.457239   19.352013   21.429253 C.3        1 MOL1        -0.1313
      17    H11     19.285625   20.422085   21.610867 H          1 MOL1         0.0993
      18    H12     18.806396   18.803165   22.118675 H          1 MOL1         0.0993
      19    C6      19.040477   19.011496   19.982495 C.3        1 MOL1        -0.2328
      20    H13     19.172201   17.941460   19.775388 H          1 MOL1         0.1004
      21    H14     19.637906   19.576447   19.255094 H          1 MOL1         0.1004
      22    H15     17.984316   19.259258   19.814642 H          1 MOL1         0.1004
      23    C7      19.502151   19.921484   26.321846 C.3        1 MOL1        -0.0781
      24    H16     19.436876   19.153568   27.095663 H          1 MOL1         0.0978
      25    H17     20.541200   20.231648   26.193918 H          1 MOL1         0.0978
      26    H18     18.893563   20.783134   26.605016 H          1 MOL1         0.0978
@<TRIPOS>BOND
    1     1     2    1
    2     1     3    1
    3     1     4    1
    4     4     5    1
    5     4     6    1
    6     4     7    1
    7     7     8    1
    8     7     9    1
    9     7    10    1
   10    10    11    1
   11    10    12    1
   12    10    13    1
   13    13    14    1
   14    13    15    1
   15    13    16    1
   16    16    17    1
   17    16    18    1
   18    16    19    1
   19    19    20    1
   20    19    21    1
   21    19    22    1
   22     1    23    1
   23    23    24    1
   24    23    25    1
   25    23    26    1
@<TRIPOS>SUBSTRUCTURE
       1 MOL1            1 RESIDUE      1      MOL     
@<SCITEGIC>MOL_PROPERTY
VM2 Rank
SciTegic.value.IntegerValue
184

@<SCITEGIC>MOL_PROPERTY
Conf_Id
SciTegic.value.IntegerValue
1259

@<SCITEGIC>MOL_PROPERTY
Probability
SciTegic.value.DoubleValue
0.01

@<SCITEGIC>MOL_PROPERTY
Sum Probability
SciTegic.value.DoubleValue
99.97

@<SCITEGIC>MOL_PROPERTY
Delta G
SciTegic.value.DoubleValue
4.289

@<SCITEGIC>MOL_PROPERTY
G
SciTegic.value.DoubleValue
79.755

@<SCITEGIC>MOL_PROPERTY
E
SciTegic.value.DoubleValue
46.886

@<SCITEGIC>MOL_PROPERTY
-TS
SciTegic.value.DoubleValue
32.869

@<SCITEGIC>MOL_PROPERTY
U+W
SciTegic.value.DoubleValue
25.424

@<SCITEGIC>MOL_PROPERTY
U
SciTegic.value.DoubleValue
75.499

@<SCITEGIC>MOL_PROPERTY
W
SciTegic.value.DoubleValue
-50.075

@<SCITEGIC>MOL_PROPERTY
W(PB)
SciTegic.value.DoubleValue
-52.287

@<SCITEGIC>MOL_PROPERTY
W(SA)
SciTegic.value.DoubleValue
2.213

@<SCITEGIC>MOL_PROPERTY
Valence
SciTegic.value.DoubleValue
4.692

@<SCITEGIC>MOL_PROPERTY
Coulomb
SciTegic.value.DoubleValue
70.717

@<SCITEGIC>MOL_PROPERTY
VdW
SciTegic.value.DoubleValue
0.090

@<SCITEGIC>MOL_PROPERTY
VdW6
SciTegic.value.DoubleValue
-8.741

@<SCITEGIC>MOL_PROPERTY
VdW12
SciTegic.value.DoubleValue
8.830

@<SCITEGIC>MOL_PROPERTY
Bond
SciTegic.value.DoubleValue
0.270

@<SCITEGIC>MOL_PROPERTY
Angle
SciTegic.value.DoubleValue
1.624

@<SCITEGIC>MOL_PROPERTY
Pdih
SciTegic.value.DoubleValue
2.798

@<SCITEGIC>MOL_PROPERTY
Idih
SciTegic.value.DoubleValue
0.000

@<SCITEGIC>MOL_PROPERTY
Tether
SciTegic.value.DoubleValue
0.000

@<TRIPOS>MOLECULE
guest-s12_vm2.mol2 : vm2 ligand conformer 185
          26          25           1
SMALL
USER_CHARGES
 
@<TRIPOS>ATOM
       1    N1      20.919368   19.551690   25.076035 N.4        1 MOL1        -0.4857
       2    H1      20.791029   20.246037   24.325437 H          1 MOL1         0.3650
       3    H2      21.937545   19.513846   25.242223 H          1 MOL1         0.3650
       4    C1      20.425976   18.189972   24.612744 C.3        1 MOL1         0.0209
       5    H3      20.552917   17.492851   25.444824 H          1 MOL1         0.0967
       6    H4      21.077207   17.857365   23.802013 H          1 MOL1         0.0967
       7    C2      18.959051   18.153100   24.132155 C.3        1 MOL1        -0.1378
       8    H5      18.720483   17.129612   23.814353 H          1 MOL1         0.0993
       9    H6      18.301949   18.358309   24.987138 H          1 MOL1         0.0993
      10    C3      18.610602   19.139140   22.985034 C.3        1 MOL1        -0.1338
      11    H7      18.799470   20.176066   23.293138 H          1 MOL1         0.0993
      12    H8      17.525262   19.077819   22.824570 H          1 MOL1         0.0993
      13    C4      19.303236   18.841268   21.628993 C.3        1 MOL1        -0.1338
      14    H9      19.359826   17.756271   21.465590 H          1 MOL1         0.0993
      15    H10     18.661522   19.233688   20.827849 H          1 MOL1         0.0993
      16    C5      20.704609   19.480209   21.473326 C.3        1 MOL1        -0.1313
      17    H11     21.403401   19.070284   22.210745 H          1 MOL1         0.0993
      18    H12     20.642171   20.561562   21.658442 H          1 MOL1         0.0993
      19    C6      21.282180   19.241365   20.061903 C.3        1 MOL1        -0.2328
      20    H13     21.385401   18.168324   19.854175 H          1 MOL1         0.1004
      21    H14     22.275104   19.699668   19.966524 H          1 MOL1         0.1004
      22    H15     20.634915   19.678124   19.290219 H          1 MOL1         0.1004
      23    C7      20.202977   19.993256   26.346810 C.3        1 MOL1        -0.0781
      24    H16     20.368476   19.248950   27.128708 H          1 MOL1         0.0978
      25    H17     20.602765   20.958384   26.665721 H          1 MOL1         0.0978
      26    H18     19.134139   20.087069   26.144385 H          1 MOL1         0.0978
@<TRIPOS>BOND
    1     1     2    1
    2     1     3    1
    3     1     4    1
    4     4     5    1
    5     4     6    1
    6     4     7    1
    7     7     8    1
    8     7     9    1
    9     7    10    1
   10    10    11    1
   11    10    12    1
   12    10    13    1
   13    13    14    1
   14    13    15    1
   15    13    16    1
   16    16    17    1
   17    16    18    1
   18    16    19    1
   19    19    20    1
   20    19    21    1
   21    19    22    1
   22     1    23    1
   23    23    24    1
   24    23    25    1
   25    23    26    1
@<TRIPOS>SUBSTRUCTURE
       1 MOL1            1 RESIDUE      1      MOL     
@<SCITEGIC>MOL_PROPERTY
VM2 Rank
SciTegic.value.IntegerValue
185

@<SCITEGIC>MOL_PROPERTY
Conf_Id
SciTegic.value.IntegerValue
1585

@<SCITEGIC>MOL_PROPERTY
Probability
SciTegic.value.DoubleValue
0.00

@<SCITEGIC>MOL_PROPERTY
Sum Probability
SciTegic.value.DoubleValue
99.97

@<SCITEGIC>MOL_PROPERTY
Delta G
SciTegic.value.DoubleValue
4.386

@<SCITEGIC>MOL_PROPERTY
G
SciTegic.value.DoubleValue
79.852

@<SCITEGIC>MOL_PROPERTY
E
SciTegic.value.DoubleValue
46.983

@<SCITEGIC>MOL_PROPERTY
-TS
SciTegic.value.DoubleValue
32.870

@<SCITEGIC>MOL_PROPERTY
U+W
SciTegic.value.DoubleValue
25.521

@<SCITEGIC>MOL_PROPERTY
U
SciTegic.value.DoubleValue
75.499

@<SCITEGIC>MOL_PROPERTY
W
SciTegic.value.DoubleValue
-49.978

@<SCITEGIC>MOL_PROPERTY
W(PB)
SciTegic.value.DoubleValue
-52.163

@<SCITEGIC>MOL_PROPERTY
W(SA)
SciTegic.value.DoubleValue
2.185

@<SCITEGIC>MOL_PROPERTY
Valence
SciTegic.value.DoubleValue
4.692

@<SCITEGIC>MOL_PROPERTY
Coulomb
SciTegic.value.DoubleValue
70.717

@<SCITEGIC>MOL_PROPERTY
VdW
SciTegic.value.DoubleValue
0.090

@<SCITEGIC>MOL_PROPERTY
VdW6
SciTegic.value.DoubleValue
-8.740

@<SCITEGIC>MOL_PROPERTY
VdW12
SciTegic.value.DoubleValue
8.830

@<SCITEGIC>MOL_PROPERTY
Bond
SciTegic.value.DoubleValue
0.270

@<SCITEGIC>MOL_PROPERTY
Angle
SciTegic.value.DoubleValue
1.623

@<SCITEGIC>MOL_PROPERTY
Pdih
SciTegic.value.DoubleValue
2.799

@<SCITEGIC>MOL_PROPERTY
Idih
SciTegic.value.DoubleValue
0.000

@<SCITEGIC>MOL_PROPERTY
Tether
SciTegic.value.DoubleValue
0.000

@<TRIPOS>MOLECULE
guest-s12_vm2.mol2 : vm2 ligand conformer 186
          26          25           1
SMALL
USER_CHARGES
 
@<TRIPOS>ATOM
       1    N1      20.057396   18.030863   25.530688 N.4        1 MOL1        -0.4857
       2    H1      20.928955   17.568372   25.230051 H          1 MOL1         0.3650
       3    H2      19.413882   17.259541   25.768929 H          1 MOL1         0.3650
       4    C1      19.472873   18.846534   24.389609 C.3        1 MOL1         0.0209
       5    H3      18.579458   19.354401   24.761270 H          1 MOL1         0.0967
       6    H4      19.163899   18.141471   23.614281 H          1 MOL1         0.0967
       7    C2      20.443955   19.876810   23.774524 C.3        1 MOL1        -0.1378
       8    H5      20.740303   20.600810   24.544249 H          1 MOL1         0.0993
       9    H6      21.367683   19.381169   23.452849 H          1 MOL1         0.0993
      10    C3      19.819552   20.650283   22.588641 C.3        1 MOL1        -0.1338
      11    H7      20.554745   21.373983   22.210558 H          1 MOL1         0.0993
      12    H8      18.979199   21.249196   22.966256 H          1 MOL1         0.0993
      13    C4      19.310913   19.780944   21.406577 C.3        1 MOL1        -0.1338
      14    H9      18.500451   19.115613   21.732906 H          1 MOL1         0.0993
      15    H10     18.848861   20.462769   20.679166 H          1 MOL1         0.0993
      16    C5      20.408661   18.973266   20.666169 C.3        1 MOL1        -0.1313
      17    H11     21.364289   19.515194   20.691259 H          1 MOL1         0.0993
      18    H12     20.129943   18.903884   19.605266 H          1 MOL1         0.0993
      19    C6      20.593473   17.533467   21.200095 C.3        1 MOL1        -0.2328
      20    H13     20.955559   17.518130   22.233006 H          1 MOL1         0.1004
      21    H14     21.325696   16.990703   20.588417 H          1 MOL1         0.1004
      22    H15     19.649491   16.974661   21.160890 H          1 MOL1         0.1004
      23    C7      20.301177   18.897834   26.760697 C.3        1 MOL1        -0.0781
      24    H16     19.359744   19.359329   27.066537 H          1 MOL1         0.0978
      25    H17     20.684195   18.271086   27.569118 H          1 MOL1         0.0978
      26    H18     21.032294   19.671793   26.518941 H          1 MOL1         0.0978
@<TRIPOS>BOND
    1     1     2    1
    2     1     3    1
    3     1     4    1
    4     4     5    1
    5     4     6    1
    6     4     7    1
    7     7     8    1
    8     7     9    1
    9     7    10    1
   10    10    11    1
   11    10    12    1
   12    10    13    1
   13    13    14    1
   14    13    15    1
   15    13    16    1
   16    16    17    1
   17    16    18    1
   18    16    19    1
   19    19    20    1
   20    19    21    1
   21    19    22    1
   22     1    23    1
   23    23    24    1
   24    23    25    1
   25    23    26    1
@<TRIPOS>SUBSTRUCTURE
       1 MOL1            1 RESIDUE      1      MOL     
@<SCITEGIC>MOL_PROPERTY
VM2 Rank
SciTegic.value.IntegerValue
186

@<SCITEGIC>MOL_PROPERTY
Conf_Id
SciTegic.value.IntegerValue
256

@<SCITEGIC>MOL_PROPERTY
Probability
SciTegic.value.DoubleValue
0.00

@<SCITEGIC>MOL_PROPERTY
Sum Probability
SciTegic.value.DoubleValue
99.97

@<SCITEGIC>MOL_PROPERTY
Delta G
SciTegic.value.DoubleValue
4.462

@<SCITEGIC>MOL_PROPERTY
G
SciTegic.value.DoubleValue
79.928

@<SCITEGIC>MOL_PROPERTY
E
SciTegic.value.DoubleValue
46.879

@<SCITEGIC>MOL_PROPERTY
-TS
SciTegic.value.DoubleValue
33.050

@<SCITEGIC>MOL_PROPERTY
U+W
SciTegic.value.DoubleValue
25.417

@<SCITEGIC>MOL_PROPERTY
U
SciTegic.value.DoubleValue
75.440

@<SCITEGIC>MOL_PROPERTY
W
SciTegic.value.DoubleValue
-50.023

@<SCITEGIC>MOL_PROPERTY
W(PB)
SciTegic.value.DoubleValue
-52.249

@<SCITEGIC>MOL_PROPERTY
W(SA)
SciTegic.value.DoubleValue
2.226

@<SCITEGIC>MOL_PROPERTY
Valence
SciTegic.value.DoubleValue
5.297

@<SCITEGIC>MOL_PROPERTY
Coulomb
SciTegic.value.DoubleValue
69.959

@<SCITEGIC>MOL_PROPERTY
VdW
SciTegic.value.DoubleValue
0.184

@<SCITEGIC>MOL_PROPERTY
VdW6
SciTegic.value.DoubleValue
-8.774

@<SCITEGIC>MOL_PROPERTY
VdW12
SciTegic.value.DoubleValue
8.958

@<SCITEGIC>MOL_PROPERTY
Bond
SciTegic.value.DoubleValue
0.280

@<SCITEGIC>MOL_PROPERTY
Angle
SciTegic.value.DoubleValue
1.737

@<SCITEGIC>MOL_PROPERTY
Pdih
SciTegic.value.DoubleValue
3.281

@<SCITEGIC>MOL_PROPERTY
Idih
SciTegic.value.DoubleValue
0.000

@<SCITEGIC>MOL_PROPERTY
Tether
SciTegic.value.DoubleValue
0.000

@<TRIPOS>MOLECULE
guest-s12_vm2.mol2 : vm2 ligand conformer 187
          26          25           1
SMALL
USER_CHARGES
 
@<TRIPOS>ATOM
       1    N1      20.135350   19.291025   25.546095 N.4        1 MOL1        -0.4857
       2    H1      20.893503   19.883180   25.175263 H          1 MOL1         0.3650
       3    H2      20.596653   18.604025   26.162321 H          1 MOL1         0.3650
       4    C1      19.430786   18.579998   24.407682 C.3        1 MOL1         0.0209
       5    H3      18.949464   19.338123   23.785485 H          1 MOL1         0.0967
       6    H4      18.650555   17.950043   24.842318 H          1 MOL1         0.0967
       7    C2      20.367008   17.713622   23.540316 C.3        1 MOL1        -0.1378
       8    H5      20.821110   16.937499   24.170464 H          1 MOL1         0.0993
       9    H6      19.773166   17.175420   22.791703 H          1 MOL1         0.0993
      10    C3      21.490065   18.515052   22.834527 C.3        1 MOL1        -0.1338
      11    H7      22.077187   17.826380   22.211465 H          1 MOL1         0.0993
      12    H8      22.189855   18.889973   23.593405 H          1 MOL1         0.0993
      13    C4      21.021799   19.711467   21.961994 C.3        1 MOL1        -0.1338
      14    H9      20.491090   20.455637   22.570625 H          1 MOL1         0.0993
      15    H10     21.925909   20.223058   21.603701 H          1 MOL1         0.0993
      16    C5      20.175879   19.327222   20.720040 C.3        1 MOL1        -0.1313
      17    H11     20.499369   18.354867   20.323319 H          1 MOL1         0.0993
      18    H12     20.379246   20.058894   19.925492 H          1 MOL1         0.0993
      19    C6      18.650531   19.321912   20.975359 C.3        1 MOL1        -0.2328
      20    H13     18.312692   20.290448   21.366130 H          1 MOL1         0.1004
      21    H14     18.352237   18.544227   21.685693 H          1 MOL1         0.1004
      22    H15     18.108110   19.134514   20.039644 H          1 MOL1         0.1004
      23    C7      19.136581   20.129703   26.330987 C.3        1 MOL1        -0.0781
      24    H16     18.361301   19.476884   26.738013 H          1 MOL1         0.0978
      25    H17     19.657221   20.636845   27.146358 H          1 MOL1         0.0978
      26    H18     18.686080   20.868633   25.664708 H          1 MOL1         0.0978
@<TRIPOS>BOND
    1     1     2    1
    2     1     3    1
    3     1     4    1
    4     4     5    1
    5     4     6    1
    6     4     7    1
    7     7     8    1
    8     7     9    1
    9     7    10    1
   10    10    11    1
   11    10    12    1
   12    10    13    1
   13    13    14    1
   14    13    15    1
   15    13    16    1
   16    16    17    1
   17    16    18    1
   18    16    19    1
   19    19    20    1
   20    19    21    1
   21    19    22    1
   22     1    23    1
   23    23    24    1
   24    23    25    1
   25    23    26    1
@<TRIPOS>SUBSTRUCTURE
       1 MOL1            1 RESIDUE      1      MOL     
@<SCITEGIC>MOL_PROPERTY
VM2 Rank
SciTegic.value.IntegerValue
187

@<SCITEGIC>MOL_PROPERTY
Conf_Id
SciTegic.value.IntegerValue
538

@<SCITEGIC>MOL_PROPERTY
Probability
SciTegic.value.DoubleValue
0.00

@<SCITEGIC>MOL_PROPERTY
Sum Probability
SciTegic.value.DoubleValue
99.98

@<SCITEGIC>MOL_PROPERTY
Delta G
SciTegic.value.DoubleValue
4.477

@<SCITEGIC>MOL_PROPERTY
G
SciTegic.value.DoubleValue
79.944

@<SCITEGIC>MOL_PROPERTY
E
SciTegic.value.DoubleValue
46.915

@<SCITEGIC>MOL_PROPERTY
-TS
SciTegic.value.DoubleValue
33.029

@<SCITEGIC>MOL_PROPERTY
U+W
SciTegic.value.DoubleValue
25.453

@<SCITEGIC>MOL_PROPERTY
U
SciTegic.value.DoubleValue
75.077

@<SCITEGIC>MOL_PROPERTY
W
SciTegic.value.DoubleValue
-49.624

@<SCITEGIC>MOL_PROPERTY
W(PB)
SciTegic.value.DoubleValue
-51.822

@<SCITEGIC>MOL_PROPERTY
W(SA)
SciTegic.value.DoubleValue
2.198

@<SCITEGIC>MOL_PROPERTY
Valence
SciTegic.value.DoubleValue
5.122

@<SCITEGIC>MOL_PROPERTY
Coulomb
SciTegic.value.DoubleValue
70.113

@<SCITEGIC>MOL_PROPERTY
VdW
SciTegic.value.DoubleValue
-0.158

@<SCITEGIC>MOL_PROPERTY
VdW6
SciTegic.value.DoubleValue
-8.845

@<SCITEGIC>MOL_PROPERTY
VdW12
SciTegic.value.DoubleValue
8.687

@<SCITEGIC>MOL_PROPERTY
Bond
SciTegic.value.DoubleValue
0.261

@<SCITEGIC>MOL_PROPERTY
Angle
SciTegic.value.DoubleValue
1.747

@<SCITEGIC>MOL_PROPERTY
Pdih
SciTegic.value.DoubleValue
3.114

@<SCITEGIC>MOL_PROPERTY
Idih
SciTegic.value.DoubleValue
0.000

@<SCITEGIC>MOL_PROPERTY
Tether
SciTegic.value.DoubleValue
0.000

@<TRIPOS>MOLECULE
guest-s12_vm2.mol2 : vm2 ligand conformer 188
          26          25           1
SMALL
USER_CHARGES
 
@<TRIPOS>ATOM
       1    N1      19.766340   19.252771   25.533049 N.4        1 MOL1        -0.4857
       2    H1      19.413477   18.481478   26.120502 H          1 MOL1         0.3650
       3    H2      18.930862   19.679889   25.105845 H          1 MOL1         0.3650
       4    C1      20.679308   18.709214   24.451853 C.3        1 MOL1         0.0209
       5    H3      21.539580   18.249073   24.944512 H          1 MOL1         0.0967
       6    H4      21.037640   19.554273   23.859379 H          1 MOL1         0.0967
       7    C2      20.003117   17.675953   23.527419 C.3        1 MOL1        -0.1378
       8    H5      20.745371   17.276036   22.826094 H          1 MOL1         0.0993
       9    H6      19.674425   16.818812   24.129859 H          1 MOL1         0.0993
      10    C3      18.792065   18.235820   22.739014 C.3        1 MOL1        -0.1338
      11    H7      17.979048   18.454188   23.444342 H          1 MOL1         0.0993
      12    H8      18.403267   17.446147   22.081412 H          1 MOL1         0.0993
      13    C4      19.065599   19.508995   21.892729 C.3        1 MOL1        -0.1338
      14    H9      18.103306   19.827398   21.468315 H          1 MOL1         0.0993
      15    H10     19.388919   20.341575   22.531592 H          1 MOL1         0.0993
      16    C5      20.057060   19.314897   20.715866 C.3        1 MOL1        -0.1313
      17    H11     19.764440   19.995190   19.903720 H          1 MOL1         0.0993
      18    H12     19.967925   18.299810   20.304574 H          1 MOL1         0.0993
      19    C6      21.529534   19.619929   21.077362 C.3        1 MOL1        -0.2328
      20    H13     21.633869   20.634244   21.483781 H          1 MOL1         0.1004
      21    H14     22.162966   19.554247   20.183298 H          1 MOL1         0.1004
      22    H15     21.930159   18.914608   21.812460 H          1 MOL1         0.1004
      23    C7      20.514976   20.272422   26.379708 C.3        1 MOL1        -0.0781
      24    H16     20.850232   21.092650   25.741174 H          1 MOL1         0.0978
      25    H17     19.845852   20.656450   27.152939 H          1 MOL1         0.0978
      26    H18     21.377016   19.789150   26.844722 H          1 MOL1         0.0978
@<TRIPOS>BOND
    1     1     2    1
    2     1     3    1
    3     1     4    1
    4     4     5    1
    5     4     6    1
    6     4     7    1
    7     7     8    1
    8     7     9    1
    9     7    10    1
   10    10    11    1
   11    10    12    1
   12    10    13    1
   13    13    14    1
   14    13    15    1
   15    13    16    1
   16    16    17    1
   17    16    18    1
   18    16    19    1
   19    19    20    1
   20    19    21    1
   21    19    22    1
   22     1    23    1
   23    23    24    1
   24    23    25    1
   25    23    26    1
@<TRIPOS>SUBSTRUCTURE
       1 MOL1            1 RESIDUE      1      MOL     
@<SCITEGIC>MOL_PROPERTY
VM2 Rank
SciTegic.value.IntegerValue
188

@<SCITEGIC>MOL_PROPERTY
Conf_Id
SciTegic.value.IntegerValue
570

@<SCITEGIC>MOL_PROPERTY
Probability
SciTegic.value.DoubleValue
0.00

@<SCITEGIC>MOL_PROPERTY
Sum Probability
SciTegic.value.DoubleValue
99.98

@<SCITEGIC>MOL_PROPERTY
Delta G
SciTegic.value.DoubleValue
4.536

@<SCITEGIC>MOL_PROPERTY
G
SciTegic.value.DoubleValue
80.003

@<SCITEGIC>MOL_PROPERTY
E
SciTegic.value.DoubleValue
46.974

@<SCITEGIC>MOL_PROPERTY
-TS
SciTegic.value.DoubleValue
33.029

@<SCITEGIC>MOL_PROPERTY
U+W
SciTegic.value.DoubleValue
25.512

@<SCITEGIC>MOL_PROPERTY
U
SciTegic.value.DoubleValue
75.077

@<SCITEGIC>MOL_PROPERTY
W
SciTegic.value.DoubleValue
-49.565

@<SCITEGIC>MOL_PROPERTY
W(PB)
SciTegic.value.DoubleValue
-51.762

@<SCITEGIC>MOL_PROPERTY
W(SA)
SciTegic.value.DoubleValue
2.197

@<SCITEGIC>MOL_PROPERTY
Valence
SciTegic.value.DoubleValue
5.122

@<SCITEGIC>MOL_PROPERTY
Coulomb
SciTegic.value.DoubleValue
70.113

@<SCITEGIC>MOL_PROPERTY
VdW
SciTegic.value.DoubleValue
-0.157

@<SCITEGIC>MOL_PROPERTY
VdW6
SciTegic.value.DoubleValue
-8.845

@<SCITEGIC>MOL_PROPERTY
VdW12
SciTegic.value.DoubleValue
8.688

@<SCITEGIC>MOL_PROPERTY
Bond
SciTegic.value.DoubleValue
0.261

@<SCITEGIC>MOL_PROPERTY
Angle
SciTegic.value.DoubleValue
1.747

@<SCITEGIC>MOL_PROPERTY
Pdih
SciTegic.value.DoubleValue
3.114

@<SCITEGIC>MOL_PROPERTY
Idih
SciTegic.value.DoubleValue
0.000

@<SCITEGIC>MOL_PROPERTY
Tether
SciTegic.value.DoubleValue
0.000

@<TRIPOS>MOLECULE
guest-s12_vm2.mol2 : vm2 ligand conformer 189
          26          25           1
SMALL
USER_CHARGES
 
@<TRIPOS>ATOM
       1    N1      19.543786   18.356297   25.379048 N.4        1 MOL1        -0.4857
       2    H1      19.380939   17.373600   25.649956 H          1 MOL1         0.3650
       3    H2      18.659920   18.668803   24.950446 H          1 MOL1         0.3650
       4    C1      20.668216   18.425001   24.358109 C.3        1 MOL1         0.0209
       5    H3      20.445931   17.691573   23.579349 H          1 MOL1         0.0967
       6    H4      21.589850   18.115889   24.857549 H          1 MOL1         0.0967
       7    C2      20.872784   19.809259   23.702078 C.3        1 MOL1        -0.1378
       8    H5      21.170438   20.534214   24.470474 H          1 MOL1         0.0993
       9    H6      21.719515   19.758513   23.007221 H          1 MOL1         0.0993
      10    C3      19.622213   20.343562   22.959412 C.3        1 MOL1        -0.1338
      11    H7      19.869485   21.311654   22.502545 H          1 MOL1         0.0993
      12    H8      18.838347   20.560846   23.697427 H          1 MOL1         0.0993
      13    C4      19.030549   19.407382   21.870695 C.3        1 MOL1        -0.1338
      14    H9      18.708213   18.453175   22.307941 H          1 MOL1         0.0993
      15    H10     18.110556   19.881926   21.502018 H          1 MOL1         0.0993
      16    C5      19.952668   19.156989   20.648957 C.3        1 MOL1        -0.1313
      17    H11     20.567459   20.044838   20.445831 H          1 MOL1         0.0993
      18    H12     19.318868   19.020631   19.761429 H          1 MOL1         0.0993
      19    C6      20.848530   17.903607   20.784455 C.3        1 MOL1        -0.2328
      20    H13     21.408127   17.732805   19.855704 H          1 MOL1         0.1004
      21    H14     20.245530   17.007006   20.977788 H          1 MOL1         0.1004
      22    H15     21.580756   18.003233   21.592095 H          1 MOL1         0.1004
      23    C7      19.869254   19.187903   26.614247 C.3        1 MOL1        -0.0781
      24    H16     20.799947   18.825084   27.055741 H          1 MOL1         0.0978
      25    H17     19.979150   20.235154   26.325636 H          1 MOL1         0.0978
      26    H18     19.055517   19.089221   27.336116 H          1 MOL1         0.0978
@<TRIPOS>BOND
    1     1     2    1
    2     1     3    1
    3     1     4    1
    4     4     5    1
    5     4     6    1
    6     4     7    1
    7     7     8    1
    8     7     9    1
    9     7    10    1
   10    10    11    1
   11    10    12    1
   12    10    13    1
   13    13    14    1
   14    13    15    1
   15    13    16    1
   16    16    17    1
   17    16    18    1
   18    16    19    1
   19    19    20    1
   20    19    21    1
   21    19    22    1
   22     1    23    1
   23    23    24    1
   24    23    25    1
   25    23    26    1
@<TRIPOS>SUBSTRUCTURE
       1 MOL1            1 RESIDUE      1      MOL     
@<SCITEGIC>MOL_PROPERTY
VM2 Rank
SciTegic.value.IntegerValue
189

@<SCITEGIC>MOL_PROPERTY
Conf_Id
SciTegic.value.IntegerValue
540

@<SCITEGIC>MOL_PROPERTY
Probability
SciTegic.value.DoubleValue
0.00

@<SCITEGIC>MOL_PROPERTY
Sum Probability
SciTegic.value.DoubleValue
99.98

@<SCITEGIC>MOL_PROPERTY
Delta G
SciTegic.value.DoubleValue
4.653

@<SCITEGIC>MOL_PROPERTY
G
SciTegic.value.DoubleValue
80.120

@<SCITEGIC>MOL_PROPERTY
E
SciTegic.value.DoubleValue
46.867

@<SCITEGIC>MOL_PROPERTY
-TS
SciTegic.value.DoubleValue
33.253

@<SCITEGIC>MOL_PROPERTY
U+W
SciTegic.value.DoubleValue
25.405

@<SCITEGIC>MOL_PROPERTY
U
SciTegic.value.DoubleValue
75.588

@<SCITEGIC>MOL_PROPERTY
W
SciTegic.value.DoubleValue
-50.183

@<SCITEGIC>MOL_PROPERTY
W(PB)
SciTegic.value.DoubleValue
-52.343

@<SCITEGIC>MOL_PROPERTY
W(SA)
SciTegic.value.DoubleValue
2.160

@<SCITEGIC>MOL_PROPERTY
Valence
SciTegic.value.DoubleValue
5.384

@<SCITEGIC>MOL_PROPERTY
Coulomb
SciTegic.value.DoubleValue
70.118

@<SCITEGIC>MOL_PROPERTY
VdW
SciTegic.value.DoubleValue
0.085

@<SCITEGIC>MOL_PROPERTY
VdW6
SciTegic.value.DoubleValue
-9.606

@<SCITEGIC>MOL_PROPERTY
VdW12
SciTegic.value.DoubleValue
9.691

@<SCITEGIC>MOL_PROPERTY
Bond
SciTegic.value.DoubleValue
0.301

@<SCITEGIC>MOL_PROPERTY
Angle
SciTegic.value.DoubleValue
1.865

@<SCITEGIC>MOL_PROPERTY
Pdih
SciTegic.value.DoubleValue
3.218

@<SCITEGIC>MOL_PROPERTY
Idih
SciTegic.value.DoubleValue
0.000

@<SCITEGIC>MOL_PROPERTY
Tether
SciTegic.value.DoubleValue
0.000

@<TRIPOS>MOLECULE
guest-s12_vm2.mol2 : vm2 ligand conformer 190
          26          25           1
SMALL
USER_CHARGES
 
@<TRIPOS>ATOM
       1    N1      19.483399   18.286902   24.912138 N.4        1 MOL1        -0.4857
       2    H1      19.453443   17.417166   25.467714 H          1 MOL1         0.3650
       3    H2      19.395308   17.989987   23.929501 H          1 MOL1         0.3650
       4    C1      20.817153   18.983248   25.127209 C.3        1 MOL1         0.0209
       5    H3      21.602356   18.223765   25.094044 H          1 MOL1         0.0967
       6    H4      20.799285   19.401711   26.136675 H          1 MOL1         0.0967
       7    C2      21.154489   20.101466   24.114473 C.3        1 MOL1        -0.1378
       8    H5      20.284099   20.747140   23.946427 H          1 MOL1         0.0993
       9    H6      21.911776   20.747919   24.577232 H          1 MOL1         0.0993
      10    C3      21.733481   19.590862   22.767457 C.3        1 MOL1        -0.1338
      11    H7      22.669635   19.051718   22.968351 H          1 MOL1         0.0993
      12    H8      22.016286   20.459549   22.156950 H          1 MOL1         0.0993
      13    C4      20.806931   18.674784   21.927700 C.3        1 MOL1        -0.1338
      14    H9      21.349981   18.379769   21.019034 H          1 MOL1         0.0993
      15    H10     20.610332   17.739861   22.466458 H          1 MOL1         0.0993
      16    C5      19.478309   19.349422   21.510571 C.3        1 MOL1        -0.1313
      17    H11     19.693769   20.267496   20.946143 H          1 MOL1         0.0993
      18    H12     18.903765   19.653518   22.394217 H          1 MOL1         0.0993
      19    C6      18.610043   18.410382   20.646609 C.3        1 MOL1        -0.2328
      20    H13     17.674901   18.906209   20.355512 H          1 MOL1         0.1004
      21    H14     18.349225   17.495517   21.194268 H          1 MOL1         0.1004
      22    H15     19.136250   18.120078   19.727868 H          1 MOL1         0.1004
      23    C7      18.324196   19.192934   25.310843 C.3        1 MOL1        -0.0781
      24    H16     18.335847   20.091622   24.691287 H          1 MOL1         0.0978
      25    H17     17.384211   18.656558   25.163256 H          1 MOL1         0.0978
      26    H18     18.430088   19.467585   26.362582 H          1 MOL1         0.0978
@<TRIPOS>BOND
    1     1     2    1
    2     1     3    1
    3     1     4    1
    4     4     5    1
    5     4     6    1
    6     4     7    1
    7     7     8    1
    8     7     9    1
    9     7    10    1
   10    10    11    1
   11    10    12    1
   12    10    13    1
   13    13    14    1
   14    13    15    1
   15    13    16    1
   16    16    17    1
   17    16    18    1
   18    16    19    1
   19    19    20    1
   20    19    21    1
   21    19    22    1
   22     1    23    1
   23    23    24    1
   24    23    25    1
   25    23    26    1
@<TRIPOS>SUBSTRUCTURE
       1 MOL1            1 RESIDUE      1      MOL     
@<SCITEGIC>MOL_PROPERTY
VM2 Rank
SciTegic.value.IntegerValue
190

@<SCITEGIC>MOL_PROPERTY
Conf_Id
SciTegic.value.IntegerValue
1365

@<SCITEGIC>MOL_PROPERTY
Probability
SciTegic.value.DoubleValue
0.00

@<SCITEGIC>MOL_PROPERTY
Sum Probability
SciTegic.value.DoubleValue
99.99

@<SCITEGIC>MOL_PROPERTY
Delta G
SciTegic.value.DoubleValue
4.874

@<SCITEGIC>MOL_PROPERTY
G
SciTegic.value.DoubleValue
80.340

@<SCITEGIC>MOL_PROPERTY
E
SciTegic.value.DoubleValue
47.028

@<SCITEGIC>MOL_PROPERTY
-TS
SciTegic.value.DoubleValue
33.313

@<SCITEGIC>MOL_PROPERTY
U+W
SciTegic.value.DoubleValue
25.566

@<SCITEGIC>MOL_PROPERTY
U
SciTegic.value.DoubleValue
74.993

@<SCITEGIC>MOL_PROPERTY
W
SciTegic.value.DoubleValue
-49.427

@<SCITEGIC>MOL_PROPERTY
W(PB)
SciTegic.value.DoubleValue
-51.599

@<SCITEGIC>MOL_PROPERTY
W(SA)
SciTegic.value.DoubleValue
2.172

@<SCITEGIC>MOL_PROPERTY
Valence
SciTegic.value.DoubleValue
4.235

@<SCITEGIC>MOL_PROPERTY
Coulomb
SciTegic.value.DoubleValue
71.017

@<SCITEGIC>MOL_PROPERTY
VdW
SciTegic.value.DoubleValue
-0.259

@<SCITEGIC>MOL_PROPERTY
VdW6
SciTegic.value.DoubleValue
-9.385

@<SCITEGIC>MOL_PROPERTY
VdW12
SciTegic.value.DoubleValue
9.126

@<SCITEGIC>MOL_PROPERTY
Bond
SciTegic.value.DoubleValue
0.262

@<SCITEGIC>MOL_PROPERTY
Angle
SciTegic.value.DoubleValue
1.598

@<SCITEGIC>MOL_PROPERTY
Pdih
SciTegic.value.DoubleValue
2.376

@<SCITEGIC>MOL_PROPERTY
Idih
SciTegic.value.DoubleValue
0.000

@<SCITEGIC>MOL_PROPERTY
Tether
SciTegic.value.DoubleValue
0.000

@<TRIPOS>MOLECULE
guest-s12_vm2.mol2 : vm2 ligand conformer 191
          26          25           1
SMALL
USER_CHARGES
 
@<TRIPOS>ATOM
       1    N1      19.365456   18.533744   25.460141 N.4        1 MOL1        -0.4857
       2    H1      19.064315   18.195731   26.387859 H          1 MOL1         0.3650
       3    H2      19.291076   17.714177   24.839635 H          1 MOL1         0.3650
       4    C1      20.807527   19.004968   25.540723 C.3        1 MOL1         0.0209
       5    H3      21.266920   18.461985   26.370663 H          1 MOL1         0.0967
       6    H4      20.803315   20.065656   25.803767 H          1 MOL1         0.0967
       7    C2      21.676814   18.770652   24.282376 C.3        1 MOL1        -0.1378
       8    H5      22.696758   19.090671   24.533585 H          1 MOL1         0.0993
       9    H6      21.747813   17.695931   24.069026 H          1 MOL1         0.0993
      10    C3      21.228070   19.545353   23.017131 C.3        1 MOL1        -0.1338
      11    H7      22.120511   19.789359   22.424233 H          1 MOL1         0.0993
      12    H8      20.784820   20.508344   23.305058 H          1 MOL1         0.0993
      13    C4      20.258039   18.742105   22.115954 C.3        1 MOL1        -0.1338
      14    H9      20.757681   17.826840   21.769497 H          1 MOL1         0.0993
      15    H10     19.379607   18.419005   22.686049 H          1 MOL1         0.0993
      16    C5      19.795784   19.566174   20.893828 C.3        1 MOL1        -0.1313
      17    H11     20.669388   19.879372   20.305023 H          1 MOL1         0.0993
      18    H12     19.296631   20.484750   21.232913 H          1 MOL1         0.0993
      19    C6      18.832377   18.763447   19.993719 C.3        1 MOL1        -0.2328
      20    H13     18.515827   19.364725   19.131591 H          1 MOL1         0.1004
      21    H14     17.931252   18.466193   20.545808 H          1 MOL1         0.1004
      22    H15     19.314454   17.854333   19.611234 H          1 MOL1         0.1004
      23    C7      18.443934   19.663557   25.013128 C.3        1 MOL1        -0.0781
      24    H16     18.512627   20.485043   25.729525 H          1 MOL1         0.0978
      25    H17     18.745931   20.011909   24.024145 H          1 MOL1         0.0978
      26    H18     17.417014   19.293357   24.975618 H          1 MOL1         0.0978
@<TRIPOS>BOND
    1     1     2    1
    2     1     3    1
    3     1     4    1
    4     4     5    1
    5     4     6    1
    6     4     7    1
    7     7     8    1
    8     7     9    1
    9     7    10    1
   10    10    11    1
   11    10    12    1
   12    10    13    1
   13    13    14    1
   14    13    15    1
   15    13    16    1
   16    16    17    1
   17    16    18    1
   18    16    19    1
   19    19    20    1
   20    19    21    1
   21    19    22    1
   22     1    23    1
   23    23    24    1
   24    23    25    1
   25    23    26    1
@<TRIPOS>SUBSTRUCTURE
       1 MOL1            1 RESIDUE      1      MOL     
@<SCITEGIC>MOL_PROPERTY
VM2 Rank
SciTegic.value.IntegerValue
191

@<SCITEGIC>MOL_PROPERTY
Conf_Id
SciTegic.value.IntegerValue
528

@<SCITEGIC>MOL_PROPERTY
Probability
SciTegic.value.DoubleValue
0.00

@<SCITEGIC>MOL_PROPERTY
Sum Probability
SciTegic.value.DoubleValue
99.99

@<SCITEGIC>MOL_PROPERTY
Delta G
SciTegic.value.DoubleValue
4.966

@<SCITEGIC>MOL_PROPERTY
G
SciTegic.value.DoubleValue
80.433

@<SCITEGIC>MOL_PROPERTY
E
SciTegic.value.DoubleValue
47.521

@<SCITEGIC>MOL_PROPERTY
-TS
SciTegic.value.DoubleValue
32.911

@<SCITEGIC>MOL_PROPERTY
U+W
SciTegic.value.DoubleValue
26.060

@<SCITEGIC>MOL_PROPERTY
U
SciTegic.value.DoubleValue
76.026

@<SCITEGIC>MOL_PROPERTY
W
SciTegic.value.DoubleValue
-49.966

@<SCITEGIC>MOL_PROPERTY
W(PB)
SciTegic.value.DoubleValue
-52.173

@<SCITEGIC>MOL_PROPERTY
W(SA)
SciTegic.value.DoubleValue
2.207

@<SCITEGIC>MOL_PROPERTY
Valence
SciTegic.value.DoubleValue
5.957

@<SCITEGIC>MOL_PROPERTY
Coulomb
SciTegic.value.DoubleValue
70.111

@<SCITEGIC>MOL_PROPERTY
VdW
SciTegic.value.DoubleValue
-0.042

@<SCITEGIC>MOL_PROPERTY
VdW6
SciTegic.value.DoubleValue
-8.365

@<SCITEGIC>MOL_PROPERTY
VdW12
SciTegic.value.DoubleValue
8.323

@<SCITEGIC>MOL_PROPERTY
Bond
SciTegic.value.DoubleValue
0.228

@<SCITEGIC>MOL_PROPERTY
Angle
SciTegic.value.DoubleValue
1.343

@<SCITEGIC>MOL_PROPERTY
Pdih
SciTegic.value.DoubleValue
4.386

@<SCITEGIC>MOL_PROPERTY
Idih
SciTegic.value.DoubleValue
0.000

@<SCITEGIC>MOL_PROPERTY
Tether
SciTegic.value.DoubleValue
0.000

@<TRIPOS>MOLECULE
guest-s12_vm2.mol2 : vm2 ligand conformer 192
          26          25           1
SMALL
USER_CHARGES
 
@<TRIPOS>ATOM
       1    N1      20.710278   19.332656   25.066092 N.4        1 MOL1        -0.4857
       2    H1      20.735619   20.041024   24.318662 H          1 MOL1         0.3650
       3    H2      21.547159   18.746382   24.923840 H          1 MOL1         0.3650
       4    C1      19.457164   18.489432   24.937025 C.3        1 MOL1         0.0209
       5    H3      18.592692   19.122247   25.152682 H          1 MOL1         0.0967
       6    H4      19.512873   17.717334   25.708576 H          1 MOL1         0.0967
       7    C2      19.277296   17.815454   23.560334 C.3        1 MOL1        -0.1378
       8    H5      20.222112   17.366594   23.228627 H          1 MOL1         0.0993
       9    H6      18.582280   16.975754   23.692714 H          1 MOL1         0.0993
      10    C3      18.688165   18.745317   22.465994 C.3        1 MOL1        -0.1338
      11    H7      17.717999   19.127192   22.812782 H          1 MOL1         0.0993
      12    H8      18.461069   18.141003   21.577625 H          1 MOL1         0.0993
      13    C4      19.570856   19.950221   22.043573 C.3        1 MOL1        -0.1338
      14    H9      19.045221   20.501358   21.251476 H          1 MOL1         0.0993
      15    H10     19.652680   20.658495   22.877244 H          1 MOL1         0.0993
      16    C5      20.987265   19.583744   21.529923 C.3        1 MOL1        -0.1313
      17    H11     21.572592   19.099312   22.321564 H          1 MOL1         0.0993
      18    H12     21.521951   20.511828   21.283522 H          1 MOL1         0.0993
      19    C6      20.966557   18.676842   20.278786 C.3        1 MOL1        -0.2328
      20    H13     20.539728   17.691432   20.503316 H          1 MOL1         0.1004
      21    H14     21.985176   18.517566   19.902080 H          1 MOL1         0.1004
      22    H15     20.377503   19.130984   19.471500 H          1 MOL1         0.1004
      23    C7      20.750419   19.996334   26.435272 C.3        1 MOL1        -0.0781
      24    H16     21.657301   20.599946   26.514709 H          1 MOL1         0.0978
      25    H17     19.871293   20.633990   26.551217 H          1 MOL1         0.0978
      26    H18     20.752192   19.224611   27.208157 H          1 MOL1         0.0978
@<TRIPOS>BOND
    1     1     2    1
    2     1     3    1
    3     1     4    1
    4     4     5    1
    5     4     6    1
    6     4     7    1
    7     7     8    1
    8     7     9    1
    9     7    10    1
   10    10    11    1
   11    10    12    1
   12    10    13    1
   13    13    14    1
   14    13    15    1
   15    13    16    1
   16    16    17    1
   17    16    18    1
   18    16    19    1
   19    19    20    1
   20    19    21    1
   21    19    22    1
   22     1    23    1
   23    23    24    1
   24    23    25    1
   25    23    26    1
@<TRIPOS>SUBSTRUCTURE
       1 MOL1            1 RESIDUE      1      MOL     
@<SCITEGIC>MOL_PROPERTY
VM2 Rank
SciTegic.value.IntegerValue
192

@<SCITEGIC>MOL_PROPERTY
Conf_Id
SciTegic.value.IntegerValue
153

@<SCITEGIC>MOL_PROPERTY
Probability
SciTegic.value.DoubleValue
0.00

@<SCITEGIC>MOL_PROPERTY
Sum Probability
SciTegic.value.DoubleValue
99.99

@<SCITEGIC>MOL_PROPERTY
Delta G
SciTegic.value.DoubleValue
4.986

@<SCITEGIC>MOL_PROPERTY
G
SciTegic.value.DoubleValue
80.453

@<SCITEGIC>MOL_PROPERTY
E
SciTegic.value.DoubleValue
47.329

@<SCITEGIC>MOL_PROPERTY
-TS
SciTegic.value.DoubleValue
33.124

@<SCITEGIC>MOL_PROPERTY
U+W
SciTegic.value.DoubleValue
25.867

@<SCITEGIC>MOL_PROPERTY
U
SciTegic.value.DoubleValue
75.257

@<SCITEGIC>MOL_PROPERTY
W
SciTegic.value.DoubleValue
-49.390

@<SCITEGIC>MOL_PROPERTY
W(PB)
SciTegic.value.DoubleValue
-51.577

@<SCITEGIC>MOL_PROPERTY
W(SA)
SciTegic.value.DoubleValue
2.188

@<SCITEGIC>MOL_PROPERTY
Valence
SciTegic.value.DoubleValue
4.258

@<SCITEGIC>MOL_PROPERTY
Coulomb
SciTegic.value.DoubleValue
71.252

@<SCITEGIC>MOL_PROPERTY
VdW
SciTegic.value.DoubleValue
-0.253

@<SCITEGIC>MOL_PROPERTY
VdW6
SciTegic.value.DoubleValue
-9.004

@<SCITEGIC>MOL_PROPERTY
VdW12
SciTegic.value.DoubleValue
8.750

@<SCITEGIC>MOL_PROPERTY
Bond
SciTegic.value.DoubleValue
0.262

@<SCITEGIC>MOL_PROPERTY
Angle
SciTegic.value.DoubleValue
1.778

@<SCITEGIC>MOL_PROPERTY
Pdih
SciTegic.value.DoubleValue
2.218

@<SCITEGIC>MOL_PROPERTY
Idih
SciTegic.value.DoubleValue
0.000

@<SCITEGIC>MOL_PROPERTY
Tether
SciTegic.value.DoubleValue
0.000

@<TRIPOS>MOLECULE
guest-s12_vm2.mol2 : vm2 ligand conformer 193
          26          25           1
SMALL
USER_CHARGES
 
@<TRIPOS>ATOM
       1    N1      19.230227   19.180735   25.013690 N.4        1 MOL1        -0.4857
       2    H1      18.541777   18.437896   24.817363 H          1 MOL1         0.3650
       3    H2      19.114074   19.874619   24.261286 H          1 MOL1         0.3650
       4    C1      20.634264   18.610266   24.978710 C.3        1 MOL1         0.0209
       5    H3      20.682506   17.837375   25.749970 H          1 MOL1         0.0967
       6    H4      21.335089   19.403750   25.249825 H          1 MOL1         0.0967
       7    C2      21.043072   17.996759   23.622849 C.3        1 MOL1        -0.1378
       8    H5      21.883025   17.314641   23.809565 H          1 MOL1         0.0993
       9    H6      20.234591   17.367907   23.229039 H          1 MOL1         0.0993
      10    C3      21.506366   19.034707   22.565813 C.3        1 MOL1        -0.1338
      11    H7      21.913076   18.495490   21.699903 H          1 MOL1         0.0993
      12    H8      22.352082   19.603061   22.976970 H          1 MOL1         0.0993
      13    C4      20.429270   20.038359   22.073950 C.3        1 MOL1        -0.1338
      14    H9      20.147232   20.709287   22.894720 H          1 MOL1         0.0993
      15    H10     20.886235   20.690376   21.316640 H          1 MOL1         0.0993
      16    C5      19.156228   19.395715   21.465071 C.3        1 MOL1        -0.1313
      17    H11     18.462869   20.197696   21.175206 H          1 MOL1         0.0993
      18    H12     18.627484   18.796870   22.217263 H          1 MOL1         0.0993
      19    C6      19.448093   18.520933   20.224987 C.3        1 MOL1        -0.2328
      20    H13     19.987559   19.091047   19.457597 H          1 MOL1         0.1004
      21    H14     18.511927   18.160786   19.779174 H          1 MOL1         0.1004
      22    H15     20.049427   17.641176   20.485858 H          1 MOL1         0.1004
      23    C7      18.960479   19.812526   26.371929 C.3        1 MOL1        -0.0781
      24    H16     19.681579   20.614470   26.544591 H          1 MOL1         0.0978
      25    H17     17.946680   20.218942   26.383359 H          1 MOL1         0.0978
      26    H18     19.061257   19.050929   27.148282 H          1 MOL1         0.0978
@<TRIPOS>BOND
    1     1     2    1
    2     1     3    1
    3     1     4    1
    4     4     5    1
    5     4     6    1
    6     4     7    1
    7     7     8    1
    8     7     9    1
    9     7    10    1
   10    10    11    1
   11    10    12    1
   12    10    13    1
   13    13    14    1
   14    13    15    1
   15    13    16    1
   16    16    17    1
   17    16    18    1
   18    16    19    1
   19    19    20    1
   20    19    21    1
   21    19    22    1
   22     1    23    1
   23    23    24    1
   24    23    25    1
   25    23    26    1
@<TRIPOS>SUBSTRUCTURE
       1 MOL1            1 RESIDUE      1      MOL     
@<SCITEGIC>MOL_PROPERTY
VM2 Rank
SciTegic.value.IntegerValue
193

@<SCITEGIC>MOL_PROPERTY
Conf_Id
SciTegic.value.IntegerValue
160

@<SCITEGIC>MOL_PROPERTY
Probability
SciTegic.value.DoubleValue
0.00

@<SCITEGIC>MOL_PROPERTY
Sum Probability
SciTegic.value.DoubleValue
99.99

@<SCITEGIC>MOL_PROPERTY
Delta G
SciTegic.value.DoubleValue
5.109

@<SCITEGIC>MOL_PROPERTY
G
SciTegic.value.DoubleValue
80.576

@<SCITEGIC>MOL_PROPERTY
E
SciTegic.value.DoubleValue
47.452

@<SCITEGIC>MOL_PROPERTY
-TS
SciTegic.value.DoubleValue
33.124

@<SCITEGIC>MOL_PROPERTY
U+W
SciTegic.value.DoubleValue
25.990

@<SCITEGIC>MOL_PROPERTY
U
SciTegic.value.DoubleValue
75.257

@<SCITEGIC>MOL_PROPERTY
W
SciTegic.value.DoubleValue
-49.266

@<SCITEGIC>MOL_PROPERTY
W(PB)
SciTegic.value.DoubleValue
-51.475

@<SCITEGIC>MOL_PROPERTY
W(SA)
SciTegic.value.DoubleValue
2.209

@<SCITEGIC>MOL_PROPERTY
Valence
SciTegic.value.DoubleValue
4.258

@<SCITEGIC>MOL_PROPERTY
Coulomb
SciTegic.value.DoubleValue
71.252

@<SCITEGIC>MOL_PROPERTY
VdW
SciTegic.value.DoubleValue
-0.253

@<SCITEGIC>MOL_PROPERTY
VdW6
SciTegic.value.DoubleValue
-9.004

@<SCITEGIC>MOL_PROPERTY
VdW12
SciTegic.value.DoubleValue
8.750

@<SCITEGIC>MOL_PROPERTY
Bond
SciTegic.value.DoubleValue
0.262

@<SCITEGIC>MOL_PROPERTY
Angle
SciTegic.value.DoubleValue
1.778

@<SCITEGIC>MOL_PROPERTY
Pdih
SciTegic.value.DoubleValue
2.217

@<SCITEGIC>MOL_PROPERTY
Idih
SciTegic.value.DoubleValue
0.000

@<SCITEGIC>MOL_PROPERTY
Tether
SciTegic.value.DoubleValue
0.000

@<TRIPOS>MOLECULE
guest-s12_vm2.mol2 : vm2 ligand conformer 194
          26          25           1
SMALL
USER_CHARGES
 
@<TRIPOS>ATOM
       1    N1      19.738894   18.334687   24.856003 N.4        1 MOL1        -0.4857
       2    H1      20.404258   17.546511   24.831066 H          1 MOL1         0.3650
       3    H2      19.260310   18.323827   23.943422 H          1 MOL1         0.3650
       4    C1      20.487731   19.641581   25.031697 C.3        1 MOL1         0.0209
       5    H3      21.042171   19.566641   25.970592 H          1 MOL1         0.0967
       6    H4      19.756688   20.447611   25.132647 H          1 MOL1         0.0967
       7    C2      21.470172   19.971110   23.887953 C.3        1 MOL1        -0.1378
       8    H5      22.212577   20.678258   24.281072 H          1 MOL1         0.0993
       9    H6      22.038043   19.075706   23.605088 H          1 MOL1         0.0993
      10    C3      20.808402   20.625464   22.645234 C.3        1 MOL1        -0.1338
      11    H7      21.596751   20.886499   21.925701 H          1 MOL1         0.0993
      12    H8      20.356028   21.579624   22.949232 H          1 MOL1         0.0993
      13    C4      19.732092   19.779493   21.918007 C.3        1 MOL1        -0.1338
      14    H9      18.873905   19.609522   22.579897 H          1 MOL1         0.0993
      15    H10     19.340848   20.371805   21.079113 H          1 MOL1         0.0993
      16    C5      20.266236   18.436252   21.365538 C.3        1 MOL1        -0.1313
      17    H11     20.665914   17.813824   22.175834 H          1 MOL1         0.0993
      18    H12     21.101839   18.628508   20.677956 H          1 MOL1         0.0993
      19    C6      19.165527   17.648719   20.623601 C.3        1 MOL1        -0.2328
      20    H13     18.327335   17.412388   21.291846 H          1 MOL1         0.1004
      21    H14     19.562162   16.702235   20.233790 H          1 MOL1         0.1004
      22    H15     18.773313   18.223338   19.774329 H          1 MOL1         0.1004
      23    C7      18.738945   18.152695   25.988966 C.3        1 MOL1        -0.0781
      24    H16     18.027816   18.981587   25.977073 H          1 MOL1         0.0978
      25    H17     18.207657   17.208474   25.850120 H          1 MOL1         0.0978
      26    H18     19.274165   18.138139   26.940933 H          1 MOL1         0.0978
@<TRIPOS>BOND
    1     1     2    1
    2     1     3    1
    3     1     4    1
    4     4     5    1
    5     4     6    1
    6     4     7    1
    7     7     8    1
    8     7     9    1
    9     7    10    1
   10    10    11    1
   11    10    12    1
   12    10    13    1
   13    13    14    1
   14    13    15    1
   15    13    16    1
   16    16    17    1
   17    16    18    1
   18    16    19    1
   19    19    20    1
   20    19    21    1
   21    19    22    1
   22     1    23    1
   23    23    24    1
   24    23    25    1
   25    23    26    1
@<TRIPOS>SUBSTRUCTURE
       1 MOL1            1 RESIDUE      1      MOL     
@<SCITEGIC>MOL_PROPERTY
VM2 Rank
SciTegic.value.IntegerValue
194

@<SCITEGIC>MOL_PROPERTY
Conf_Id
SciTegic.value.IntegerValue
287

@<SCITEGIC>MOL_PROPERTY
Probability
SciTegic.value.DoubleValue
0.00

@<SCITEGIC>MOL_PROPERTY
Sum Probability
SciTegic.value.DoubleValue
99.99

@<SCITEGIC>MOL_PROPERTY
Delta G
SciTegic.value.DoubleValue
5.236

@<SCITEGIC>MOL_PROPERTY
G
SciTegic.value.DoubleValue
80.703

@<SCITEGIC>MOL_PROPERTY
E
SciTegic.value.DoubleValue
47.755

@<SCITEGIC>MOL_PROPERTY
-TS
SciTegic.value.DoubleValue
32.948

@<SCITEGIC>MOL_PROPERTY
U+W
SciTegic.value.DoubleValue
26.293

@<SCITEGIC>MOL_PROPERTY
U
SciTegic.value.DoubleValue
74.740

@<SCITEGIC>MOL_PROPERTY
W
SciTegic.value.DoubleValue
-48.447

@<SCITEGIC>MOL_PROPERTY
W(PB)
SciTegic.value.DoubleValue
-50.670

@<SCITEGIC>MOL_PROPERTY
W(SA)
SciTegic.value.DoubleValue
2.223

@<SCITEGIC>MOL_PROPERTY
Valence
SciTegic.value.DoubleValue
3.847

@<SCITEGIC>MOL_PROPERTY
Coulomb
SciTegic.value.DoubleValue
71.181

@<SCITEGIC>MOL_PROPERTY
VdW
SciTegic.value.DoubleValue
-0.288

@<SCITEGIC>MOL_PROPERTY
VdW6
SciTegic.value.DoubleValue
-8.401

@<SCITEGIC>MOL_PROPERTY
VdW12
SciTegic.value.DoubleValue
8.112

@<SCITEGIC>MOL_PROPERTY
Bond
SciTegic.value.DoubleValue
0.222

@<SCITEGIC>MOL_PROPERTY
Angle
SciTegic.value.DoubleValue
1.471

@<SCITEGIC>MOL_PROPERTY
Pdih
SciTegic.value.DoubleValue
2.154

@<SCITEGIC>MOL_PROPERTY
Idih
SciTegic.value.DoubleValue
0.000

@<SCITEGIC>MOL_PROPERTY
Tether
SciTegic.value.DoubleValue
0.000

@<TRIPOS>MOLECULE
guest-s12_vm2.mol2 : vm2 ligand conformer 195
          26          25           1
SMALL
USER_CHARGES
 
@<TRIPOS>ATOM
       1    N1      20.392624   18.400133   24.879124 N.4        1 MOL1        -0.4857
       2    H1      20.926504   18.490584   24.002336 H          1 MOL1         0.3650
       3    H2      19.900041   17.495925   24.813369 H          1 MOL1         0.3650
       4    C1      19.389246   19.531479   24.992659 C.3        1 MOL1         0.0209
       5    H3      19.937171   20.465668   25.138844 H          1 MOL1         0.0967
       6    H4      18.796252   19.341643   25.890918 H          1 MOL1         0.0967
       7    C2      18.443600   19.667724   23.780583 C.3        1 MOL1        -0.1378
       8    H5      18.085770   18.679519   23.464918 H          1 MOL1         0.0993
       9    H6      17.550044   20.210875   24.115709 H          1 MOL1         0.0993
      10    C3      19.047961   20.448982   22.582726 C.3        1 MOL1        -0.1338
      11    H7      19.279616   21.471772   22.910925 H          1 MOL1         0.0993
      12    H8      18.275980   20.553460   21.807810 H          1 MOL1         0.0993
      13    C4      20.319027   19.838400   21.938872 C.3        1 MOL1        -0.1338
      14    H9      20.643000   20.502429   21.125387 H          1 MOL1         0.0993
      15    H10     21.145212   19.837325   22.660599 H          1 MOL1         0.0993
      16    C5      20.102002   18.419841   21.359719 C.3        1 MOL1        -0.1313
      17    H11     19.295459   18.447484   20.613603 H          1 MOL1         0.0993
      18    H12     19.777507   17.724880   22.144238 H          1 MOL1         0.0993
      19    C6      21.386463   17.871306   20.702829 C.3        1 MOL1        -0.2328
      20    H13     22.205625   17.801081   21.430160 H          1 MOL1         0.1004
      21    H14     21.715904   18.518213   19.879263 H          1 MOL1         0.1004
      22    H15     21.213757   16.867752   20.292760 H          1 MOL1         0.1004
      23    C7      21.327078   18.412134   26.080489 C.3        1 MOL1        -0.0781
      24    H16     22.043334   17.592914   25.985853 H          1 MOL1         0.0978
      25    H17     21.858895   19.365581   26.112428 H          1 MOL1         0.0978
      26    H18     20.740126   18.285234   26.992794 H          1 MOL1         0.0978
@<TRIPOS>BOND
    1     1     2    1
    2     1     3    1
    3     1     4    1
    4     4     5    1
    5     4     6    1
    6     4     7    1
    7     7     8    1
    8     7     9    1
    9     7    10    1
   10    10    11    1
   11    10    12    1
   12    10    13    1
   13    13    14    1
   14    13    15    1
   15    13    16    1
   16    16    17    1
   17    16    18    1
   18    16    19    1
   19    19    20    1
   20    19    21    1
   21    19    22    1
   22     1    23    1
   23    23    24    1
   24    23    25    1
   25    23    26    1
@<TRIPOS>SUBSTRUCTURE
       1 MOL1            1 RESIDUE      1      MOL     
@<SCITEGIC>MOL_PROPERTY
VM2 Rank
SciTegic.value.IntegerValue
195

@<SCITEGIC>MOL_PROPERTY
Conf_Id
SciTegic.value.IntegerValue
1316

@<SCITEGIC>MOL_PROPERTY
Probability
SciTegic.value.DoubleValue
0.00

@<SCITEGIC>MOL_PROPERTY
Sum Probability
SciTegic.value.DoubleValue
99.99

@<SCITEGIC>MOL_PROPERTY
Delta G
SciTegic.value.DoubleValue
5.289

@<SCITEGIC>MOL_PROPERTY
G
SciTegic.value.DoubleValue
80.756

@<SCITEGIC>MOL_PROPERTY
E
SciTegic.value.DoubleValue
47.808

@<SCITEGIC>MOL_PROPERTY
-TS
SciTegic.value.DoubleValue
32.948

@<SCITEGIC>MOL_PROPERTY
U+W
SciTegic.value.DoubleValue
26.346

@<SCITEGIC>MOL_PROPERTY
U
SciTegic.value.DoubleValue
74.740

@<SCITEGIC>MOL_PROPERTY
W
SciTegic.value.DoubleValue
-48.394

@<SCITEGIC>MOL_PROPERTY
W(PB)
SciTegic.value.DoubleValue
-50.620

@<SCITEGIC>MOL_PROPERTY
W(SA)
SciTegic.value.DoubleValue
2.226

@<SCITEGIC>MOL_PROPERTY
Valence
SciTegic.value.DoubleValue
3.847

@<SCITEGIC>MOL_PROPERTY
Coulomb
SciTegic.value.DoubleValue
71.181

@<SCITEGIC>MOL_PROPERTY
VdW
SciTegic.value.DoubleValue
-0.288

@<SCITEGIC>MOL_PROPERTY
VdW6
SciTegic.value.DoubleValue
-8.401

@<SCITEGIC>MOL_PROPERTY
VdW12
SciTegic.value.DoubleValue
8.113

@<SCITEGIC>MOL_PROPERTY
Bond
SciTegic.value.DoubleValue
0.222

@<SCITEGIC>MOL_PROPERTY
Angle
SciTegic.value.DoubleValue
1.471

@<SCITEGIC>MOL_PROPERTY
Pdih
SciTegic.value.DoubleValue
2.154

@<SCITEGIC>MOL_PROPERTY
Idih
SciTegic.value.DoubleValue
0.000

@<SCITEGIC>MOL_PROPERTY
Tether
SciTegic.value.DoubleValue
0.000

@<TRIPOS>MOLECULE
guest-s12_vm2.mol2 : vm2 ligand conformer 196
          26          25           1
SMALL
USER_CHARGES
 
@<TRIPOS>ATOM
       1    N1      20.632243   18.747153   25.914519 N.4        1 MOL1        -0.4857
       2    H1      21.545272   18.821002   25.440886 H          1 MOL1         0.3650
       3    H2      20.813661   18.174651   26.754129 H          1 MOL1         0.3650
       4    C1      19.631060   18.027548   25.024457 C.3        1 MOL1         0.0209
       5    H3      18.624273   18.300284   25.350485 H          1 MOL1         0.0967
       6    H4      19.761182   16.957888   25.207785 H          1 MOL1         0.0967
       7    C2      19.791106   18.273655   23.507468 C.3        1 MOL1        -0.1378
       8    H5      20.801421   17.972641   23.204024 H          1 MOL1         0.0993
       9    H6      19.091238   17.611365   22.981151 H          1 MOL1         0.0993
      10    C3      19.525193   19.735815   23.077435 C.3        1 MOL1        -0.1338
      11    H7      20.332636   20.381117   23.447424 H          1 MOL1         0.0993
      12    H8      18.601227   20.086176   23.557926 H          1 MOL1         0.0993
      13    C4      19.383360   19.936322   21.546190 C.3        1 MOL1        -0.1338
      14    H9      18.523301   19.367409   21.166988 H          1 MOL1         0.0993
      15    H10     19.136351   20.993193   21.374428 H          1 MOL1         0.0993
      16    C5      20.654445   19.600797   20.723469 C.3        1 MOL1        -0.1313
      17    H11     21.557471   19.799191   21.317407 H          1 MOL1         0.0993
      18    H12     20.703009   20.283949   19.863852 H          1 MOL1         0.0993
      19    C6      20.675771   18.152808   20.180002 C.3        1 MOL1        -0.2328
      20    H13     19.804567   17.961033   19.540298 H          1 MOL1         0.1004
      21    H14     20.674860   17.408871   20.983768 H          1 MOL1         0.1004
      22    H15     21.575719   17.984096   19.574584 H          1 MOL1         0.1004
      23    C7      20.114823   20.115902   26.343461 C.3        1 MOL1        -0.0781
      24    H16     20.848809   20.583299   27.003655 H          1 MOL1         0.0978
      25    H17     19.960978   20.743546   25.464961 H          1 MOL1         0.0978
      26    H18     19.169850   19.989628   26.876260 H          1 MOL1         0.0978
@<TRIPOS>BOND
    1     1     2    1
    2     1     3    1
    3     1     4    1
    4     4     5    1
    5     4     6    1
    6     4     7    1
    7     7     8    1
    8     7     9    1
    9     7    10    1
   10    10    11    1
   11    10    12    1
   12    10    13    1
   13    13    14    1
   14    13    15    1
   15    13    16    1
   16    16    17    1
   17    16    18    1
   18    16    19    1
   19    19    20    1
   20    19    21    1
   21    19    22    1
   22     1    23    1
   23    23    24    1
   24    23    25    1
   25    23    26    1
@<TRIPOS>SUBSTRUCTURE
       1 MOL1            1 RESIDUE      1      MOL     
@<SCITEGIC>MOL_PROPERTY
VM2 Rank
SciTegic.value.IntegerValue
196

@<SCITEGIC>MOL_PROPERTY
Conf_Id
SciTegic.value.IntegerValue
1600

@<SCITEGIC>MOL_PROPERTY
Probability
SciTegic.value.DoubleValue
0.00

@<SCITEGIC>MOL_PROPERTY
Sum Probability
SciTegic.value.DoubleValue
99.99

@<SCITEGIC>MOL_PROPERTY
Delta G
SciTegic.value.DoubleValue
5.328

@<SCITEGIC>MOL_PROPERTY
G
SciTegic.value.DoubleValue
80.795

@<SCITEGIC>MOL_PROPERTY
E
SciTegic.value.DoubleValue
47.955

@<SCITEGIC>MOL_PROPERTY
-TS
SciTegic.value.DoubleValue
32.840

@<SCITEGIC>MOL_PROPERTY
U+W
SciTegic.value.DoubleValue
26.493

@<SCITEGIC>MOL_PROPERTY
U
SciTegic.value.DoubleValue
76.259

@<SCITEGIC>MOL_PROPERTY
W
SciTegic.value.DoubleValue
-49.766

@<SCITEGIC>MOL_PROPERTY
W(PB)
SciTegic.value.DoubleValue
-51.984

@<SCITEGIC>MOL_PROPERTY
W(SA)
SciTegic.value.DoubleValue
2.218

@<SCITEGIC>MOL_PROPERTY
Valence
SciTegic.value.DoubleValue
6.620

@<SCITEGIC>MOL_PROPERTY
Coulomb
SciTegic.value.DoubleValue
69.255

@<SCITEGIC>MOL_PROPERTY
VdW
SciTegic.value.DoubleValue
0.384

@<SCITEGIC>MOL_PROPERTY
VdW6
SciTegic.value.DoubleValue
-8.487

@<SCITEGIC>MOL_PROPERTY
VdW12
SciTegic.value.DoubleValue
8.871

@<SCITEGIC>MOL_PROPERTY
Bond
SciTegic.value.DoubleValue
0.273

@<SCITEGIC>MOL_PROPERTY
Angle
SciTegic.value.DoubleValue
1.659

@<SCITEGIC>MOL_PROPERTY
Pdih
SciTegic.value.DoubleValue
4.688

@<SCITEGIC>MOL_PROPERTY
Idih
SciTegic.value.DoubleValue
0.000

@<SCITEGIC>MOL_PROPERTY
Tether
SciTegic.value.DoubleValue
0.000

@<TRIPOS>MOLECULE
guest-s12_vm2.mol2 : vm2 ligand conformer 197
          26          25           1
SMALL
USER_CHARGES
 
@<TRIPOS>ATOM
       1    N1      19.988967   18.759369   26.108946 N.4        1 MOL1        -0.4857
       2    H1      20.398163   18.409680   26.989784 H          1 MOL1         0.3650
       3    H2      19.093646   18.256573   26.013784 H          1 MOL1         0.3650
       4    C1      20.914997   18.413663   24.953602 C.3        1 MOL1         0.0209
       5    H3      21.462344   17.514684   25.248504 H          1 MOL1         0.0967
       6    H4      21.640929   19.222978   24.842530 H          1 MOL1         0.0967
       7    C2      20.218943   18.126734   23.604342 C.3        1 MOL1        -0.1378
       8    H5      20.983737   17.780858   22.900049 H          1 MOL1         0.0993
       9    H6      19.520939   17.288299   23.728063 H          1 MOL1         0.0993
      10    C3      19.466734   19.345289   23.012693 C.3        1 MOL1        -0.1338
      11    H7      20.106844   20.238045   23.031745 H          1 MOL1         0.0993
      12    H8      18.607417   19.566868   23.659019 H          1 MOL1         0.0993
      13    C4      18.935479   19.101952   21.575802 C.3        1 MOL1        -0.1338
      14    H9      18.720055   18.035304   21.423802 H          1 MOL1         0.0993
      15    H10     17.969180   19.615633   21.476221 H          1 MOL1         0.0993
      16    C5      19.860086   19.626242   20.447160 C.3        1 MOL1        -0.1313
      17    H11     19.986891   20.712996   20.550524 H          1 MOL1         0.0993
      18    H12     19.356756   19.469830   19.482779 H          1 MOL1         0.0993
      19    C6      21.248557   18.951614   20.396147 C.3        1 MOL1        -0.2328
      20    H13     21.849815   19.208604   21.276976 H          1 MOL1         0.1004
      21    H14     21.804911   19.285907   19.510937 H          1 MOL1         0.1004
      22    H15     21.156550   17.859225   20.341272 H          1 MOL1         0.1004
      23    C7      19.774237   20.265138   26.218307 C.3        1 MOL1        -0.0781
      24    H16     20.739962   20.753875   26.364285 H          1 MOL1         0.0978
      25    H17     19.307592   20.637997   25.305739 H          1 MOL1         0.0978
      26    H18     19.125602   20.471454   27.072567 H          1 MOL1         0.0978
@<TRIPOS>BOND
    1     1     2    1
    2     1     3    1
    3     1     4    1
    4     4     5    1
    5     4     6    1
    6     4     7    1
    7     7     8    1
    8     7     9    1
    9     7    10    1
   10    10    11    1
   11    10    12    1
   12    10    13    1
   13    13    14    1
   14    13    15    1
   15    13    16    1
   16    16    17    1
   17    16    18    1
   18    16    19    1
   19    19    20    1
   20    19    21    1
   21    19    22    1
   22     1    23    1
   23    23    24    1
   24    23    25    1
   25    23    26    1
@<TRIPOS>SUBSTRUCTURE
       1 MOL1            1 RESIDUE      1      MOL     
@<SCITEGIC>MOL_PROPERTY
VM2 Rank
SciTegic.value.IntegerValue
197

@<SCITEGIC>MOL_PROPERTY
Conf_Id
SciTegic.value.IntegerValue
223

@<SCITEGIC>MOL_PROPERTY
Probability
SciTegic.value.DoubleValue
0.00

@<SCITEGIC>MOL_PROPERTY
Sum Probability
SciTegic.value.DoubleValue
99.99

@<SCITEGIC>MOL_PROPERTY
Delta G
SciTegic.value.DoubleValue
5.471

@<SCITEGIC>MOL_PROPERTY
G
SciTegic.value.DoubleValue
80.938

@<SCITEGIC>MOL_PROPERTY
E
SciTegic.value.DoubleValue
48.019

@<SCITEGIC>MOL_PROPERTY
-TS
SciTegic.value.DoubleValue
32.919

@<SCITEGIC>MOL_PROPERTY
U+W
SciTegic.value.DoubleValue
26.557

@<SCITEGIC>MOL_PROPERTY
U
SciTegic.value.DoubleValue
76.255

@<SCITEGIC>MOL_PROPERTY
W
SciTegic.value.DoubleValue
-49.697

@<SCITEGIC>MOL_PROPERTY
W(PB)
SciTegic.value.DoubleValue
-51.922

@<SCITEGIC>MOL_PROPERTY
W(SA)
SciTegic.value.DoubleValue
2.224

@<SCITEGIC>MOL_PROPERTY
Valence
SciTegic.value.DoubleValue
6.727

@<SCITEGIC>MOL_PROPERTY
Coulomb
SciTegic.value.DoubleValue
69.126

@<SCITEGIC>MOL_PROPERTY
VdW
SciTegic.value.DoubleValue
0.401

@<SCITEGIC>MOL_PROPERTY
VdW6
SciTegic.value.DoubleValue
-8.493

@<SCITEGIC>MOL_PROPERTY
VdW12
SciTegic.value.DoubleValue
8.894

@<SCITEGIC>MOL_PROPERTY
Bond
SciTegic.value.DoubleValue
0.275

@<SCITEGIC>MOL_PROPERTY
Angle
SciTegic.value.DoubleValue
1.571

@<SCITEGIC>MOL_PROPERTY
Pdih
SciTegic.value.DoubleValue
4.881

@<SCITEGIC>MOL_PROPERTY
Idih
SciTegic.value.DoubleValue
0.000

@<SCITEGIC>MOL_PROPERTY
Tether
SciTegic.value.DoubleValue
0.000

@<TRIPOS>MOLECULE
guest-s12_vm2.mol2 : vm2 ligand conformer 198
          26          25           1
SMALL
USER_CHARGES
 
@<TRIPOS>ATOM
       1    N1      19.297011   18.561958   25.692184 N.4        1 MOL1        -0.4857
       2    H1      19.128771   17.991805   26.536132 H          1 MOL1         0.3650
       3    H2      18.594803   18.240500   25.009011 H          1 MOL1         0.3650
       4    C1      20.700666   18.291299   25.174767 C.3        1 MOL1         0.0209
       5    H3      20.970373   17.286007   25.508465 H          1 MOL1         0.0967
       6    H4      21.384684   18.995350   25.655126 H          1 MOL1         0.0967
       7    C2      20.864041   18.344510   23.639382 C.3        1 MOL1        -0.1378
       8    H5      21.890081   18.034630   23.401360 H          1 MOL1         0.0993
       9    H6      20.206768   17.595515   23.184374 H          1 MOL1         0.0993
      10    C3      20.606107   19.745676   23.028961 C.3        1 MOL1        -0.1338
      11    H7      21.227011   20.473362   23.569680 H          1 MOL1         0.0993
      12    H8      19.563801   20.050654   23.186995 H          1 MOL1         0.0993
      13    C4      20.948761   19.836719   21.518449 C.3        1 MOL1        -0.1338
      14    H9      21.329968   20.847248   21.315984 H          1 MOL1         0.0993
      15    H10     21.774776   19.155906   21.271231 H          1 MOL1         0.0993
      16    C5      19.753161   19.591931   20.562282 C.3        1 MOL1        -0.1313
      17    H11     20.096242   19.749873   19.530195 H          1 MOL1         0.0993
      18    H12     18.975801   20.347631   20.742302 H          1 MOL1         0.0993
      19    C6      19.130747   18.182367   20.665433 C.3        1 MOL1        -0.2328
      20    H13     19.897043   17.402016   20.572212 H          1 MOL1         0.1004
      21    H14     18.396002   18.028619   19.864563 H          1 MOL1         0.1004
      22    H15     18.606000   18.047431   21.618835 H          1 MOL1         0.1004
      23    C7      19.107506   20.035539   26.035541 C.3        1 MOL1        -0.0781
      24    H16     19.835407   20.320711   26.798197 H          1 MOL1         0.0978
      25    H17     19.253952   20.643981   25.142313 H          1 MOL1         0.0978
      26    H18     18.095963   20.184846   26.419645 H          1 MOL1         0.0978
@<TRIPOS>BOND
    1     1     2    1
    2     1     3    1
    3     1     4    1
    4     4     5    1
    5     4     6    1
    6     4     7    1
    7     7     8    1
    8     7     9    1
    9     7    10    1
   10    10    11    1
   11    10    12    1
   12    10    13    1
   13    13    14    1
   14    13    15    1
   15    13    16    1
   16    16    17    1
   17    16    18    1
   18    16    19    1
   19    19    20    1
   20    19    21    1
   21    19    22    1
   22     1    23    1
   23    23    24    1
   24    23    25    1
   25    23    26    1
@<TRIPOS>SUBSTRUCTURE
       1 MOL1            1 RESIDUE      1      MOL     
@<SCITEGIC>MOL_PROPERTY
VM2 Rank
SciTegic.value.IntegerValue
198

@<SCITEGIC>MOL_PROPERTY
Conf_Id
SciTegic.value.IntegerValue
848

@<SCITEGIC>MOL_PROPERTY
Probability
SciTegic.value.DoubleValue
0.00

@<SCITEGIC>MOL_PROPERTY
Sum Probability
SciTegic.value.DoubleValue
99.99

@<SCITEGIC>MOL_PROPERTY
Delta G
SciTegic.value.DoubleValue
5.485

@<SCITEGIC>MOL_PROPERTY
G
SciTegic.value.DoubleValue
80.951

@<SCITEGIC>MOL_PROPERTY
E
SciTegic.value.DoubleValue
48.181

@<SCITEGIC>MOL_PROPERTY
-TS
SciTegic.value.DoubleValue
32.770

@<SCITEGIC>MOL_PROPERTY
U+W
SciTegic.value.DoubleValue
26.719

@<SCITEGIC>MOL_PROPERTY
U
SciTegic.value.DoubleValue
76.621

@<SCITEGIC>MOL_PROPERTY
W
SciTegic.value.DoubleValue
-49.902

@<SCITEGIC>MOL_PROPERTY
W(PB)
SciTegic.value.DoubleValue
-52.079

@<SCITEGIC>MOL_PROPERTY
W(SA)
SciTegic.value.DoubleValue
2.177

@<SCITEGIC>MOL_PROPERTY
Valence
SciTegic.value.DoubleValue
6.730

@<SCITEGIC>MOL_PROPERTY
Coulomb
SciTegic.value.DoubleValue
69.541

@<SCITEGIC>MOL_PROPERTY
VdW
SciTegic.value.DoubleValue
0.350

@<SCITEGIC>MOL_PROPERTY
VdW6
SciTegic.value.DoubleValue
-8.499

@<SCITEGIC>MOL_PROPERTY
VdW12
SciTegic.value.DoubleValue
8.849

@<SCITEGIC>MOL_PROPERTY
Bond
SciTegic.value.DoubleValue
0.279

@<SCITEGIC>MOL_PROPERTY
Angle
SciTegic.value.DoubleValue
1.640

@<SCITEGIC>MOL_PROPERTY
Pdih
SciTegic.value.DoubleValue
4.811

@<SCITEGIC>MOL_PROPERTY
Idih
SciTegic.value.DoubleValue
0.000

@<SCITEGIC>MOL_PROPERTY
Tether
SciTegic.value.DoubleValue
0.000

@<TRIPOS>MOLECULE
guest-s12_vm2.mol2 : vm2 ligand conformer 199
          26          25           1
SMALL
USER_CHARGES
 
@<TRIPOS>ATOM
       1    N1      19.977568   18.758211   26.108598 N.4        1 MOL1        -0.4857
       2    H1      20.960497   18.447547   26.080323 H          1 MOL1         0.3650
       3    H2      19.586619   18.326813   26.961037 H          1 MOL1         0.3650
       4    C1      19.224175   18.240482   24.893599 C.3        1 MOL1         0.0209
       5    H3      18.359047   18.886833   24.726006 H          1 MOL1         0.0967
       6    H4      18.850845   17.247213   25.155819 H          1 MOL1         0.0967
       7    C2      20.056865   18.110091   23.598628 C.3        1 MOL1        -0.1378
       8    H5      20.899790   17.429569   23.777104 H          1 MOL1         0.0993
       9    H6      19.429326   17.621476   22.844958 H          1 MOL1         0.0993
      10    C3      20.586269   19.459924   23.052341 C.3        1 MOL1        -0.1338
      11    H7      21.335566   19.846263   23.755589 H          1 MOL1         0.0993
      12    H8      19.778923   20.204421   23.020171 H          1 MOL1         0.0993
      13    C4      21.254962   19.339503   21.657907 C.3        1 MOL1        -0.1338
      14    H9      22.101787   20.038894   21.622475 H          1 MOL1         0.0993
      15    H10     21.691979   18.339681   21.528982 H          1 MOL1         0.0993
      16    C5      20.324588   19.673812   20.463648 C.3        1 MOL1        -0.1313
      17    H11     20.915320   19.629401   19.537959 H          1 MOL1         0.0993
      18    H12     19.973526   20.711638   20.550086 H          1 MOL1         0.0993
      19    C6      19.108440   18.732492   20.320561 C.3        1 MOL1        -0.2328
      20    H13     19.423262   17.681763   20.280016 H          1 MOL1         0.1004
      21    H14     18.559152   18.953613   19.396297 H          1 MOL1         0.1004
      22    H15     18.407585   18.856119   21.155389 H          1 MOL1         0.1004
      23    C7      19.875133   20.275485   26.221717 C.3        1 MOL1        -0.0781
      24    H16     18.822692   20.557808   26.295599 H          1 MOL1         0.0978
      25    H17     20.406719   20.602668   27.118056 H          1 MOL1         0.0978
      26    H18     20.319964   20.741429   25.341616 H          1 MOL1         0.0978
@<TRIPOS>BOND
    1     1     2    1
    2     1     3    1
    3     1     4    1
    4     4     5    1
    5     4     6    1
    6     4     7    1
    7     7     8    1
    8     7     9    1
    9     7    10    1
   10    10    11    1
   11    10    12    1
   12    10    13    1
   13    13    14    1
   14    13    15    1
   15    13    16    1
   16    16    17    1
   17    16    18    1
   18    16    19    1
   19    19    20    1
   20    19    21    1
   21    19    22    1
   22     1    23    1
   23    23    24    1
   24    23    25    1
   25    23    26    1
@<TRIPOS>SUBSTRUCTURE
       1 MOL1            1 RESIDUE      1      MOL     
@<SCITEGIC>MOL_PROPERTY
VM2 Rank
SciTegic.value.IntegerValue
199

@<SCITEGIC>MOL_PROPERTY
Conf_Id
SciTegic.value.IntegerValue
232

@<SCITEGIC>MOL_PROPERTY
Probability
SciTegic.value.DoubleValue
0.00

@<SCITEGIC>MOL_PROPERTY
Sum Probability
SciTegic.value.DoubleValue
99.99

@<SCITEGIC>MOL_PROPERTY
Delta G
SciTegic.value.DoubleValue
5.502

@<SCITEGIC>MOL_PROPERTY
G
SciTegic.value.DoubleValue
80.969

@<SCITEGIC>MOL_PROPERTY
E
SciTegic.value.DoubleValue
48.050

@<SCITEGIC>MOL_PROPERTY
-TS
SciTegic.value.DoubleValue
32.919

@<SCITEGIC>MOL_PROPERTY
U+W
SciTegic.value.DoubleValue
26.588

@<SCITEGIC>MOL_PROPERTY
U
SciTegic.value.DoubleValue
76.255

@<SCITEGIC>MOL_PROPERTY
W
SciTegic.value.DoubleValue
-49.666

@<SCITEGIC>MOL_PROPERTY
W(PB)
SciTegic.value.DoubleValue
-51.863

@<SCITEGIC>MOL_PROPERTY
W(SA)
SciTegic.value.DoubleValue
2.196

@<SCITEGIC>MOL_PROPERTY
Valence
SciTegic.value.DoubleValue
6.727

@<SCITEGIC>MOL_PROPERTY
Coulomb
SciTegic.value.DoubleValue
69.126

@<SCITEGIC>MOL_PROPERTY
VdW
SciTegic.value.DoubleValue
0.402

@<SCITEGIC>MOL_PROPERTY
VdW6
SciTegic.value.DoubleValue
-8.494

@<SCITEGIC>MOL_PROPERTY
VdW12
SciTegic.value.DoubleValue
8.895

@<SCITEGIC>MOL_PROPERTY
Bond
SciTegic.value.DoubleValue
0.275

@<SCITEGIC>MOL_PROPERTY
Angle
SciTegic.value.DoubleValue
1.572

@<SCITEGIC>MOL_PROPERTY
Pdih
SciTegic.value.DoubleValue
4.880

@<SCITEGIC>MOL_PROPERTY
Idih
SciTegic.value.DoubleValue
0.000

@<SCITEGIC>MOL_PROPERTY
Tether
SciTegic.value.DoubleValue
0.000

@<TRIPOS>MOLECULE
guest-s12_vm2.mol2 : vm2 ligand conformer 200
          26          25           1
SMALL
USER_CHARGES
 
@<TRIPOS>ATOM
       1    N1      20.722885   18.707801   25.742444 N.4        1 MOL1        -0.4857
       2    H1      21.521511   18.539796   25.112263 H          1 MOL1         0.3650
       3    H2      20.943559   18.177398   26.600115 H          1 MOL1         0.3650
       4    C1      19.442523   18.162732   25.130240 C.3        1 MOL1         0.0209
       5    H3      18.598494   18.710623   25.556552 H          1 MOL1         0.0967
       6    H4      19.358888   17.121346   25.451536 H          1 MOL1         0.0967
       7    C2      19.379451   18.192671   23.586852 C.3        1 MOL1        -0.1378
       8    H5      20.204721   17.595256   23.184286 H          1 MOL1         0.0993
       9    H6      18.456434   17.683457   23.279969 H          1 MOL1         0.0993
      10    C3      19.390808   19.621327   22.985842 C.3        1 MOL1        -0.1338
      11    H7      20.336179   20.129707   23.214335 H          1 MOL1         0.0993
      12    H8      18.599191   20.204545   23.476376 H          1 MOL1         0.0993
      13    C4      19.143658   19.651816   21.454396 C.3        1 MOL1        -0.1338
      14    H9      18.492025   18.819620   21.154812 H          1 MOL1         0.0993
      15    H10     18.580918   20.565639   21.218323 H          1 MOL1         0.0993
      16    C5      20.428161   19.660936   20.586293 C.3        1 MOL1        -0.1313
      17    H11     21.021792   20.557120   20.814845 H          1 MOL1         0.0993
      18    H12     20.133524   19.753361   19.531542 H          1 MOL1         0.0993
      19    C6      21.314308   18.405937   20.743254 C.3        1 MOL1        -0.2328
      20    H13     22.119375   18.409812   19.997108 H          1 MOL1         0.1004
      21    H14     20.730401   17.487242   20.602195 H          1 MOL1         0.1004
      22    H15     21.787200   18.373357   21.732121 H          1 MOL1         0.1004
      23    C7      20.586205   20.186780   26.087679 C.3        1 MOL1        -0.0781
      24    H16     21.517363   20.534703   26.540388 H          1 MOL1         0.0978
      25    H17     20.382526   20.759432   25.182090 H          1 MOL1         0.0978
      26    H18     19.764260   20.313490   26.795604 H          1 MOL1         0.0978
@<TRIPOS>BOND
    1     1     2    1
    2     1     3    1
    3     1     4    1
    4     4     5    1
    5     4     6    1
    6     4     7    1
    7     7     8    1
    8     7     9    1
    9     7    10    1
   10    10    11    1
   11    10    12    1
   12    10    13    1
   13    13    14    1
   14    13    15    1
   15    13    16    1
   16    16    17    1
   17    16    18    1
   18    16    19    1
   19    19    20    1
   20    19    21    1
   21    19    22    1
   22     1    23    1
   23    23    24    1
   24    23    25    1
   25    23    26    1
@<TRIPOS>SUBSTRUCTURE
       1 MOL1            1 RESIDUE      1      MOL     
@<SCITEGIC>MOL_PROPERTY
VM2 Rank
SciTegic.value.IntegerValue
200

@<SCITEGIC>MOL_PROPERTY
Conf_Id
SciTegic.value.IntegerValue
1098

@<SCITEGIC>MOL_PROPERTY
Probability
SciTegic.value.DoubleValue
0.00

@<SCITEGIC>MOL_PROPERTY
Sum Probability
SciTegic.value.DoubleValue
99.99

@<SCITEGIC>MOL_PROPERTY
Delta G
SciTegic.value.DoubleValue
5.543

@<SCITEGIC>MOL_PROPERTY
G
SciTegic.value.DoubleValue
81.010

@<SCITEGIC>MOL_PROPERTY
E
SciTegic.value.DoubleValue
48.239

@<SCITEGIC>MOL_PROPERTY
-TS
SciTegic.value.DoubleValue
32.770

@<SCITEGIC>MOL_PROPERTY
U+W
SciTegic.value.DoubleValue
26.778

@<SCITEGIC>MOL_PROPERTY
U
SciTegic.value.DoubleValue
76.621

@<SCITEGIC>MOL_PROPERTY
W
SciTegic.value.DoubleValue
-49.844

@<SCITEGIC>MOL_PROPERTY
W(PB)
SciTegic.value.DoubleValue
-52.049

@<SCITEGIC>MOL_PROPERTY
W(SA)
SciTegic.value.DoubleValue
2.205

@<SCITEGIC>MOL_PROPERTY
Valence
SciTegic.value.DoubleValue
6.730

@<SCITEGIC>MOL_PROPERTY
Coulomb
SciTegic.value.DoubleValue
69.541

@<SCITEGIC>MOL_PROPERTY
VdW
SciTegic.value.DoubleValue
0.350

@<SCITEGIC>MOL_PROPERTY
VdW6
SciTegic.value.DoubleValue
-8.499

@<SCITEGIC>MOL_PROPERTY
VdW12
SciTegic.value.DoubleValue
8.849

@<SCITEGIC>MOL_PROPERTY
Bond
SciTegic.value.DoubleValue
0.279

@<SCITEGIC>MOL_PROPERTY
Angle
SciTegic.value.DoubleValue
1.640

@<SCITEGIC>MOL_PROPERTY
Pdih
SciTegic.value.DoubleValue
4.811

@<SCITEGIC>MOL_PROPERTY
Idih
SciTegic.value.DoubleValue
0.000

@<SCITEGIC>MOL_PROPERTY
Tether
SciTegic.value.DoubleValue
0.000

@<TRIPOS>MOLECULE
guest-s12_vm2.mol2 : vm2 ligand conformer 201
          26          25           1
SMALL
USER_CHARGES
 
@<TRIPOS>ATOM
       1    N1      20.177217   18.473207   26.129252 N.4        1 MOL1        -0.4857
       2    H1      20.683194   18.490662   27.028938 H          1 MOL1         0.3650
       3    H2      19.918009   17.484017   25.993313 H          1 MOL1         0.3650
       4    C1      21.115250   18.925361   25.018213 C.3        1 MOL1         0.0209
       5    H3      22.026266   18.331510   25.128565 H          1 MOL1         0.0967
       6    H4      21.378400   19.972137   25.189355 H          1 MOL1         0.0967
       7    C2      20.588290   18.737172   23.578117 C.3        1 MOL1        -0.1378
       8    H5      21.448225   18.493627   22.942201 H          1 MOL1         0.0993
       9    H6      19.909284   17.875433   23.536615 H          1 MOL1         0.0993
      10    C3      19.900846   20.004056   23.012304 C.3        1 MOL1        -0.1338
      11    H7      20.639334   20.814440   22.940505 H          1 MOL1         0.0993
      12    H8      19.136578   20.357657   23.714378 H          1 MOL1         0.0993
      13    C4      19.224447   19.801762   21.631441 C.3        1 MOL1        -0.1338
      14    H9      18.413782   19.064550   21.712251 H          1 MOL1         0.0993
      15    H10     18.735977   20.748517   21.362075 H          1 MOL1         0.0993
      16    C5      20.189341   19.414331   20.480861 C.3        1 MOL1        -0.1313
      17    H11     21.188817   19.833431   20.662513 H          1 MOL1         0.0993
      18    H12     19.831058   19.881374   19.552687 H          1 MOL1         0.0993
      19    C6      20.280654   17.889045   20.240330 C.3        1 MOL1        -0.2328
      20    H13     19.296062   17.471879   19.992190 H          1 MOL1         0.1004
      21    H14     20.662146   17.353992   21.116692 H          1 MOL1         0.1004
      22    H15     20.954023   17.672811   19.400854 H          1 MOL1         0.1004
      23    C7      18.931955   19.345065   26.226481 C.3        1 MOL1        -0.0781
      24    H16     18.344008   19.234493   25.313381 H          1 MOL1         0.0978
      25    H17     18.337527   19.023469   27.084558 H          1 MOL1         0.0978
      26    H18     19.231771   20.387381   26.354706 H          1 MOL1         0.0978
@<TRIPOS>BOND
    1     1     2    1
    2     1     3    1
    3     1     4    1
    4     4     5    1
    5     4     6    1
    6     4     7    1
    7     7     8    1
    8     7     9    1
    9     7    10    1
   10    10    11    1
   11    10    12    1
   12    10    13    1
   13    13    14    1
   14    13    15    1
   15    13    16    1
   16    16    17    1
   17    16    18    1
   18    16    19    1
   19    19    20    1
   20    19    21    1
   21    19    22    1
   22     1    23    1
   23    23    24    1
   24    23    25    1
   25    23    26    1
@<TRIPOS>SUBSTRUCTURE
       1 MOL1            1 RESIDUE      1      MOL     
@<SCITEGIC>MOL_PROPERTY
VM2 Rank
SciTegic.value.IntegerValue
201

@<SCITEGIC>MOL_PROPERTY
Conf_Id
SciTegic.value.IntegerValue
450

@<SCITEGIC>MOL_PROPERTY
Probability
SciTegic.value.DoubleValue
0.00

@<SCITEGIC>MOL_PROPERTY
Sum Probability
SciTegic.value.DoubleValue
100.00

@<SCITEGIC>MOL_PROPERTY
Delta G
SciTegic.value.DoubleValue
5.600

@<SCITEGIC>MOL_PROPERTY
G
SciTegic.value.DoubleValue
81.067

@<SCITEGIC>MOL_PROPERTY
E
SciTegic.value.DoubleValue
48.304

@<SCITEGIC>MOL_PROPERTY
-TS
SciTegic.value.DoubleValue
32.762

@<SCITEGIC>MOL_PROPERTY
U+W
SciTegic.value.DoubleValue
26.842

@<SCITEGIC>MOL_PROPERTY
U
SciTegic.value.DoubleValue
76.536

@<SCITEGIC>MOL_PROPERTY
W
SciTegic.value.DoubleValue
-49.694

@<SCITEGIC>MOL_PROPERTY
W(PB)
SciTegic.value.DoubleValue
-51.899

@<SCITEGIC>MOL_PROPERTY
W(SA)
SciTegic.value.DoubleValue
2.205

@<SCITEGIC>MOL_PROPERTY
Valence
SciTegic.value.DoubleValue
6.954

@<SCITEGIC>MOL_PROPERTY
Coulomb
SciTegic.value.DoubleValue
69.035

@<SCITEGIC>MOL_PROPERTY
VdW
SciTegic.value.DoubleValue
0.548

@<SCITEGIC>MOL_PROPERTY
VdW6
SciTegic.value.DoubleValue
-8.376

@<SCITEGIC>MOL_PROPERTY
VdW12
SciTegic.value.DoubleValue
8.924

@<SCITEGIC>MOL_PROPERTY
Bond
SciTegic.value.DoubleValue
0.281

@<SCITEGIC>MOL_PROPERTY
Angle
SciTegic.value.DoubleValue
1.722

@<SCITEGIC>MOL_PROPERTY
Pdih
SciTegic.value.DoubleValue
4.950

@<SCITEGIC>MOL_PROPERTY
Idih
SciTegic.value.DoubleValue
0.000

@<SCITEGIC>MOL_PROPERTY
Tether
SciTegic.value.DoubleValue
0.000

@<TRIPOS>MOLECULE
guest-s12_vm2.mol2 : vm2 ligand conformer 202
          26          25           1
SMALL
USER_CHARGES
 
@<TRIPOS>ATOM
       1    N1      19.850065   18.439789   26.117626 N.4        1 MOL1        -0.4857
       2    H1      20.312366   17.524230   26.007210 H          1 MOL1         0.3650
       3    H2      19.289306   18.348376   26.979567 H          1 MOL1         0.3650
       4    C1      18.920172   18.701327   24.940488 C.3        1 MOL1         0.0209
       5    H3      18.439917   19.672227   25.085341 H          1 MOL1         0.0967
       6    H4      18.142267   17.935107   24.991052 H          1 MOL1         0.0967
       7    C2      19.573717   18.633653   23.542176 C.3        1 MOL1        -0.1378
       8    H5      20.413870   17.927000   23.554450 H          1 MOL1         0.0993
       9    H6      18.827285   18.226119   22.849393 H          1 MOL1         0.0993
      10    C3      20.029204   20.017225   23.016837 C.3        1 MOL1        -0.1338
      11    H7      20.655232   20.512814   23.768187 H          1 MOL1         0.0993
      12    H8      19.149214   20.662338   22.887649 H          1 MOL1         0.0993
      13    C4      20.827598   19.965508   21.688260 C.3        1 MOL1        -0.1338
      14    H9      21.132480   20.993290   21.446982 H          1 MOL1         0.0993
      15    H10     21.762731   19.406625   21.830982 H          1 MOL1         0.0993
      16    C5      20.043882   19.399425   20.475703 C.3        1 MOL1        -0.1313
      17    H11     20.364701   19.935732   19.571573 H          1 MOL1         0.0993
      18    H12     18.970157   19.606841   20.583800 H          1 MOL1         0.0993
      19    C6      20.279443   17.888849   20.240414 C.3        1 MOL1        -0.2328
      20    H13     19.953308   17.281610   21.091722 H          1 MOL1         0.1004
      21    H14     21.342902   17.680797   20.064942 H          1 MOL1         0.1004
      22    H15     19.724153   17.547082   19.357379 H          1 MOL1         0.1004
      23    C7      20.883919   19.544226   26.295496 C.3        1 MOL1        -0.0781
      24    H16     20.371766   20.503682   26.394988 H          1 MOL1         0.0978
      25    H17     21.469497   19.343047   27.195323 H          1 MOL1         0.0978
      26    H18     21.544481   19.561061   25.426568 H          1 MOL1         0.0978
@<TRIPOS>BOND
    1     1     2    1
    2     1     3    1
    3     1     4    1
    4     4     5    1
    5     4     6    1
    6     4     7    1
    7     7     8    1
    8     7     9    1
    9     7    10    1
   10    10    11    1
   11    10    12    1
   12    10    13    1
   13    13    14    1
   14    13    15    1
   15    13    16    1
   16    16    17    1
   17    16    18    1
   18    16    19    1
   19    19    20    1
   20    19    21    1
   21    19    22    1
   22     1    23    1
   23    23    24    1
   24    23    25    1
   25    23    26    1
@<TRIPOS>SUBSTRUCTURE
       1 MOL1            1 RESIDUE      1      MOL     
@<SCITEGIC>MOL_PROPERTY
VM2 Rank
SciTegic.value.IntegerValue
202

@<SCITEGIC>MOL_PROPERTY
Conf_Id
SciTegic.value.IntegerValue
510

@<SCITEGIC>MOL_PROPERTY
Probability
SciTegic.value.DoubleValue
0.00

@<SCITEGIC>MOL_PROPERTY
Sum Probability
SciTegic.value.DoubleValue
100.00

@<SCITEGIC>MOL_PROPERTY
Delta G
SciTegic.value.DoubleValue
5.641

@<SCITEGIC>MOL_PROPERTY
G
SciTegic.value.DoubleValue
81.107

@<SCITEGIC>MOL_PROPERTY
E
SciTegic.value.DoubleValue
48.345

@<SCITEGIC>MOL_PROPERTY
-TS
SciTegic.value.DoubleValue
32.762

@<SCITEGIC>MOL_PROPERTY
U+W
SciTegic.value.DoubleValue
26.883

@<SCITEGIC>MOL_PROPERTY
U
SciTegic.value.DoubleValue
76.537

@<SCITEGIC>MOL_PROPERTY
W
SciTegic.value.DoubleValue
-49.653

@<SCITEGIC>MOL_PROPERTY
W(PB)
SciTegic.value.DoubleValue
-51.865

@<SCITEGIC>MOL_PROPERTY
W(SA)
SciTegic.value.DoubleValue
2.212

@<SCITEGIC>MOL_PROPERTY
Valence
SciTegic.value.DoubleValue
6.954

@<SCITEGIC>MOL_PROPERTY
Coulomb
SciTegic.value.DoubleValue
69.035

@<SCITEGIC>MOL_PROPERTY
VdW
SciTegic.value.DoubleValue
0.548

@<SCITEGIC>MOL_PROPERTY
VdW6
SciTegic.value.DoubleValue
-8.377

@<SCITEGIC>MOL_PROPERTY
VdW12
SciTegic.value.DoubleValue
8.924

@<SCITEGIC>MOL_PROPERTY
Bond
SciTegic.value.DoubleValue
0.281

@<SCITEGIC>MOL_PROPERTY
Angle
SciTegic.value.DoubleValue
1.722

@<SCITEGIC>MOL_PROPERTY
Pdih
SciTegic.value.DoubleValue
4.950

@<SCITEGIC>MOL_PROPERTY
Idih
SciTegic.value.DoubleValue
0.000

@<SCITEGIC>MOL_PROPERTY
Tether
SciTegic.value.DoubleValue
0.000

@<TRIPOS>MOLECULE
guest-s12_vm2.mol2 : vm2 ligand conformer 203
          26          25           1
SMALL
USER_CHARGES
 
@<TRIPOS>ATOM
       1    N1      19.376648   18.982916   25.659644 N.4        1 MOL1        -0.4857
       2    H1      19.150301   18.883086   26.661833 H          1 MOL1         0.3650
       3    H2      18.733791   18.339202   25.175278 H          1 MOL1         0.3650
       4    C1      20.818401   18.563547   25.426671 C.3        1 MOL1         0.0209
       5    H3      21.066043   17.849518   26.216294 H          1 MOL1         0.0967
       6    H4      21.453636   19.441750   25.566279 H          1 MOL1         0.0967
       7    C2      21.127693   17.891742   24.067457 C.3        1 MOL1        -0.1378
       8    H5      22.178593   17.574847   24.098994 H          1 MOL1         0.0993
       9    H6      20.543084   16.968334   23.961784 H          1 MOL1         0.0993
      10    C3      20.936639   18.798736   22.825241 C.3        1 MOL1        -0.1338
      11    H7      21.679354   18.505696   22.071364 H          1 MOL1         0.0993
      12    H8      21.162932   19.841847   23.084441 H          1 MOL1         0.0993
      13    C4      19.525473   18.682922   22.193174 C.3        1 MOL1        -0.1338
      14    H9      19.383873   17.667305   21.798570 H          1 MOL1         0.0993
      15    H10     18.755645   18.816780   22.961756 H          1 MOL1         0.0993
      16    C5      19.271792   19.711973   21.065136 C.3        1 MOL1        -0.1313
      17    H11     19.379855   20.731362   21.461225 H          1 MOL1         0.0993
      18    H12     18.228249   19.621041   20.732569 H          1 MOL1         0.0993
      19    C6      20.201894   19.528264   19.844330 C.3        1 MOL1        -0.2328
      20    H13     19.922522   20.221770   19.040650 H          1 MOL1         0.1004
      21    H14     20.133477   18.507821   19.445590 H          1 MOL1         0.1004
      22    H15     21.249453   19.727657   20.102067 H          1 MOL1         0.1004
      23    C7      19.149460   20.429900   25.235347 C.3        1 MOL1        -0.0781
      24    H16     19.811497   21.079372   25.812119 H          1 MOL1         0.0978
      25    H17     19.364842   20.536902   24.171109 H          1 MOL1         0.0978
      26    H18     18.109040   20.699861   25.429410 H          1 MOL1         0.0978
@<TRIPOS>BOND
    1     1     2    1
    2     1     3    1
    3     1     4    1
    4     4     5    1
    5     4     6    1
    6     4     7    1
    7     7     8    1
    8     7     9    1
    9     7    10    1
   10    10    11    1
   11    10    12    1
   12    10    13    1
   13    13    14    1
   14    13    15    1
   15    13    16    1
   16    16    17    1
   17    16    18    1
   18    16    19    1
   19    19    20    1
   20    19    21    1
   21    19    22    1
   22     1    23    1
   23    23    24    1
   24    23    25    1
   25    23    26    1
@<TRIPOS>SUBSTRUCTURE
       1 MOL1            1 RESIDUE      1      MOL     
@<SCITEGIC>MOL_PROPERTY
VM2 Rank
SciTegic.value.IntegerValue
203

@<SCITEGIC>MOL_PROPERTY
Conf_Id
SciTegic.value.IntegerValue
1333

@<SCITEGIC>MOL_PROPERTY
Probability
SciTegic.value.DoubleValue
0.00

@<SCITEGIC>MOL_PROPERTY
Sum Probability
SciTegic.value.DoubleValue
100.00

@<SCITEGIC>MOL_PROPERTY
Delta G
SciTegic.value.DoubleValue
5.686

@<SCITEGIC>MOL_PROPERTY
G
SciTegic.value.DoubleValue
81.153

@<SCITEGIC>MOL_PROPERTY
E
SciTegic.value.DoubleValue
48.074

@<SCITEGIC>MOL_PROPERTY
-TS
SciTegic.value.DoubleValue
33.079

@<SCITEGIC>MOL_PROPERTY
U+W
SciTegic.value.DoubleValue
26.612

@<SCITEGIC>MOL_PROPERTY
U
SciTegic.value.DoubleValue
76.615

@<SCITEGIC>MOL_PROPERTY
W
SciTegic.value.DoubleValue
-50.003

@<SCITEGIC>MOL_PROPERTY
W(PB)
SciTegic.value.DoubleValue
-52.185

@<SCITEGIC>MOL_PROPERTY
W(SA)
SciTegic.value.DoubleValue
2.182

@<SCITEGIC>MOL_PROPERTY
Valence
SciTegic.value.DoubleValue
6.481

@<SCITEGIC>MOL_PROPERTY
Coulomb
SciTegic.value.DoubleValue
70.025

@<SCITEGIC>MOL_PROPERTY
VdW
SciTegic.value.DoubleValue
0.109

@<SCITEGIC>MOL_PROPERTY
VdW6
SciTegic.value.DoubleValue
-9.001

@<SCITEGIC>MOL_PROPERTY
VdW12
SciTegic.value.DoubleValue
9.110

@<SCITEGIC>MOL_PROPERTY
Bond
SciTegic.value.DoubleValue
0.267

@<SCITEGIC>MOL_PROPERTY
Angle
SciTegic.value.DoubleValue
1.571

@<SCITEGIC>MOL_PROPERTY
Pdih
SciTegic.value.DoubleValue
4.643

@<SCITEGIC>MOL_PROPERTY
Idih
SciTegic.value.DoubleValue
0.000

@<SCITEGIC>MOL_PROPERTY
Tether
SciTegic.value.DoubleValue
0.000

@<TRIPOS>MOLECULE
guest-s12_vm2.mol2 : vm2 ligand conformer 204
          26          25           1
SMALL
USER_CHARGES
 
@<TRIPOS>ATOM
       1    N1      19.992105   18.510933   26.043786 N.4        1 MOL1        -0.4857
       2    H1      20.417873   18.050733   26.863888 H          1 MOL1         0.3650
       3    H2      19.286827   17.842169   25.699175 H          1 MOL1         0.3650
       4    C1      21.059017   18.744647   24.986648 C.3        1 MOL1         0.0209
       5    H3      21.852975   18.017329   25.174657 H          1 MOL1         0.0967
       6    H4      21.479540   19.741778   25.139049 H          1 MOL1         0.0967
       7    C2      20.593065   18.575835   23.523192 C.3        1 MOL1        -0.1378
       8    H5      21.478682   18.685587   22.886175 H          1 MOL1         0.0993
       9    H6      20.220670   17.553854   23.374055 H          1 MOL1         0.0993
      10    C3      19.516368   19.597436   23.083454 C.3        1 MOL1        -0.1338
      11    H7      19.899503   20.617303   23.225900 H          1 MOL1         0.0993
      12    H8      18.639074   19.501096   23.735327 H          1 MOL1         0.0993
      13    C4      19.032062   19.426943   21.619921 C.3        1 MOL1        -0.1338
      14    H9      18.545043   18.449929   21.495351 H          1 MOL1         0.0993
      15    H10     18.244600   20.172850   21.443732 H          1 MOL1         0.0993
      16    C5      20.129791   19.620883   20.541910 C.3        1 MOL1        -0.1313
      17    H11     20.922121   20.283586   20.916957 H          1 MOL1         0.0993
      18    H12     19.687279   20.139029   19.679519 H          1 MOL1         0.0993
      19    C6      20.734684   18.289092   20.038882 C.3        1 MOL1        -0.2328
      20    H13     19.962241   17.656124   19.583080 H          1 MOL1         0.1004
      21    H14     21.203746   17.717128   20.847120 H          1 MOL1         0.1004
      22    H15     21.501248   18.478822   19.276458 H          1 MOL1         0.1004
      23    C7      19.350908   19.824232   26.479207 C.3        1 MOL1        -0.0781
      24    H16     18.598259   19.617637   27.243339 H          1 MOL1         0.0978
      25    H17     20.122275   20.478441   26.891306 H          1 MOL1         0.0978
      26    H18     18.880505   20.306734   25.621426 H          1 MOL1         0.0978
@<TRIPOS>BOND
    1     1     2    1
    2     1     3    1
    3     1     4    1
    4     4     5    1
    5     4     6    1
    6     4     7    1
    7     7     8    1
    8     7     9    1
    9     7    10    1
   10    10    11    1
   11    10    12    1
   12    10    13    1
   13    13    14    1
   14    13    15    1
   15    13    16    1
   16    16    17    1
   17    16    18    1
   18    16    19    1
   19    19    20    1
   20    19    21    1
   21    19    22    1
   22     1    23    1
   23    23    24    1
   24    23    25    1
   25    23    26    1
@<TRIPOS>SUBSTRUCTURE
       1 MOL1            1 RESIDUE      1      MOL     
@<SCITEGIC>MOL_PROPERTY
VM2 Rank
SciTegic.value.IntegerValue
204

@<SCITEGIC>MOL_PROPERTY
Conf_Id
SciTegic.value.IntegerValue
839

@<SCITEGIC>MOL_PROPERTY
Probability
SciTegic.value.DoubleValue
0.00

@<SCITEGIC>MOL_PROPERTY
Sum Probability
SciTegic.value.DoubleValue
100.00

@<SCITEGIC>MOL_PROPERTY
Delta G
SciTegic.value.DoubleValue
5.713

@<SCITEGIC>MOL_PROPERTY
G
SciTegic.value.DoubleValue
81.179

@<SCITEGIC>MOL_PROPERTY
E
SciTegic.value.DoubleValue
48.416

@<SCITEGIC>MOL_PROPERTY
-TS
SciTegic.value.DoubleValue
32.763

@<SCITEGIC>MOL_PROPERTY
U+W
SciTegic.value.DoubleValue
26.954

@<SCITEGIC>MOL_PROPERTY
U
SciTegic.value.DoubleValue
76.526

@<SCITEGIC>MOL_PROPERTY
W
SciTegic.value.DoubleValue
-49.572

@<SCITEGIC>MOL_PROPERTY
W(PB)
SciTegic.value.DoubleValue
-51.788

@<SCITEGIC>MOL_PROPERTY
W(SA)
SciTegic.value.DoubleValue
2.215

@<SCITEGIC>MOL_PROPERTY
Valence
SciTegic.value.DoubleValue
6.989

@<SCITEGIC>MOL_PROPERTY
Coulomb
SciTegic.value.DoubleValue
69.059

@<SCITEGIC>MOL_PROPERTY
VdW
SciTegic.value.DoubleValue
0.478

@<SCITEGIC>MOL_PROPERTY
VdW6
SciTegic.value.DoubleValue
-8.314

@<SCITEGIC>MOL_PROPERTY
VdW12
SciTegic.value.DoubleValue
8.792

@<SCITEGIC>MOL_PROPERTY
Bond
SciTegic.value.DoubleValue
0.275

@<SCITEGIC>MOL_PROPERTY
Angle
SciTegic.value.DoubleValue
1.647

@<SCITEGIC>MOL_PROPERTY
Pdih
SciTegic.value.DoubleValue
5.068

@<SCITEGIC>MOL_PROPERTY
Idih
SciTegic.value.DoubleValue
0.000

@<SCITEGIC>MOL_PROPERTY
Tether
SciTegic.value.DoubleValue
0.000

@<TRIPOS>MOLECULE
guest-s12_vm2.mol2 : vm2 ligand conformer 205
          26          25           1
SMALL
USER_CHARGES
 
@<TRIPOS>ATOM
       1    N1      19.766535   18.210148   25.346960 N.4        1 MOL1        -0.4857
       2    H1      19.846507   17.556861   26.142216 H          1 MOL1         0.3650
       3    H2      19.748728   17.611926   24.507817 H          1 MOL1         0.3650
       4    C1      20.981615   19.120532   25.317206 C.3        1 MOL1         0.0209
       5    H3      21.779003   18.595072   25.848923 H          1 MOL1         0.0967
       6    H4      20.744451   20.022219   25.887284 H          1 MOL1         0.0967
       7    C2      21.514934   19.499760   23.915674 C.3        1 MOL1        -0.1378
       8    H5      22.427003   20.090860   24.071900 H          1 MOL1         0.0993
       9    H6      21.839799   18.596836   23.385932 H          1 MOL1         0.0993
      10    C3      20.544124   20.342855   23.045546 C.3        1 MOL1        -0.1338
      11    H7      21.135700   21.000357   22.393592 H          1 MOL1         0.0993
      12    H8      19.969112   21.017076   23.694832 H          1 MOL1         0.0993
      13    C4      19.574326   19.523099   22.153619 C.3        1 MOL1        -0.1338
      14    H9      19.018867   18.793182   22.752954 H          1 MOL1         0.0993
      15    H10     18.823467   20.210532   21.740143 H          1 MOL1         0.0993
      16    C5      20.278392   18.799357   20.980700 C.3        1 MOL1        -0.1313
      17    H11     21.003402   18.067941   21.360223 H          1 MOL1         0.0993
      18    H12     20.845927   19.526534   20.383314 H          1 MOL1         0.0993
      19    C6      19.264957   18.072859   20.070647 C.3        1 MOL1        -0.2328
      20    H13     18.702402   17.315334   20.631749 H          1 MOL1         0.1004
      21    H14     19.779960   17.566040   19.244253 H          1 MOL1         0.1004
      22    H15     18.546362   18.779789   19.635838 H          1 MOL1         0.1004
      23    C7      18.483116   19.021391   25.486647 C.3        1 MOL1        -0.0781
      24    H16     18.390925   19.706134   24.641975 H          1 MOL1         0.0978
      25    H17     17.629538   18.340143   25.504628 H          1 MOL1         0.0978
      26    H18     18.519664   19.589809   26.418508 H          1 MOL1         0.0978
@<TRIPOS>BOND
    1     1     2    1
    2     1     3    1
    3     1     4    1
    4     4     5    1
    5     4     6    1
    6     4     7    1
    7     7     8    1
    8     7     9    1
    9     7    10    1
   10    10    11    1
   11    10    12    1
   12    10    13    1
   13    13    14    1
   14    13    15    1
   15    13    16    1
   16    16    17    1
   17    16    18    1
   18    16    19    1
   19    19    20    1
   20    19    21    1
   21    19    22    1
   22     1    23    1
   23    23    24    1
   24    23    25    1
   25    23    26    1
@<TRIPOS>SUBSTRUCTURE
       1 MOL1            1 RESIDUE      1      MOL     
@<SCITEGIC>MOL_PROPERTY
VM2 Rank
SciTegic.value.IntegerValue
205

@<SCITEGIC>MOL_PROPERTY
Conf_Id
SciTegic.value.IntegerValue
270

@<SCITEGIC>MOL_PROPERTY
Probability
SciTegic.value.DoubleValue
0.00

@<SCITEGIC>MOL_PROPERTY
Sum Probability
SciTegic.value.DoubleValue
100.00

@<SCITEGIC>MOL_PROPERTY
Delta G
SciTegic.value.DoubleValue
5.771

@<SCITEGIC>MOL_PROPERTY
G
SciTegic.value.DoubleValue
81.238

@<SCITEGIC>MOL_PROPERTY
E
SciTegic.value.DoubleValue
48.414

@<SCITEGIC>MOL_PROPERTY
-TS
SciTegic.value.DoubleValue
32.823

@<SCITEGIC>MOL_PROPERTY
U+W
SciTegic.value.DoubleValue
26.952

@<SCITEGIC>MOL_PROPERTY
U
SciTegic.value.DoubleValue
77.039

@<SCITEGIC>MOL_PROPERTY
W
SciTegic.value.DoubleValue
-50.087

@<SCITEGIC>MOL_PROPERTY
W(PB)
SciTegic.value.DoubleValue
-52.291

@<SCITEGIC>MOL_PROPERTY
W(SA)
SciTegic.value.DoubleValue
2.204

@<SCITEGIC>MOL_PROPERTY
Valence
SciTegic.value.DoubleValue
6.724

@<SCITEGIC>MOL_PROPERTY
Coulomb
SciTegic.value.DoubleValue
70.181

@<SCITEGIC>MOL_PROPERTY
VdW
SciTegic.value.DoubleValue
0.134

@<SCITEGIC>MOL_PROPERTY
VdW6
SciTegic.value.DoubleValue
-8.757

@<SCITEGIC>MOL_PROPERTY
VdW12
SciTegic.value.DoubleValue
8.891

@<SCITEGIC>MOL_PROPERTY
Bond
SciTegic.value.DoubleValue
0.279

@<SCITEGIC>MOL_PROPERTY
Angle
SciTegic.value.DoubleValue
1.699

@<SCITEGIC>MOL_PROPERTY
Pdih
SciTegic.value.DoubleValue
4.746

@<SCITEGIC>MOL_PROPERTY
Idih
SciTegic.value.DoubleValue
0.000

@<SCITEGIC>MOL_PROPERTY
Tether
SciTegic.value.DoubleValue
0.000

@<TRIPOS>MOLECULE
guest-s12_vm2.mol2 : vm2 ligand conformer 206
          26          25           1
SMALL
USER_CHARGES
 
@<TRIPOS>ATOM
       1    N1      20.358647   18.270498   25.368308 N.4        1 MOL1        -0.4857
       2    H1      20.555271   17.693750   24.537014 H          1 MOL1         0.3650
       3    H2      20.356344   17.609178   26.160940 H          1 MOL1         0.3650
       4    C1      18.990272   18.917714   25.246755 C.3        1 MOL1         0.0209
       5    H3      19.000368   19.844642   25.825526 H          1 MOL1         0.0967
       6    H4      18.279731   18.238690   25.724998 H          1 MOL1         0.0967
       7    C2      18.491209   19.191622   23.808541 C.3        1 MOL1        -0.1378
       8    H5      18.392947   18.245526   23.263855 H          1 MOL1         0.0993
       9    H6      17.470080   19.585713   23.896084 H          1 MOL1         0.0993
      10    C3      19.330893   20.219150   23.002616 C.3        1 MOL1        -0.1338
      11    H7      19.711503   20.990631   23.685797 H          1 MOL1         0.0993
      12    H8      18.666202   20.748783   22.306203 H          1 MOL1         0.0993
      13    C4      20.505871   19.617798   22.186629 C.3        1 MOL1        -0.1338
      14    H9      21.130273   20.445213   21.822180 H          1 MOL1         0.0993
      15    H10     21.153305   19.010040   22.828487 H          1 MOL1         0.0993
      16    C5      20.045765   18.775996   20.972166 C.3        1 MOL1        -0.1313
      17    H11     19.387105   19.378698   20.331333 H          1 MOL1         0.0993
      18    H12     19.457648   17.911073   21.304841 H          1 MOL1         0.0993
      19    C6      21.245885   18.274628   20.140668 C.3        1 MOL1        -0.2328
      20    H13     21.908289   17.641405   20.745150 H          1 MOL1         0.1004
      21    H14     21.836566   19.114692   19.752628 H          1 MOL1         0.1004
      22    H15     20.902573   17.680827   19.283604 H          1 MOL1         0.1004
      23    C7      21.439458   19.322594   25.591316 C.3        1 MOL1        -0.0781
      24    H16     21.450857   20.017524   24.750017 H          1 MOL1         0.0978
      25    H17     21.224037   19.865753   26.514014 H          1 MOL1         0.0978
      26    H18     22.409310   18.827064   25.674121 H          1 MOL1         0.0978
@<TRIPOS>BOND
    1     1     2    1
    2     1     3    1
    3     1     4    1
    4     4     5    1
    5     4     6    1
    6     4     7    1
    7     7     8    1
    8     7     9    1
    9     7    10    1
   10    10    11    1
   11    10    12    1
   12    10    13    1
   13    13    14    1
   14    13    15    1
   15    13    16    1
   16    16    17    1
   17    16    18    1
   18    16    19    1
   19    19    20    1
   20    19    21    1
   21    19    22    1
   22     1    23    1
   23    23    24    1
   24    23    25    1
   25    23    26    1
@<TRIPOS>SUBSTRUCTURE
       1 MOL1            1 RESIDUE      1      MOL     
@<SCITEGIC>MOL_PROPERTY
VM2 Rank
SciTegic.value.IntegerValue
206

@<SCITEGIC>MOL_PROPERTY
Conf_Id
SciTegic.value.IntegerValue
1350

@<SCITEGIC>MOL_PROPERTY
Probability
SciTegic.value.DoubleValue
0.00

@<SCITEGIC>MOL_PROPERTY
Sum Probability
SciTegic.value.DoubleValue
100.00

@<SCITEGIC>MOL_PROPERTY
Delta G
SciTegic.value.DoubleValue
5.809

@<SCITEGIC>MOL_PROPERTY
G
SciTegic.value.DoubleValue
81.275

@<SCITEGIC>MOL_PROPERTY
E
SciTegic.value.DoubleValue
48.451

@<SCITEGIC>MOL_PROPERTY
-TS
SciTegic.value.DoubleValue
32.825

@<SCITEGIC>MOL_PROPERTY
U+W
SciTegic.value.DoubleValue
26.989

@<SCITEGIC>MOL_PROPERTY
U
SciTegic.value.DoubleValue
77.039

@<SCITEGIC>MOL_PROPERTY
W
SciTegic.value.DoubleValue
-50.050

@<SCITEGIC>MOL_PROPERTY
W(PB)
SciTegic.value.DoubleValue
-52.250

@<SCITEGIC>MOL_PROPERTY
W(SA)
SciTegic.value.DoubleValue
2.200

@<SCITEGIC>MOL_PROPERTY
Valence
SciTegic.value.DoubleValue
6.724

@<SCITEGIC>MOL_PROPERTY
Coulomb
SciTegic.value.DoubleValue
70.181

@<SCITEGIC>MOL_PROPERTY
VdW
SciTegic.value.DoubleValue
0.134

@<SCITEGIC>MOL_PROPERTY
VdW6
SciTegic.value.DoubleValue
-8.757

@<SCITEGIC>MOL_PROPERTY
VdW12
SciTegic.value.DoubleValue
8.891

@<SCITEGIC>MOL_PROPERTY
Bond
SciTegic.value.DoubleValue
0.279

@<SCITEGIC>MOL_PROPERTY
Angle
SciTegic.value.DoubleValue
1.699

@<SCITEGIC>MOL_PROPERTY
Pdih
SciTegic.value.DoubleValue
4.746

@<SCITEGIC>MOL_PROPERTY
Idih
SciTegic.value.DoubleValue
0.000

@<SCITEGIC>MOL_PROPERTY
Tether
SciTegic.value.DoubleValue
0.000

@<TRIPOS>MOLECULE
guest-s12_vm2.mol2 : vm2 ligand conformer 207
          26          25           1
SMALL
USER_CHARGES
 
@<TRIPOS>ATOM
       1    N1      19.249118   19.092423   24.940008 N.4        1 MOL1        -0.4857
       2    H1      18.973391   18.239957   25.451999 H          1 MOL1         0.3650
       3    H2      18.795126   19.025533   24.017222 H          1 MOL1         0.3650
       4    C1      20.754240   19.131499   24.765186 C.3        1 MOL1         0.0209
       5    H3      21.202388   19.177822   25.760961 H          1 MOL1         0.0967
       6    H4      21.013436   20.051952   24.238629 H          1 MOL1         0.0967
       7    C2      21.324688   17.918771   24.004631 C.3        1 MOL1        -0.1378
       8    H5      22.413500   18.036562   23.925355 H          1 MOL1         0.0993
       9    H6      21.163265   17.018319   24.612036 H          1 MOL1         0.0993
      10    C3      20.731638   17.680258   22.589621 C.3        1 MOL1        -0.1338
      11    H7      19.661699   17.449873   22.652568 H          1 MOL1         0.0993
      12    H8      21.194893   16.763646   22.198913 H          1 MOL1         0.0993
      13    C4      21.001300   18.813018   21.560465 C.3        1 MOL1        -0.1338
      14    H9      22.024535   19.189644   21.695418 H          1 MOL1         0.0993
      15    H10     20.982287   18.373557   20.553504 H          1 MOL1         0.0993
      16    C5      20.008357   20.005432   21.574289 C.3        1 MOL1        -0.1313
      17    H11     20.358343   20.749310   20.844864 H          1 MOL1         0.0993
      18    H12     20.019241   20.519343   22.541469 H          1 MOL1         0.0993
      19    C6      18.559555   19.610808   21.204741 C.3        1 MOL1        -0.2328
      20    H13     17.925858   20.504401   21.133714 H          1 MOL1         0.1004
      21    H14     18.108617   18.947455   21.951269 H          1 MOL1         0.1004
      22    H15     18.526999   19.102053   20.232509 H          1 MOL1         0.1004
      23    C7      18.779104   20.337791   25.678059 C.3        1 MOL1        -0.0781
      24    H16     17.693755   20.297434   25.794147 H          1 MOL1         0.0978
      25    H17     19.253991   20.372803   26.660993 H          1 MOL1         0.0978
      26    H18     19.055944   21.223157   25.101564 H          1 MOL1         0.0978
@<TRIPOS>BOND
    1     1     2    1
    2     1     3    1
    3     1     4    1
    4     4     5    1
    5     4     6    1
    6     4     7    1
    7     7     8    1
    8     7     9    1
    9     7    10    1
   10    10    11    1
   11    10    12    1
   12    10    13    1
   13    13    14    1
   14    13    15    1
   15    13    16    1
   16    16    17    1
   17    16    18    1
   18    16    19    1
   19    19    20    1
   20    19    21    1
   21    19    22    1
   22     1    23    1
   23    23    24    1
   24    23    25    1
   25    23    26    1
@<TRIPOS>SUBSTRUCTURE
       1 MOL1            1 RESIDUE      1      MOL     
@<SCITEGIC>MOL_PROPERTY
VM2 Rank
SciTegic.value.IntegerValue
207

@<SCITEGIC>MOL_PROPERTY
Conf_Id
SciTegic.value.IntegerValue
841

@<SCITEGIC>MOL_PROPERTY
Probability
SciTegic.value.DoubleValue
0.00

@<SCITEGIC>MOL_PROPERTY
Sum Probability
SciTegic.value.DoubleValue
100.00

@<SCITEGIC>MOL_PROPERTY
Delta G
SciTegic.value.DoubleValue
5.837

@<SCITEGIC>MOL_PROPERTY
G
SciTegic.value.DoubleValue
81.303

@<SCITEGIC>MOL_PROPERTY
E
SciTegic.value.DoubleValue
48.161

@<SCITEGIC>MOL_PROPERTY
-TS
SciTegic.value.DoubleValue
33.142

@<SCITEGIC>MOL_PROPERTY
U+W
SciTegic.value.DoubleValue
26.699

@<SCITEGIC>MOL_PROPERTY
U
SciTegic.value.DoubleValue
75.617

@<SCITEGIC>MOL_PROPERTY
W
SciTegic.value.DoubleValue
-48.918

@<SCITEGIC>MOL_PROPERTY
W(PB)
SciTegic.value.DoubleValue
-51.101

@<SCITEGIC>MOL_PROPERTY
W(SA)
SciTegic.value.DoubleValue
2.184

@<SCITEGIC>MOL_PROPERTY
Valence
SciTegic.value.DoubleValue
5.117

@<SCITEGIC>MOL_PROPERTY
Coulomb
SciTegic.value.DoubleValue
70.837

@<SCITEGIC>MOL_PROPERTY
VdW
SciTegic.value.DoubleValue
-0.337

@<SCITEGIC>MOL_PROPERTY
VdW6
SciTegic.value.DoubleValue
-9.231

@<SCITEGIC>MOL_PROPERTY
VdW12
SciTegic.value.DoubleValue
8.894

@<SCITEGIC>MOL_PROPERTY
Bond
SciTegic.value.DoubleValue
0.293

@<SCITEGIC>MOL_PROPERTY
Angle
SciTegic.value.DoubleValue
2.154

@<SCITEGIC>MOL_PROPERTY
Pdih
SciTegic.value.DoubleValue
2.670

@<SCITEGIC>MOL_PROPERTY
Idih
SciTegic.value.DoubleValue
0.000

@<SCITEGIC>MOL_PROPERTY
Tether
SciTegic.value.DoubleValue
0.000

@<TRIPOS>MOLECULE
guest-s12_vm2.mol2 : vm2 ligand conformer 208
          26          25           1
SMALL
USER_CHARGES
 
@<TRIPOS>ATOM
       1    N1      19.796016   18.549361   26.079048 N.4        1 MOL1        -0.4857
       2    H1      20.652723   18.114435   26.454532 H          1 MOL1         0.3650
       3    H2      19.031906   18.165443   26.657317 H          1 MOL1         0.3650
       4    C1      19.583362   18.129017   24.631226 C.3        1 MOL1         0.0209
       5    H3      18.685175   18.625041   24.257591 H          1 MOL1         0.0967
       6    H4      19.382117   17.054931   24.654944 H          1 MOL1         0.0967
       7    C2      20.775142   18.370314   23.674527 C.3        1 MOL1        -0.1378
       8    H5      21.715440   18.253134   24.228979 H          1 MOL1         0.0993
       9    H6      20.773178   17.571733   22.924556 H          1 MOL1         0.0993
      10    C3      20.759724   19.746739   22.955695 C.3        1 MOL1        -0.1338
      11    H7      21.702662   19.883222   22.408785 H          1 MOL1         0.0993
      12    H8      20.746302   20.544593   23.706906 H          1 MOL1         0.0993
      13    C4      19.563916   19.959372   21.986970 C.3        1 MOL1        -0.1338
      14    H9      18.682217   19.397932   22.321086 H          1 MOL1         0.0993
      15    H10     19.272397   21.017782   22.033781 H          1 MOL1         0.0993
      16    C5      19.865679   19.626380   20.503409 C.3        1 MOL1        -0.1313
      17    H11     20.681324   20.266682   20.139371 H          1 MOL1         0.0993
      18    H12     18.983662   19.887216   19.901860 H          1 MOL1         0.0993
      19    C6      20.220603   18.145856   20.243973 C.3        1 MOL1        -0.2328
      20    H13     21.191166   17.885540   20.683503 H          1 MOL1         0.1004
      21    H14     20.287540   17.951038   19.165807 H          1 MOL1         0.1004
      22    H15     19.456551   17.476056   20.659238 H          1 MOL1         0.1004
      23    C7      19.843557   20.062961   26.242153 C.3        1 MOL1        -0.0781
      24    H16     18.947692   20.501532   25.797343 H          1 MOL1         0.0978
      25    H17     19.883958   20.305086   27.306480 H          1 MOL1         0.0978
      26    H18     20.735889   20.450430   25.748080 H          1 MOL1         0.0978
@<TRIPOS>BOND
    1     1     2    1
    2     1     3    1
    3     1     4    1
    4     4     5    1
    5     4     6    1
    6     4     7    1
    7     7     8    1
    8     7     9    1
    9     7    10    1
   10    10    11    1
   11    10    12    1
   12    10    13    1
   13    13    14    1
   14    13    15    1
   15    13    16    1
   16    16    17    1
   17    16    18    1
   18    16    19    1
   19    19    20    1
   20    19    21    1
   21    19    22    1
   22     1    23    1
   23    23    24    1
   24    23    25    1
   25    23    26    1
@<TRIPOS>SUBSTRUCTURE
       1 MOL1            1 RESIDUE      1      MOL     
@<SCITEGIC>MOL_PROPERTY
VM2 Rank
SciTegic.value.IntegerValue
208

@<SCITEGIC>MOL_PROPERTY
Conf_Id
SciTegic.value.IntegerValue
1344

@<SCITEGIC>MOL_PROPERTY
Probability
SciTegic.value.DoubleValue
0.00

@<SCITEGIC>MOL_PROPERTY
Sum Probability
SciTegic.value.DoubleValue
100.00

@<SCITEGIC>MOL_PROPERTY
Delta G
SciTegic.value.DoubleValue
5.857

@<SCITEGIC>MOL_PROPERTY
G
SciTegic.value.DoubleValue
81.324

@<SCITEGIC>MOL_PROPERTY
E
SciTegic.value.DoubleValue
48.798

@<SCITEGIC>MOL_PROPERTY
-TS
SciTegic.value.DoubleValue
32.526

@<SCITEGIC>MOL_PROPERTY
U+W
SciTegic.value.DoubleValue
27.336

@<SCITEGIC>MOL_PROPERTY
U
SciTegic.value.DoubleValue
77.250

@<SCITEGIC>MOL_PROPERTY
W
SciTegic.value.DoubleValue
-49.914

@<SCITEGIC>MOL_PROPERTY
W(PB)
SciTegic.value.DoubleValue
-52.089

@<SCITEGIC>MOL_PROPERTY
W(SA)
SciTegic.value.DoubleValue
2.175

@<SCITEGIC>MOL_PROPERTY
Valence
SciTegic.value.DoubleValue
7.375

@<SCITEGIC>MOL_PROPERTY
Coulomb
SciTegic.value.DoubleValue
69.347

@<SCITEGIC>MOL_PROPERTY
VdW
SciTegic.value.DoubleValue
0.528

@<SCITEGIC>MOL_PROPERTY
VdW6
SciTegic.value.DoubleValue
-8.925

@<SCITEGIC>MOL_PROPERTY
VdW12
SciTegic.value.DoubleValue
9.453

@<SCITEGIC>MOL_PROPERTY
Bond
SciTegic.value.DoubleValue
0.330

@<SCITEGIC>MOL_PROPERTY
Angle
SciTegic.value.DoubleValue
1.936

@<SCITEGIC>MOL_PROPERTY
Pdih
SciTegic.value.DoubleValue
5.109

@<SCITEGIC>MOL_PROPERTY
Idih
SciTegic.value.DoubleValue
0.000

@<SCITEGIC>MOL_PROPERTY
Tether
SciTegic.value.DoubleValue
0.000

@<TRIPOS>MOLECULE
guest-s12_vm2.mol2 : vm2 ligand conformer 209
          26          25           1
SMALL
USER_CHARGES
 
@<TRIPOS>ATOM
       1    N1      19.540816   18.675869   25.652472 N.4        1 MOL1        -0.4857
       2    H1      20.263096   18.362977   26.319697 H          1 MOL1         0.3650
       3    H2      19.039776   17.819846   25.368820 H          1 MOL1         0.3650
       4    C1      20.189061   19.327708   24.448011 C.3        1 MOL1         0.0209
       5    H3      20.725891   20.213938   24.795546 H          1 MOL1         0.0967
       6    H4      19.391668   19.653552   23.778165 H          1 MOL1         0.0967
       7    C2      21.161847   18.394618   23.700315 C.3        1 MOL1        -0.1378
       8    H5      21.953923   18.097915   24.400686 H          1 MOL1         0.0993
       9    H6      20.654629   17.469167   23.397911 H          1 MOL1         0.0993
      10    C3      21.818775   19.067549   22.469740 C.3        1 MOL1        -0.1338
      11    H7      22.788357   18.580378   22.296317 H          1 MOL1         0.0993
      12    H8      22.053481   20.116635   22.697568 H          1 MOL1         0.0993
      13    C4      21.012623   18.979314   21.145248 C.3        1 MOL1        -0.1338
      14    H9      21.635048   19.421680   20.355029 H          1 MOL1         0.0993
      15    H10     20.879104   17.927741   20.856069 H          1 MOL1         0.0993
      16    C5      19.646672   19.711754   21.139677 C.3        1 MOL1        -0.1313
      17    H11     19.487975   20.147723   20.143294 H          1 MOL1         0.0993
      18    H12     19.663080   20.561257   21.835715 H          1 MOL1         0.0993
      19    C6      18.451906   18.776806   21.442034 C.3        1 MOL1        -0.2328
      20    H13     18.550639   18.278161   22.412142 H          1 MOL1         0.1004
      21    H14     18.363248   17.997526   20.673976 H          1 MOL1         0.1004
      22    H15     17.511818   19.343405   21.450334 H          1 MOL1         0.1004
      23    C7      18.586300   19.656381   26.319502 C.3        1 MOL1        -0.0781
      24    H16     18.126277   19.175393   27.185614 H          1 MOL1         0.0978
      25    H17     19.144352   20.538607   26.640739 H          1 MOL1         0.0978
      26    H18     17.813017   19.947266   25.605101 H          1 MOL1         0.0978
@<TRIPOS>BOND
    1     1     2    1
    2     1     3    1
    3     1     4    1
    4     4     5    1
    5     4     6    1
    6     4     7    1
    7     7     8    1
    8     7     9    1
    9     7    10    1
   10    10    11    1
   11    10    12    1
   12    10    13    1
   13    13    14    1
   14    13    15    1
   15    13    16    1
   16    16    17    1
   17    16    18    1
   18    16    19    1
   19    19    20    1
   20    19    21    1
   21    19    22    1
   22     1    23    1
   23    23    24    1
   24    23    25    1
   25    23    26    1
@<TRIPOS>SUBSTRUCTURE
       1 MOL1            1 RESIDUE      1      MOL     
@<SCITEGIC>MOL_PROPERTY
VM2 Rank
SciTegic.value.IntegerValue
209

@<SCITEGIC>MOL_PROPERTY
Conf_Id
SciTegic.value.IntegerValue
1626

@<SCITEGIC>MOL_PROPERTY
Probability
SciTegic.value.DoubleValue
0.00

@<SCITEGIC>MOL_PROPERTY
Sum Probability
SciTegic.value.DoubleValue
100.00

@<SCITEGIC>MOL_PROPERTY
Delta G
SciTegic.value.DoubleValue
5.922

@<SCITEGIC>MOL_PROPERTY
G
SciTegic.value.DoubleValue
81.389

@<SCITEGIC>MOL_PROPERTY
E
SciTegic.value.DoubleValue
48.350

@<SCITEGIC>MOL_PROPERTY
-TS
SciTegic.value.DoubleValue
33.039

@<SCITEGIC>MOL_PROPERTY
U+W
SciTegic.value.DoubleValue
26.888

@<SCITEGIC>MOL_PROPERTY
U
SciTegic.value.DoubleValue
76.568

@<SCITEGIC>MOL_PROPERTY
W
SciTegic.value.DoubleValue
-49.679

@<SCITEGIC>MOL_PROPERTY
W(PB)
SciTegic.value.DoubleValue
-51.903

@<SCITEGIC>MOL_PROPERTY
W(SA)
SciTegic.value.DoubleValue
2.224

@<SCITEGIC>MOL_PROPERTY
Valence
SciTegic.value.DoubleValue
6.604

@<SCITEGIC>MOL_PROPERTY
Coulomb
SciTegic.value.DoubleValue
70.083

@<SCITEGIC>MOL_PROPERTY
VdW
SciTegic.value.DoubleValue
-0.119

@<SCITEGIC>MOL_PROPERTY
VdW6
SciTegic.value.DoubleValue
-8.383

@<SCITEGIC>MOL_PROPERTY
VdW12
SciTegic.value.DoubleValue
8.264

@<SCITEGIC>MOL_PROPERTY
Bond
SciTegic.value.DoubleValue
0.244

@<SCITEGIC>MOL_PROPERTY
Angle
SciTegic.value.DoubleValue
1.737

@<SCITEGIC>MOL_PROPERTY
Pdih
SciTegic.value.DoubleValue
4.623

@<SCITEGIC>MOL_PROPERTY
Idih
SciTegic.value.DoubleValue
0.000

@<SCITEGIC>MOL_PROPERTY
Tether
SciTegic.value.DoubleValue
0.000

@<TRIPOS>MOLECULE
guest-s12_vm2.mol2 : vm2 ligand conformer 210
          26          25           1
SMALL
USER_CHARGES
 
@<TRIPOS>ATOM
       1    N1      19.696451   19.601155   25.787983 N.4        1 MOL1        -0.4857
       2    H1      19.443903   20.529957   26.161147 H          1 MOL1         0.3650
       3    H2      20.363130   19.212020   26.472363 H          1 MOL1         0.3650
       4    C1      20.367754   19.761337   24.434413 C.3        1 MOL1         0.0209
       5    H3      21.138046   20.528882   24.544189 H          1 MOL1         0.0967
       6    H4      19.619540   20.134204   23.732941 H          1 MOL1         0.0967
       7    C2      21.022119   18.473337   23.888743 C.3        1 MOL1        -0.1378
       8    H5      21.741610   18.116089   24.637271 H          1 MOL1         0.0993
       9    H6      20.279012   17.674742   23.770400 H          1 MOL1         0.0993
      10    C3      21.773704   18.697729   22.553109 C.3        1 MOL1        -0.1338
      11    H7      22.570493   17.944236   22.483495 H          1 MOL1         0.0993
      12    H8      22.288172   19.668543   22.571816 H          1 MOL1         0.0993
      13    C4      20.910702   18.579419   21.267453 C.3        1 MOL1        -0.1338
      14    H9      21.588419   18.684838   20.408899 H          1 MOL1         0.0993
      15    H10     20.494190   17.565873   21.186837 H          1 MOL1         0.0993
      16    C5      19.784011   19.632796   21.116087 C.3        1 MOL1        -0.1313
      17    H11     19.700907   19.906811   20.054944 H          1 MOL1         0.0993
      18    H12     20.050991   20.559461   21.641769 H          1 MOL1         0.0993
      19    C6      18.402237   19.116389   21.581189 C.3        1 MOL1        -0.2328
      20    H13     17.643869   19.904194   21.485910 H          1 MOL1         0.1004
      21    H14     18.414466   18.786997   22.625402 H          1 MOL1         0.1004
      22    H15     18.077522   18.266238   20.967317 H          1 MOL1         0.1004
      23    C7      18.451022   18.727838   25.688023 C.3        1 MOL1        -0.0781
      24    H16     18.735008   17.729934   25.348108 H          1 MOL1         0.0978
      25    H17     17.982465   18.660588   26.672410 H          1 MOL1         0.0978
      26    H18     17.753499   19.177636   24.978194 H          1 MOL1         0.0978
@<TRIPOS>BOND
    1     1     2    1
    2     1     3    1
    3     1     4    1
    4     4     5    1
    5     4     6    1
    6     4     7    1
    7     7     8    1
    8     7     9    1
    9     7    10    1
   10    10    11    1
   11    10    12    1
   12    10    13    1
   13    13    14    1
   14    13    15    1
   15    13    16    1
   16    16    17    1
   17    16    18    1
   18    16    19    1
   19    19    20    1
   20    19    21    1
   21    19    22    1
   22     1    23    1
   23    23    24    1
   24    23    25    1
   25    23    26    1
@<TRIPOS>SUBSTRUCTURE
       1 MOL1            1 RESIDUE      1      MOL     
@<SCITEGIC>MOL_PROPERTY
VM2 Rank
SciTegic.value.IntegerValue
210

@<SCITEGIC>MOL_PROPERTY
Conf_Id
SciTegic.value.IntegerValue
568

@<SCITEGIC>MOL_PROPERTY
Probability
SciTegic.value.DoubleValue
0.00

@<SCITEGIC>MOL_PROPERTY
Sum Probability
SciTegic.value.DoubleValue
100.00

@<SCITEGIC>MOL_PROPERTY
Delta G
SciTegic.value.DoubleValue
5.984

@<SCITEGIC>MOL_PROPERTY
G
SciTegic.value.DoubleValue
81.451

@<SCITEGIC>MOL_PROPERTY
E
SciTegic.value.DoubleValue
48.059

@<SCITEGIC>MOL_PROPERTY
-TS
SciTegic.value.DoubleValue
33.391

@<SCITEGIC>MOL_PROPERTY
U+W
SciTegic.value.DoubleValue
26.598

@<SCITEGIC>MOL_PROPERTY
U
SciTegic.value.DoubleValue
76.813

@<SCITEGIC>MOL_PROPERTY
W
SciTegic.value.DoubleValue
-50.215

@<SCITEGIC>MOL_PROPERTY
W(PB)
SciTegic.value.DoubleValue
-52.361

@<SCITEGIC>MOL_PROPERTY
W(SA)
SciTegic.value.DoubleValue
2.146

@<SCITEGIC>MOL_PROPERTY
Valence
SciTegic.value.DoubleValue
6.903

@<SCITEGIC>MOL_PROPERTY
Coulomb
SciTegic.value.DoubleValue
69.931

@<SCITEGIC>MOL_PROPERTY
VdW
SciTegic.value.DoubleValue
-0.021

@<SCITEGIC>MOL_PROPERTY
VdW6
SciTegic.value.DoubleValue
-9.386

@<SCITEGIC>MOL_PROPERTY
VdW12
SciTegic.value.DoubleValue
9.365

@<SCITEGIC>MOL_PROPERTY
Bond
SciTegic.value.DoubleValue
0.281

@<SCITEGIC>MOL_PROPERTY
Angle
SciTegic.value.DoubleValue
1.859

@<SCITEGIC>MOL_PROPERTY
Pdih
SciTegic.value.DoubleValue
4.763

@<SCITEGIC>MOL_PROPERTY
Idih
SciTegic.value.DoubleValue
0.000

@<SCITEGIC>MOL_PROPERTY
Tether
SciTegic.value.DoubleValue
0.000

@<TRIPOS>MOLECULE
guest-s12_vm2.mol2 : vm2 ligand conformer 211
          26          25           1
SMALL
USER_CHARGES
 
@<TRIPOS>ATOM
       1    N1      20.159056   20.147332   24.789575 N.4        1 MOL1        -0.4857
       2    H1      19.704476   20.366781   23.891238 H          1 MOL1         0.3650
       3    H2      20.775711   20.950886   24.989484 H          1 MOL1         0.3650
       4    C1      20.994537   18.885682   24.644223 C.3        1 MOL1         0.0209
       5    H3      21.453120   18.678854   25.614462 H          1 MOL1         0.0967
       6    H4      21.799325   19.100221   23.938236 H          1 MOL1         0.0967
       7    C2      20.221578   17.637600   24.165703 C.3        1 MOL1        -0.1378
       8    H5      20.933102   16.809442   24.050396 H          1 MOL1         0.0993
       9    H6      19.530433   17.325732   24.959466 H          1 MOL1         0.0993
      10    C3      19.420533   17.811642   22.847257 C.3        1 MOL1        -0.1338
      11    H7      18.645766   18.578347   22.965135 H          1 MOL1         0.0993
      12    H8      18.868887   16.875801   22.682358 H          1 MOL1         0.0993
      13    C4      20.281023   18.072278   21.579886 C.3        1 MOL1        -0.1338
      14    H9      21.178136   17.439010   21.614513 H          1 MOL1         0.0993
      15    H10     19.714324   17.728440   20.703493 H          1 MOL1         0.0993
      16    C5      20.700604   19.543711   21.324112 C.3        1 MOL1        -0.1313
      17    H11     21.351471   19.564046   20.438729 H          1 MOL1         0.0993
      18    H12     21.315325   19.927753   22.145161 H          1 MOL1         0.0993
      19    C6      19.506902   20.493047   21.068071 C.3        1 MOL1        -0.2328
      20    H13     18.889751   20.130939   20.235508 H          1 MOL1         0.1004
      21    H14     19.865369   21.496436   20.803757 H          1 MOL1         0.1004
      22    H15     18.862644   20.595333   21.948484 H          1 MOL1         0.1004
      23    C7      19.123766   19.998709   25.898174 C.3        1 MOL1        -0.0781
      24    H16     19.634623   19.781119   26.838613 H          1 MOL1         0.0978
      25    H17     18.562146   20.930931   25.990631 H          1 MOL1         0.0978
      26    H18     18.442851   19.182377   25.648778 H          1 MOL1         0.0978
@<TRIPOS>BOND
    1     1     2    1
    2     1     3    1
    3     1     4    1
    4     4     5    1
    5     4     6    1
    6     4     7    1
    7     7     8    1
    8     7     9    1
    9     7    10    1
   10    10    11    1
   11    10    12    1
   12    10    13    1
   13    13    14    1
   14    13    15    1
   15    13    16    1
   16    16    17    1
   17    16    18    1
   18    16    19    1
   19    19    20    1
   20    19    21    1
   21    19    22    1
   22     1    23    1
   23    23    24    1
   24    23    25    1
   25    23    26    1
@<TRIPOS>SUBSTRUCTURE
       1 MOL1            1 RESIDUE      1      MOL     
@<SCITEGIC>MOL_PROPERTY
VM2 Rank
SciTegic.value.IntegerValue
211

@<SCITEGIC>MOL_PROPERTY
Conf_Id
SciTegic.value.IntegerValue
285

@<SCITEGIC>MOL_PROPERTY
Probability
SciTegic.value.DoubleValue
0.00

@<SCITEGIC>MOL_PROPERTY
Sum Probability
SciTegic.value.DoubleValue
100.00

@<SCITEGIC>MOL_PROPERTY
Delta G
SciTegic.value.DoubleValue
6.325

@<SCITEGIC>MOL_PROPERTY
G
SciTegic.value.DoubleValue
81.791

@<SCITEGIC>MOL_PROPERTY
E
SciTegic.value.DoubleValue
48.389

@<SCITEGIC>MOL_PROPERTY
-TS
SciTegic.value.DoubleValue
33.402

@<SCITEGIC>MOL_PROPERTY
U+W
SciTegic.value.DoubleValue
26.927

@<SCITEGIC>MOL_PROPERTY
U
SciTegic.value.DoubleValue
76.224

@<SCITEGIC>MOL_PROPERTY
W
SciTegic.value.DoubleValue
-49.297

@<SCITEGIC>MOL_PROPERTY
W(PB)
SciTegic.value.DoubleValue
-51.459

@<SCITEGIC>MOL_PROPERTY
W(SA)
SciTegic.value.DoubleValue
2.162

@<SCITEGIC>MOL_PROPERTY
Valence
SciTegic.value.DoubleValue
5.366

@<SCITEGIC>MOL_PROPERTY
Coulomb
SciTegic.value.DoubleValue
70.918

@<SCITEGIC>MOL_PROPERTY
VdW
SciTegic.value.DoubleValue
-0.060

@<SCITEGIC>MOL_PROPERTY
VdW6
SciTegic.value.DoubleValue
-9.938

@<SCITEGIC>MOL_PROPERTY
VdW12
SciTegic.value.DoubleValue
9.878

@<SCITEGIC>MOL_PROPERTY
Bond
SciTegic.value.DoubleValue
0.328

@<SCITEGIC>MOL_PROPERTY
Angle
SciTegic.value.DoubleValue
2.304

@<SCITEGIC>MOL_PROPERTY
Pdih
SciTegic.value.DoubleValue
2.734

@<SCITEGIC>MOL_PROPERTY
Idih
SciTegic.value.DoubleValue
0.000

@<SCITEGIC>MOL_PROPERTY
Tether
SciTegic.value.DoubleValue
0.000

@<TRIPOS>MOLECULE
guest-s12_vm2.mol2 : vm2 ligand conformer 212
          26          25           1
SMALL
USER_CHARGES
 
@<TRIPOS>ATOM
       1    N1      19.120509   18.402774   25.434140 N.4        1 MOL1        -0.4857
       2    H1      19.361570   17.432312   25.181111 H          1 MOL1         0.3650
       3    H2      18.096114   18.399140   25.562221 H          1 MOL1         0.3650
       4    C1      19.488445   19.349052   24.303452 C.3        1 MOL1         0.0209
       5    H3      19.259100   20.366681   24.629198 H          1 MOL1         0.0967
       6    H4      18.836831   19.111872   23.460822 H          1 MOL1         0.0967
       7    C2      20.962840   19.265058   23.851655 C.3        1 MOL1        -0.1378
       8    H5      21.600192   19.564528   24.693547 H          1 MOL1         0.0993
       9    H6      21.234890   18.228886   23.612614 H          1 MOL1         0.0993
      10    C3      21.278910   20.189331   22.649691 C.3        1 MOL1        -0.1338
      11    H7      22.343549   20.456550   22.700990 H          1 MOL1         0.0993
      12    H8      20.732875   21.137381   22.752566 H          1 MOL1         0.0993
      13    C4      21.022846   19.578078   21.245164 C.3        1 MOL1        -0.1338
      14    H9      21.372856   20.309293   20.503302 H          1 MOL1         0.0993
      15    H10     21.654986   18.691145   21.100273 H          1 MOL1         0.0993
      16    C5      19.546113   19.240182   20.917811 C.3        1 MOL1        -0.1313
      17    H11     19.368548   19.446172   19.852881 H          1 MOL1         0.0993
      18    H12     18.868341   19.908394   21.465970 H          1 MOL1         0.0993
      19    C6      19.186702   17.758398   21.178422 C.3        1 MOL1        -0.2328
      20    H13     19.363180   17.465793   22.218838 H          1 MOL1         0.1004
      21    H14     19.783599   17.094762   20.539396 H          1 MOL1         0.1004
      22    H15     18.128560   17.573224   20.952773 H          1 MOL1         0.1004
      23    C7      19.801635   18.807126   26.736664 C.3        1 MOL1        -0.0781
      24    H16     19.483831   18.128596   27.531432 H          1 MOL1         0.0978
      25    H17     20.884656   18.745341   26.613071 H          1 MOL1         0.0978
      26    H18     19.514724   19.830290   26.988906 H          1 MOL1         0.0978
@<TRIPOS>BOND
    1     1     2    1
    2     1     3    1
    3     1     4    1
    4     4     5    1
    5     4     6    1
    6     4     7    1
    7     7     8    1
    8     7     9    1
    9     7    10    1
   10    10    11    1
   11    10    12    1
   12    10    13    1
   13    13    14    1
   14    13    15    1
   15    13    16    1
   16    16    17    1
   17    16    18    1
   18    16    19    1
   19    19    20    1
   20    19    21    1
   21    19    22    1
   22     1    23    1
   23    23    24    1
   24    23    25    1
   25    23    26    1
@<TRIPOS>SUBSTRUCTURE
       1 MOL1            1 RESIDUE      1      MOL     
@<SCITEGIC>MOL_PROPERTY
VM2 Rank
SciTegic.value.IntegerValue
212

@<SCITEGIC>MOL_PROPERTY
Conf_Id
SciTegic.value.IntegerValue
1519

@<SCITEGIC>MOL_PROPERTY
Probability
SciTegic.value.DoubleValue
0.00

@<SCITEGIC>MOL_PROPERTY
Sum Probability
SciTegic.value.DoubleValue
100.00

@<SCITEGIC>MOL_PROPERTY
Delta G
SciTegic.value.DoubleValue
6.394

@<SCITEGIC>MOL_PROPERTY
G
SciTegic.value.DoubleValue
81.860

@<SCITEGIC>MOL_PROPERTY
E
SciTegic.value.DoubleValue
48.646

@<SCITEGIC>MOL_PROPERTY
-TS
SciTegic.value.DoubleValue
33.214

@<SCITEGIC>MOL_PROPERTY
U+W
SciTegic.value.DoubleValue
27.184

@<SCITEGIC>MOL_PROPERTY
U
SciTegic.value.DoubleValue
77.189

@<SCITEGIC>MOL_PROPERTY
W
SciTegic.value.DoubleValue
-50.005

@<SCITEGIC>MOL_PROPERTY
W(PB)
SciTegic.value.DoubleValue
-52.223

@<SCITEGIC>MOL_PROPERTY
W(SA)
SciTegic.value.DoubleValue
2.218

@<SCITEGIC>MOL_PROPERTY
Valence
SciTegic.value.DoubleValue
6.919

@<SCITEGIC>MOL_PROPERTY
Coulomb
SciTegic.value.DoubleValue
70.049

@<SCITEGIC>MOL_PROPERTY
VdW
SciTegic.value.DoubleValue
0.221

@<SCITEGIC>MOL_PROPERTY
VdW6
SciTegic.value.DoubleValue
-8.980

@<SCITEGIC>MOL_PROPERTY
VdW12
SciTegic.value.DoubleValue
9.200

@<SCITEGIC>MOL_PROPERTY
Bond
SciTegic.value.DoubleValue
0.284

@<SCITEGIC>MOL_PROPERTY
Angle
SciTegic.value.DoubleValue
1.855

@<SCITEGIC>MOL_PROPERTY
Pdih
SciTegic.value.DoubleValue
4.781

@<SCITEGIC>MOL_PROPERTY
Idih
SciTegic.value.DoubleValue
0.000

@<SCITEGIC>MOL_PROPERTY
Tether
SciTegic.value.DoubleValue
0.000

@<TRIPOS>MOLECULE
guest-s12_vm2.mol2 : vm2 ligand conformer 213
          26          25           1
SMALL
USER_CHARGES
 
@<TRIPOS>ATOM
       1    N1      19.864050   19.672085   25.488973 N.4        1 MOL1        -0.4857
       2    H1      20.085769   20.464451   24.868385 H          1 MOL1         0.3650
       3    H2      20.034722   20.021502   26.445285 H          1 MOL1         0.3650
       4    C1      20.798143   18.510269   25.197779 C.3        1 MOL1         0.0209
       5    H3      20.499587   17.682236   25.845599 H          1 MOL1         0.0967
       6    H4      21.803937   18.818862   25.493845 H          1 MOL1         0.0967
       7    C2      20.837065   18.024675   23.730099 C.3        1 MOL1        -0.1378
       8    H5      21.478220   17.133898   23.700450 H          1 MOL1         0.0993
       9    H6      19.842980   17.686403   23.417176 H          1 MOL1         0.0993
      10    C3      21.416097   19.069570   22.738257 C.3        1 MOL1        -0.1338
      11    H7      21.908169   18.545742   21.907204 H          1 MOL1         0.0993
      12    H8      22.217468   19.627029   23.242751 H          1 MOL1         0.0993
      13    C4      20.380867   20.071891   22.157974 C.3        1 MOL1        -0.1338
      14    H9      19.576359   20.269725   22.874986 H          1 MOL1         0.0993
      15    H10     20.886694   21.035204   22.004366 H          1 MOL1         0.0993
      16    C5      19.768120   19.645184   20.799642 C.3        1 MOL1        -0.1313
      17    H11     20.566581   19.534524   20.052642 H          1 MOL1         0.0993
      18    H12     19.123182   20.457544   20.436371 H          1 MOL1         0.0993
      19    C6      18.938007   18.344031   20.860826 C.3        1 MOL1        -0.2328
      20    H13     19.571398   17.476222   21.082503 H          1 MOL1         0.1004
      21    H14     18.448986   18.155443   19.896384 H          1 MOL1         0.1004
      22    H15     18.154407   18.409693   21.626554 H          1 MOL1         0.1004
      23    C7      18.405650   19.252297   25.343450 C.3        1 MOL1        -0.0781
      24    H16     18.223222   18.929892   24.316375 H          1 MOL1         0.0978
      25    H17     18.199289   18.429980   26.031919 H          1 MOL1         0.0978
      26    H18     17.763208   20.102838   25.581941 H          1 MOL1         0.0978
@<TRIPOS>BOND
    1     1     2    1
    2     1     3    1
    3     1     4    1
    4     4     5    1
    5     4     6    1
    6     4     7    1
    7     7     8    1
    8     7     9    1
    9     7    10    1
   10    10    11    1
   11    10    12    1
   12    10    13    1
   13    13    14    1
   14    13    15    1
   15    13    16    1
   16    16    17    1
   17    16    18    1
   18    16    19    1
   19    19    20    1
   20    19    21    1
   21    19    22    1
   22     1    23    1
   23    23    24    1
   24    23    25    1
   25    23    26    1
@<TRIPOS>SUBSTRUCTURE
       1 MOL1            1 RESIDUE      1      MOL     
@<SCITEGIC>MOL_PROPERTY
VM2 Rank
SciTegic.value.IntegerValue
213

@<SCITEGIC>MOL_PROPERTY
Conf_Id
SciTegic.value.IntegerValue
555

@<SCITEGIC>MOL_PROPERTY
Probability
SciTegic.value.DoubleValue
0.00

@<SCITEGIC>MOL_PROPERTY
Sum Probability
SciTegic.value.DoubleValue
100.00

@<SCITEGIC>MOL_PROPERTY
Delta G
SciTegic.value.DoubleValue
6.412

@<SCITEGIC>MOL_PROPERTY
G
SciTegic.value.DoubleValue
81.879

@<SCITEGIC>MOL_PROPERTY
E
SciTegic.value.DoubleValue
48.644

@<SCITEGIC>MOL_PROPERTY
-TS
SciTegic.value.DoubleValue
33.234

@<SCITEGIC>MOL_PROPERTY
U+W
SciTegic.value.DoubleValue
27.182

@<SCITEGIC>MOL_PROPERTY
U
SciTegic.value.DoubleValue
77.340

@<SCITEGIC>MOL_PROPERTY
W
SciTegic.value.DoubleValue
-50.158

@<SCITEGIC>MOL_PROPERTY
W(PB)
SciTegic.value.DoubleValue
-52.285

@<SCITEGIC>MOL_PROPERTY
W(SA)
SciTegic.value.DoubleValue
2.128

@<SCITEGIC>MOL_PROPERTY
Valence
SciTegic.value.DoubleValue
6.847

@<SCITEGIC>MOL_PROPERTY
Coulomb
SciTegic.value.DoubleValue
70.349

@<SCITEGIC>MOL_PROPERTY
VdW
SciTegic.value.DoubleValue
0.144

@<SCITEGIC>MOL_PROPERTY
VdW6
SciTegic.value.DoubleValue
-9.591

@<SCITEGIC>MOL_PROPERTY
VdW12
SciTegic.value.DoubleValue
9.735

@<SCITEGIC>MOL_PROPERTY
Bond
SciTegic.value.DoubleValue
0.315

@<SCITEGIC>MOL_PROPERTY
Angle
SciTegic.value.DoubleValue
1.724

@<SCITEGIC>MOL_PROPERTY
Pdih
SciTegic.value.DoubleValue
4.808

@<SCITEGIC>MOL_PROPERTY
Idih
SciTegic.value.DoubleValue
0.000

@<SCITEGIC>MOL_PROPERTY
Tether
SciTegic.value.DoubleValue
0.000

@<TRIPOS>MOLECULE
guest-s12_vm2.mol2 : vm2 ligand conformer 214
          26          25           1
SMALL
USER_CHARGES
 
@<TRIPOS>ATOM
       1    N1      19.760034   19.360347   25.471120 N.4        1 MOL1        -0.4857
       2    H1      19.440962   18.634563   26.131452 H          1 MOL1         0.3650
       3    H2      18.904171   19.725954   25.028000 H          1 MOL1         0.3650
       4    C1      20.670035   18.748997   24.423609 C.3        1 MOL1         0.0209
       5    H3      21.551149   18.362059   24.941740 H          1 MOL1         0.0967
       6    H4      20.994404   19.548791   23.756236 H          1 MOL1         0.0967
       7    C2      20.016384   17.610234   23.612033 C.3        1 MOL1        -0.1378
       8    H5      20.773907   17.126177   22.981918 H          1 MOL1         0.0993
       9    H6      19.677971   16.840040   24.317805 H          1 MOL1         0.0993
      10    C3      18.814463   18.051768   22.735442 C.3        1 MOL1        -0.1338
      11    H7      18.177253   18.758995   23.281709 H          1 MOL1         0.0993
      12    H8      18.184705   17.167815   22.563690 H          1 MOL1         0.0993
      13    C4      19.175933   18.635413   21.342650 C.3        1 MOL1        -0.1338
      14    H9      19.704250   17.879932   20.744813 H          1 MOL1         0.0993
      15    H10     18.232027   18.818904   20.810749 H          1 MOL1         0.0993
      16    C5      19.978399   19.961100   21.358199 C.3        1 MOL1        -0.1313
      17    H11     19.776413   20.523006   22.279973 H          1 MOL1         0.0993
      18    H12     19.619073   20.598301   20.537910 H          1 MOL1         0.0993
      19    C6      21.498606   19.751573   21.164219 C.3        1 MOL1        -0.2328
      20    H13     22.030483   20.710145   21.220098 H          1 MOL1         0.1004
      21    H14     21.708224   19.312029   20.180374 H          1 MOL1         0.1004
      22    H15     21.924645   19.085974   21.922938 H          1 MOL1         0.1004
      23    C7      20.494146   20.470568   26.209727 C.3        1 MOL1        -0.0781
      24    H16     21.378423   20.053881   26.696898 H          1 MOL1         0.0978
      25    H17     20.793379   21.240531   25.495211 H          1 MOL1         0.0978
      26    H18     19.828539   20.902417   26.960441 H          1 MOL1         0.0978
@<TRIPOS>BOND
    1     1     2    1
    2     1     3    1
    3     1     4    1
    4     4     5    1
    5     4     6    1
    6     4     7    1
    7     7     8    1
    8     7     9    1
    9     7    10    1
   10    10    11    1
   11    10    12    1
   12    10    13    1
   13    13    14    1
   14    13    15    1
   15    13    16    1
   16    16    17    1
   17    16    18    1
   18    16    19    1
   19    19    20    1
   20    19    21    1
   21    19    22    1
   22     1    23    1
   23    23    24    1
   24    23    25    1
   25    23    26    1
@<TRIPOS>SUBSTRUCTURE
       1 MOL1            1 RESIDUE      1      MOL     
@<SCITEGIC>MOL_PROPERTY
VM2 Rank
SciTegic.value.IntegerValue
214

@<SCITEGIC>MOL_PROPERTY
Conf_Id
SciTegic.value.IntegerValue
819

@<SCITEGIC>MOL_PROPERTY
Probability
SciTegic.value.DoubleValue
0.00

@<SCITEGIC>MOL_PROPERTY
Sum Probability
SciTegic.value.DoubleValue
100.00

@<SCITEGIC>MOL_PROPERTY
Delta G
SciTegic.value.DoubleValue
6.482

@<SCITEGIC>MOL_PROPERTY
G
SciTegic.value.DoubleValue
81.949

@<SCITEGIC>MOL_PROPERTY
E
SciTegic.value.DoubleValue
48.856

@<SCITEGIC>MOL_PROPERTY
-TS
SciTegic.value.DoubleValue
33.093

@<SCITEGIC>MOL_PROPERTY
U+W
SciTegic.value.DoubleValue
27.394

@<SCITEGIC>MOL_PROPERTY
U
SciTegic.value.DoubleValue
77.061

@<SCITEGIC>MOL_PROPERTY
W
SciTegic.value.DoubleValue
-49.667

@<SCITEGIC>MOL_PROPERTY
W(PB)
SciTegic.value.DoubleValue
-51.855

@<SCITEGIC>MOL_PROPERTY
W(SA)
SciTegic.value.DoubleValue
2.188

@<SCITEGIC>MOL_PROPERTY
Valence
SciTegic.value.DoubleValue
6.801

@<SCITEGIC>MOL_PROPERTY
Coulomb
SciTegic.value.DoubleValue
70.341

@<SCITEGIC>MOL_PROPERTY
VdW
SciTegic.value.DoubleValue
-0.081

@<SCITEGIC>MOL_PROPERTY
VdW6
SciTegic.value.DoubleValue
-8.958

@<SCITEGIC>MOL_PROPERTY
VdW12
SciTegic.value.DoubleValue
8.877

@<SCITEGIC>MOL_PROPERTY
Bond
SciTegic.value.DoubleValue
0.269

@<SCITEGIC>MOL_PROPERTY
Angle
SciTegic.value.DoubleValue
1.891

@<SCITEGIC>MOL_PROPERTY
Pdih
SciTegic.value.DoubleValue
4.642

@<SCITEGIC>MOL_PROPERTY
Idih
SciTegic.value.DoubleValue
0.000

@<SCITEGIC>MOL_PROPERTY
Tether
SciTegic.value.DoubleValue
0.000

@<TRIPOS>MOLECULE
guest-s12_vm2.mol2 : vm2 ligand conformer 215
          26          25           1
SMALL
USER_CHARGES
 
@<TRIPOS>ATOM
       1    N1      20.747986   18.877615   24.849801 N.4        1 MOL1        -0.4857
       2    H1      21.079601   18.795637   23.876843 H          1 MOL1         0.3650
       3    H2      20.841510   17.934861   25.259019 H          1 MOL1         0.3650
       4    C1      19.293738   19.308055   24.859147 C.3        1 MOL1         0.0209
       5    H3      19.229586   20.326450   24.468155 H          1 MOL1         0.0967
       6    H4      18.973760   19.324368   25.904098 H          1 MOL1         0.0967
       7    C2      18.356910   18.380377   24.058204 C.3        1 MOL1        -0.1378
       8    H5      18.602905   17.331439   24.270495 H          1 MOL1         0.0993
       9    H6      17.336615   18.529604   24.435762 H          1 MOL1         0.0993
      10    C3      18.335897   18.625307   22.525154 C.3        1 MOL1        -0.1338
      11    H7      17.956825   19.634426   22.311768 H          1 MOL1         0.0993
      12    H8      17.596326   17.937049   22.092801 H          1 MOL1         0.0993
      13    C4      19.686117   18.397829   21.797865 C.3        1 MOL1        -0.1338
      14    H9      20.279044   17.639969   22.326751 H          1 MOL1         0.0993
      15    H10     19.480297   17.970820   20.806322 H          1 MOL1         0.0993
      16    C5      20.496679   19.701460   21.593282 C.3        1 MOL1        -0.1313
      17    H11     20.597457   20.258213   22.532523 H          1 MOL1         0.0993
      18    H12     19.949239   20.363708   20.907765 H          1 MOL1         0.0993
      19    C6      21.898104   19.417495   21.012463 C.3        1 MOL1        -0.2328
      20    H13     22.450171   20.353674   20.857653 H          1 MOL1         0.1004
      21    H14     21.826751   18.905943   20.043657 H          1 MOL1         0.1004
      22    H15     22.489616   18.786428   21.688212 H          1 MOL1         0.1004
      23    C7      21.592568   19.881863   25.621083 C.3        1 MOL1        -0.0781
      24    H16     21.238797   19.930137   26.653280 H          1 MOL1         0.0978
      25    H17     22.636430   19.560691   25.603739 H          1 MOL1         0.0978
      26    H18     21.500733   20.864021   25.152250 H          1 MOL1         0.0978
@<TRIPOS>BOND
    1     1     2    1
    2     1     3    1
    3     1     4    1
    4     4     5    1
    5     4     6    1
    6     4     7    1
    7     7     8    1
    8     7     9    1
    9     7    10    1
   10    10    11    1
   11    10    12    1
   12    10    13    1
   13    13    14    1
   14    13    15    1
   15    13    16    1
   16    16    17    1
   17    16    18    1
   18    16    19    1
   19    19    20    1
   20    19    21    1
   21    19    22    1
   22     1    23    1
   23    23    24    1
   24    23    25    1
   25    23    26    1
@<TRIPOS>SUBSTRUCTURE
       1 MOL1            1 RESIDUE      1      MOL     
@<SCITEGIC>MOL_PROPERTY
VM2 Rank
SciTegic.value.IntegerValue
215

@<SCITEGIC>MOL_PROPERTY
Conf_Id
SciTegic.value.IntegerValue
937

@<SCITEGIC>MOL_PROPERTY
Probability
SciTegic.value.DoubleValue
0.00

@<SCITEGIC>MOL_PROPERTY
Sum Probability
SciTegic.value.DoubleValue
100.00

@<SCITEGIC>MOL_PROPERTY
Delta G
SciTegic.value.DoubleValue
7.040

@<SCITEGIC>MOL_PROPERTY
G
SciTegic.value.DoubleValue
82.506

@<SCITEGIC>MOL_PROPERTY
E
SciTegic.value.DoubleValue
49.520

@<SCITEGIC>MOL_PROPERTY
-TS
SciTegic.value.DoubleValue
32.986

@<SCITEGIC>MOL_PROPERTY
U+W
SciTegic.value.DoubleValue
28.059

@<SCITEGIC>MOL_PROPERTY
U
SciTegic.value.DoubleValue
76.549

@<SCITEGIC>MOL_PROPERTY
W
SciTegic.value.DoubleValue
-48.490

@<SCITEGIC>MOL_PROPERTY
W(PB)
SciTegic.value.DoubleValue
-50.670

@<SCITEGIC>MOL_PROPERTY
W(SA)
SciTegic.value.DoubleValue
2.180

@<SCITEGIC>MOL_PROPERTY
Valence
SciTegic.value.DoubleValue
5.809

@<SCITEGIC>MOL_PROPERTY
Coulomb
SciTegic.value.DoubleValue
71.051

@<SCITEGIC>MOL_PROPERTY
VdW
SciTegic.value.DoubleValue
-0.311

@<SCITEGIC>MOL_PROPERTY
VdW6
SciTegic.value.DoubleValue
-8.913

@<SCITEGIC>MOL_PROPERTY
VdW12
SciTegic.value.DoubleValue
8.601

@<SCITEGIC>MOL_PROPERTY
Bond
SciTegic.value.DoubleValue
0.232

@<SCITEGIC>MOL_PROPERTY
Angle
SciTegic.value.DoubleValue
1.493

@<SCITEGIC>MOL_PROPERTY
Pdih
SciTegic.value.DoubleValue
4.084

@<SCITEGIC>MOL_PROPERTY
Idih
SciTegic.value.DoubleValue
0.000

@<SCITEGIC>MOL_PROPERTY
Tether
SciTegic.value.DoubleValue
0.000

@<TRIPOS>MOLECULE
guest-s12_vm2.mol2 : vm2 ligand conformer 216
          26          25           1
SMALL
USER_CHARGES
 
@<TRIPOS>ATOM
       1    N1      19.300594   18.729499   24.798440 N.4        1 MOL1        -0.4857
       2    H1      19.371240   17.784345   25.206710 H          1 MOL1         0.3650
       3    H2      19.061424   18.589265   23.805228 H          1 MOL1         0.3650
       4    C1      20.633422   19.445082   24.906677 C.3        1 MOL1         0.0209
       5    H3      20.869478   19.518110   25.971344 H          1 MOL1         0.0967
       6    H4      20.517493   20.458245   24.514020 H          1 MOL1         0.0967
       7    C2      21.792292   18.731962   24.179883 C.3        1 MOL1        -0.1378
       8    H5      22.732305   19.081788   24.626891 H          1 MOL1         0.0993
       9    H6      21.749369   17.653434   24.381845 H          1 MOL1         0.0993
      10    C3      21.870578   18.987195   22.650374 C.3        1 MOL1        -0.1338
      11    H7      22.762575   18.466046   22.275756 H          1 MOL1         0.0993
      12    H8      22.051517   20.053678   22.456915 H          1 MOL1         0.0993
      13    C4      20.648657   18.496390   21.831958 C.3        1 MOL1        -0.1338
      14    H9      21.005555   18.126960   20.860361 H          1 MOL1         0.0993
      15    H10     20.185801   17.630463   22.323456 H          1 MOL1         0.0993
      16    C5      19.607426   19.610453   21.561749 C.3        1 MOL1        -0.1313
      17    H11     20.056140   20.374618   20.911435 H          1 MOL1         0.0993
      18    H12     19.330614   20.128626   22.487587 H          1 MOL1         0.0993
      19    C6      18.336603   19.052902   20.886382 C.3        1 MOL1        -0.2328
      20    H13     17.839235   18.310401   21.523631 H          1 MOL1         0.1004
      21    H14     18.577602   18.573274   19.928657 H          1 MOL1         0.1004
      22    H15     17.618725   19.859070   20.686582 H          1 MOL1         0.1004
      23    C7      18.218428   19.536518   25.501538 C.3        1 MOL1        -0.0781
      24    H16     18.142361   20.520363   25.033421 H          1 MOL1         0.0978
      25    H17     17.264927   19.011018   25.413296 H          1 MOL1         0.0978
      26    H18     18.481894   19.647772   26.555636 H          1 MOL1         0.0978
@<TRIPOS>BOND
    1     1     2    1
    2     1     3    1
    3     1     4    1
    4     4     5    1
    5     4     6    1
    6     4     7    1
    7     7     8    1
    8     7     9    1
    9     7    10    1
   10    10    11    1
   11    10    12    1
   12    10    13    1
   13    13    14    1
   14    13    15    1
   15    13    16    1
   16    16    17    1
   17    16    18    1
   18    16    19    1
   19    19    20    1
   20    19    21    1
   21    19    22    1
   22     1    23    1
   23    23    24    1
   24    23    25    1
   25    23    26    1
@<TRIPOS>SUBSTRUCTURE
       1 MOL1            1 RESIDUE      1      MOL     
@<SCITEGIC>MOL_PROPERTY
VM2 Rank
SciTegic.value.IntegerValue
216

@<SCITEGIC>MOL_PROPERTY
Conf_Id
SciTegic.value.IntegerValue
1448

@<SCITEGIC>MOL_PROPERTY
Probability
SciTegic.value.DoubleValue
0.00

@<SCITEGIC>MOL_PROPERTY
Sum Probability
SciTegic.value.DoubleValue
100.00

@<SCITEGIC>MOL_PROPERTY
Delta G
SciTegic.value.DoubleValue
7.048

@<SCITEGIC>MOL_PROPERTY
G
SciTegic.value.DoubleValue
82.515

@<SCITEGIC>MOL_PROPERTY
E
SciTegic.value.DoubleValue
49.529

@<SCITEGIC>MOL_PROPERTY
-TS
SciTegic.value.DoubleValue
32.986

@<SCITEGIC>MOL_PROPERTY
U+W
SciTegic.value.DoubleValue
28.067

@<SCITEGIC>MOL_PROPERTY
U
SciTegic.value.DoubleValue
76.549

@<SCITEGIC>MOL_PROPERTY
W
SciTegic.value.DoubleValue
-48.482

@<SCITEGIC>MOL_PROPERTY
W(PB)
SciTegic.value.DoubleValue
-50.645

@<SCITEGIC>MOL_PROPERTY
W(SA)
SciTegic.value.DoubleValue
2.163

@<SCITEGIC>MOL_PROPERTY
Valence
SciTegic.value.DoubleValue
5.809

@<SCITEGIC>MOL_PROPERTY
Coulomb
SciTegic.value.DoubleValue
71.051

@<SCITEGIC>MOL_PROPERTY
VdW
SciTegic.value.DoubleValue
-0.311

@<SCITEGIC>MOL_PROPERTY
VdW6
SciTegic.value.DoubleValue
-8.913

@<SCITEGIC>MOL_PROPERTY
VdW12
SciTegic.value.DoubleValue
8.601

@<SCITEGIC>MOL_PROPERTY
Bond
SciTegic.value.DoubleValue
0.232

@<SCITEGIC>MOL_PROPERTY
Angle
SciTegic.value.DoubleValue
1.493

@<SCITEGIC>MOL_PROPERTY
Pdih
SciTegic.value.DoubleValue
4.084

@<SCITEGIC>MOL_PROPERTY
Idih
SciTegic.value.DoubleValue
0.000

@<SCITEGIC>MOL_PROPERTY
Tether
SciTegic.value.DoubleValue
0.000

@<TRIPOS>MOLECULE
guest-s12_vm2.mol2 : vm2 ligand conformer 217
          26          25           1
SMALL
USER_CHARGES
 
@<TRIPOS>ATOM
       1    N1      19.333967   19.184549   25.074026 N.4        1 MOL1        -0.4857
       2    H1      19.014659   18.369543   25.620630 H          1 MOL1         0.3650
       3    H2      18.820271   19.140506   24.181686 H          1 MOL1         0.3650
       4    C1      20.824575   19.085338   24.813742 C.3        1 MOL1         0.0209
       5    H3      21.317027   19.071984   25.789383 H          1 MOL1         0.0967
       6    H4      21.146445   19.984459   24.282537 H          1 MOL1         0.0967
       7    C2      21.242323   17.831014   24.019520 C.3        1 MOL1        -0.1378
       8    H5      22.297803   17.629429   24.245661 H          1 MOL1         0.0993
       9    H6      20.687053   16.956441   24.383700 H          1 MOL1         0.0993
      10    C3      21.103371   17.952334   22.478357 C.3        1 MOL1        -0.1338
      11    H7      21.487885   17.020732   22.040552 H          1 MOL1         0.0993
      12    H8      21.768910   18.743167   22.109730 H          1 MOL1         0.0993
      13    C4      19.657176   18.164812   21.954973 C.3        1 MOL1        -0.1338
      14    H9      19.541934   17.620327   21.007384 H          1 MOL1         0.0993
      15    H10     18.941422   17.695209   22.642541 H          1 MOL1         0.0993
      16    C5      19.272113   19.647210   21.708402 C.3        1 MOL1        -0.1313
      17    H11     19.515094   20.267218   22.579734 H          1 MOL1         0.0993
      18    H12     18.183066   19.712292   21.575082 H          1 MOL1         0.0993
      19    C6      19.954243   20.245918   20.456846 C.3        1 MOL1        -0.2328
      20    H13     19.610710   21.274574   20.287121 H          1 MOL1         0.1004
      21    H14     19.714578   19.661798   19.558863 H          1 MOL1         0.1004
      22    H15     21.045406   20.275450   20.563245 H          1 MOL1         0.1004
      23    C7      19.020232   20.478826   25.811133 C.3        1 MOL1        -0.0781
      24    H16     19.553465   20.486966   26.764295 H          1 MOL1         0.0978
      25    H17     19.339989   21.326525   25.201185 H          1 MOL1         0.0978
      26    H18     17.944312   20.537735   25.990107 H          1 MOL1         0.0978
@<TRIPOS>BOND
    1     1     2    1
    2     1     3    1
    3     1     4    1
    4     4     5    1
    5     4     6    1
    6     4     7    1
    7     7     8    1
    8     7     9    1
    9     7    10    1
   10    10    11    1
   11    10    12    1
   12    10    13    1
   13    13    14    1
   14    13    15    1
   15    13    16    1
   16    16    17    1
   17    16    18    1
   18    16    19    1
   19    19    20    1
   20    19    21    1
   21    19    22    1
   22     1    23    1
   23    23    24    1
   24    23    25    1
   25    23    26    1
@<TRIPOS>SUBSTRUCTURE
       1 MOL1            1 RESIDUE      1      MOL     
@<SCITEGIC>MOL_PROPERTY
VM2 Rank
SciTegic.value.IntegerValue
217

@<SCITEGIC>MOL_PROPERTY
Conf_Id
SciTegic.value.IntegerValue
744

@<SCITEGIC>MOL_PROPERTY
Probability
SciTegic.value.DoubleValue
0.00

@<SCITEGIC>MOL_PROPERTY
Sum Probability
SciTegic.value.DoubleValue
100.00

@<SCITEGIC>MOL_PROPERTY
Delta G
SciTegic.value.DoubleValue
7.131

@<SCITEGIC>MOL_PROPERTY
G
SciTegic.value.DoubleValue
82.598

@<SCITEGIC>MOL_PROPERTY
E
SciTegic.value.DoubleValue
49.618

@<SCITEGIC>MOL_PROPERTY
-TS
SciTegic.value.DoubleValue
32.980

@<SCITEGIC>MOL_PROPERTY
U+W
SciTegic.value.DoubleValue
28.156

@<SCITEGIC>MOL_PROPERTY
U
SciTegic.value.DoubleValue
77.517

@<SCITEGIC>MOL_PROPERTY
W
SciTegic.value.DoubleValue
-49.361

@<SCITEGIC>MOL_PROPERTY
W(PB)
SciTegic.value.DoubleValue
-51.554

@<SCITEGIC>MOL_PROPERTY
W(SA)
SciTegic.value.DoubleValue
2.194

@<SCITEGIC>MOL_PROPERTY
Valence
SciTegic.value.DoubleValue
6.532

@<SCITEGIC>MOL_PROPERTY
Coulomb
SciTegic.value.DoubleValue
71.087

@<SCITEGIC>MOL_PROPERTY
VdW
SciTegic.value.DoubleValue
-0.102

@<SCITEGIC>MOL_PROPERTY
VdW6
SciTegic.value.DoubleValue
-9.038

@<SCITEGIC>MOL_PROPERTY
VdW12
SciTegic.value.DoubleValue
8.936

@<SCITEGIC>MOL_PROPERTY
Bond
SciTegic.value.DoubleValue
0.274

@<SCITEGIC>MOL_PROPERTY
Angle
SciTegic.value.DoubleValue
1.678

@<SCITEGIC>MOL_PROPERTY
Pdih
SciTegic.value.DoubleValue
4.580

@<SCITEGIC>MOL_PROPERTY
Idih
SciTegic.value.DoubleValue
0.000

@<SCITEGIC>MOL_PROPERTY
Tether
SciTegic.value.DoubleValue
0.000

@<TRIPOS>MOLECULE
guest-s12_vm2.mol2 : vm2 ligand conformer 218
          26          25           1
SMALL
USER_CHARGES
 
@<TRIPOS>ATOM
       1    N1      20.603895   19.315213   25.118948 N.4        1 MOL1        -0.4857
       2    H1      21.176861   19.383086   24.265016 H          1 MOL1         0.3650
       3    H2      21.043329   18.578228   25.692288 H          1 MOL1         0.3650
       4    C1      19.186530   18.916793   24.755863 C.3        1 MOL1         0.0209
       5    H3      18.726425   19.735494   24.197087 H          1 MOL1         0.0967
       6    H4      18.640160   18.796472   25.694782 H          1 MOL1         0.0967
       7    C2      19.089141   17.609530   23.943331 C.3        1 MOL1        -0.1378
       8    H5      19.783795   16.863511   24.351669 H          1 MOL1         0.0993
       9    H6      18.083529   17.195908   24.096543 H          1 MOL1         0.0993
      10    C3      19.307915   17.767766   22.414832 C.3        1 MOL1        -0.1338
      11    H7      18.522984   18.409518   21.994968 H          1 MOL1         0.0993
      12    H8      19.152305   16.780675   21.957840 H          1 MOL1         0.0993
      13    C4      20.713728   18.273492   21.992356 C.3        1 MOL1        -0.1338
      14    H9      21.460109   17.954257   22.731669 H          1 MOL1         0.0993
      15    H10     21.003220   17.770599   21.059103 H          1 MOL1         0.0993
      16    C5      20.805735   19.804940   21.762628 C.3        1 MOL1        -0.1313
      17    H11     21.865423   20.090988   21.705441 H          1 MOL1         0.0993
      18    H12     20.381368   20.356352   22.610290 H          1 MOL1         0.0993
      19    C6      20.105536   20.261428   20.462057 C.3        1 MOL1        -0.2328
      20    H13     20.243766   21.339639   20.309392 H          1 MOL1         0.1004
      21    H14     19.026448   20.067699   20.491514 H          1 MOL1         0.1004
      22    H15     20.521296   19.744719   19.587320 H          1 MOL1         0.1004
      23    C7      20.595521   20.640838   25.866985 C.3        1 MOL1        -0.0781
      24    H16     20.153370   21.410187   25.230213 H          1 MOL1         0.0978
      25    H17     20.006570   20.533378   26.780501 H          1 MOL1         0.0978
      26    H18     21.621780   20.916089   26.120236 H          1 MOL1         0.0978
@<TRIPOS>BOND
    1     1     2    1
    2     1     3    1
    3     1     4    1
    4     4     5    1
    5     4     6    1
    6     4     7    1
    7     7     8    1
    8     7     9    1
    9     7    10    1
   10    10    11    1
   11    10    12    1
   12    10    13    1
   13    13    14    1
   14    13    15    1
   15    13    16    1
   16    16    17    1
   17    16    18    1
   18    16    19    1
   19    19    20    1
   20    19    21    1
   21    19    22    1
   22     1    23    1
   23    23    24    1
   24    23    25    1
   25    23    26    1
@<TRIPOS>SUBSTRUCTURE
       1 MOL1            1 RESIDUE      1      MOL     
@<SCITEGIC>MOL_PROPERTY
VM2 Rank
SciTegic.value.IntegerValue
218

@<SCITEGIC>MOL_PROPERTY
Conf_Id
SciTegic.value.IntegerValue
440

@<SCITEGIC>MOL_PROPERTY
Probability
SciTegic.value.DoubleValue
0.00

@<SCITEGIC>MOL_PROPERTY
Sum Probability
SciTegic.value.DoubleValue
100.00

@<SCITEGIC>MOL_PROPERTY
Delta G
SciTegic.value.DoubleValue
7.243

@<SCITEGIC>MOL_PROPERTY
G
SciTegic.value.DoubleValue
82.709

@<SCITEGIC>MOL_PROPERTY
E
SciTegic.value.DoubleValue
49.730

@<SCITEGIC>MOL_PROPERTY
-TS
SciTegic.value.DoubleValue
32.980

@<SCITEGIC>MOL_PROPERTY
U+W
SciTegic.value.DoubleValue
28.268

@<SCITEGIC>MOL_PROPERTY
U
SciTegic.value.DoubleValue
77.517

@<SCITEGIC>MOL_PROPERTY
W
SciTegic.value.DoubleValue
-49.249

@<SCITEGIC>MOL_PROPERTY
W(PB)
SciTegic.value.DoubleValue
-51.417

@<SCITEGIC>MOL_PROPERTY
W(SA)
SciTegic.value.DoubleValue
2.168

@<SCITEGIC>MOL_PROPERTY
Valence
SciTegic.value.DoubleValue
6.532

@<SCITEGIC>MOL_PROPERTY
Coulomb
SciTegic.value.DoubleValue
71.087

@<SCITEGIC>MOL_PROPERTY
VdW
SciTegic.value.DoubleValue
-0.102

@<SCITEGIC>MOL_PROPERTY
VdW6
SciTegic.value.DoubleValue
-9.038

@<SCITEGIC>MOL_PROPERTY
VdW12
SciTegic.value.DoubleValue
8.935

@<SCITEGIC>MOL_PROPERTY
Bond
SciTegic.value.DoubleValue
0.274

@<SCITEGIC>MOL_PROPERTY
Angle
SciTegic.value.DoubleValue
1.678

@<SCITEGIC>MOL_PROPERTY
Pdih
SciTegic.value.DoubleValue
4.581

@<SCITEGIC>MOL_PROPERTY
Idih
SciTegic.value.DoubleValue
0.000

@<SCITEGIC>MOL_PROPERTY
Tether
SciTegic.value.DoubleValue
0.000

@<TRIPOS>MOLECULE
guest-s12_vm2.mol2 : vm2 ligand conformer 219
          26          25           1
SMALL
USER_CHARGES
 
@<TRIPOS>ATOM
       1    N1      19.054373   18.661356   24.657273 N.4        1 MOL1        -0.4857
       2    H1      19.184910   18.294102   23.702734 H          1 MOL1         0.3650
       3    H2      18.032656   18.711112   24.797715 H          1 MOL1         0.3650
       4    C1      19.649984   20.057211   24.756184 C.3        1 MOL1         0.0209
       5    H3      19.559295   20.368036   25.800037 H          1 MOL1         0.0967
       6    H4      19.034761   20.729380   24.152802 H          1 MOL1         0.0967
       7    C2      21.125400   20.187915   24.313026 C.3        1 MOL1        -0.1378
       8    H5      21.515467   21.123613   24.734803 H          1 MOL1         0.0993
       9    H6      21.729200   19.389222   24.761847 H          1 MOL1         0.0993
      10    C3      21.355508   20.229728   22.778416 C.3        1 MOL1        -0.1338
      11    H7      22.429760   20.389730   22.611299 H          1 MOL1         0.0993
      12    H8      20.857858   21.109794   22.347895 H          1 MOL1         0.0993
      13    C4      20.936066   18.948457   22.013238 C.3        1 MOL1        -0.1338
      14    H9      21.669232   18.760503   21.216404 H          1 MOL1         0.0993
      15    H10     20.992458   18.075010   22.676520 H          1 MOL1         0.0993
      16    C5      19.538820   19.063845   21.356187 C.3        1 MOL1        -0.1313
      17    H11     19.575124   19.821618   20.560735 H          1 MOL1         0.0993
      18    H12     18.791295   19.419355   22.075500 H          1 MOL1         0.0993
      19    C6      19.077396   17.719325   20.754986 C.3        1 MOL1        -0.2328
      20    H13     19.782732   17.367179   19.990865 H          1 MOL1         0.1004
      21    H14     18.093346   17.824660   20.279852 H          1 MOL1         0.1004
      22    H15     18.996767   16.943323   21.527082 H          1 MOL1         0.1004
      23    C7      19.670453   17.722162   25.687691 C.3        1 MOL1        -0.0781
      24    H16     19.508781   18.131477   26.687244 H          1 MOL1         0.0978
      25    H17     19.192929   16.742959   25.609143 H          1 MOL1         0.0978
      26    H18     20.740691   17.624528   25.495996 H          1 MOL1         0.0978
@<TRIPOS>BOND
    1     1     2    1
    2     1     3    1
    3     1     4    1
    4     4     5    1
    5     4     6    1
    6     4     7    1
    7     7     8    1
    8     7     9    1
    9     7    10    1
   10    10    11    1
   11    10    12    1
   12    10    13    1
   13    13    14    1
   14    13    15    1
   15    13    16    1
   16    16    17    1
   17    16    18    1
   18    16    19    1
   19    19    20    1
   20    19    21    1
   21    19    22    1
   22     1    23    1
   23    23    24    1
   24    23    25    1
   25    23    26    1
@<TRIPOS>SUBSTRUCTURE
       1 MOL1            1 RESIDUE      1      MOL     
@<SCITEGIC>MOL_PROPERTY
VM2 Rank
SciTegic.value.IntegerValue
219

@<SCITEGIC>MOL_PROPERTY
Conf_Id
SciTegic.value.IntegerValue
508

@<SCITEGIC>MOL_PROPERTY
Probability
SciTegic.value.DoubleValue
0.00

@<SCITEGIC>MOL_PROPERTY
Sum Probability
SciTegic.value.DoubleValue
100.00

@<SCITEGIC>MOL_PROPERTY
Delta G
SciTegic.value.DoubleValue
7.511

@<SCITEGIC>MOL_PROPERTY
G
SciTegic.value.DoubleValue
82.977

@<SCITEGIC>MOL_PROPERTY
E
SciTegic.value.DoubleValue
49.844

@<SCITEGIC>MOL_PROPERTY
-TS
SciTegic.value.DoubleValue
33.133

@<SCITEGIC>MOL_PROPERTY
U+W
SciTegic.value.DoubleValue
28.382

@<SCITEGIC>MOL_PROPERTY
U
SciTegic.value.DoubleValue
77.224

@<SCITEGIC>MOL_PROPERTY
W
SciTegic.value.DoubleValue
-48.842

@<SCITEGIC>MOL_PROPERTY
W(PB)
SciTegic.value.DoubleValue
-51.015

@<SCITEGIC>MOL_PROPERTY
W(SA)
SciTegic.value.DoubleValue
2.173

@<SCITEGIC>MOL_PROPERTY
Valence
SciTegic.value.DoubleValue
6.171

@<SCITEGIC>MOL_PROPERTY
Coulomb
SciTegic.value.DoubleValue
71.061

@<SCITEGIC>MOL_PROPERTY
VdW
SciTegic.value.DoubleValue
-0.008

@<SCITEGIC>MOL_PROPERTY
VdW6
SciTegic.value.DoubleValue
-9.540

@<SCITEGIC>MOL_PROPERTY
VdW12
SciTegic.value.DoubleValue
9.532

@<SCITEGIC>MOL_PROPERTY
Bond
SciTegic.value.DoubleValue
0.273

@<SCITEGIC>MOL_PROPERTY
Angle
SciTegic.value.DoubleValue
1.632

@<SCITEGIC>MOL_PROPERTY
Pdih
SciTegic.value.DoubleValue
4.266

@<SCITEGIC>MOL_PROPERTY
Idih
SciTegic.value.DoubleValue
0.000

@<SCITEGIC>MOL_PROPERTY
Tether
SciTegic.value.DoubleValue
0.000

@<TRIPOS>MOLECULE
guest-s12_vm2.mol2 : vm2 ligand conformer 220
          26          25           1
SMALL
USER_CHARGES
 
@<TRIPOS>ATOM
       1    N1      21.011411   18.858496   24.726719 N.4        1 MOL1        -0.4857
       2    H1      21.990331   19.109807   24.938060 H          1 MOL1         0.3650
       3    H2      21.023895   18.479217   23.768047 H          1 MOL1         0.3650
       4    C1      20.144258   20.107011   24.773609 C.3        1 MOL1         0.0209
       5    H3      20.654002   20.892421   24.209986 H          1 MOL1         0.0967
       6    H4      20.097840   20.422436   25.818987 H          1 MOL1         0.0967
       7    C2      18.707127   19.944252   24.227266 C.3        1 MOL1        -0.1378
       8    H5      18.244609   19.038166   24.638374 H          1 MOL1         0.0993
       9    H6      18.109900   20.780514   24.614003 H          1 MOL1         0.0993
      10    C3      18.581384   19.950103   22.680050 C.3        1 MOL1        -0.1338
      11    H7      18.922516   20.914709   22.279196 H          1 MOL1         0.0993
      12    H8      17.511197   19.893909   22.436970 H          1 MOL1         0.0993
      13    C4      19.300378   18.783573   21.955246 C.3        1 MOL1        -0.1338
      14    H9      19.372813   17.911737   22.619090 H          1 MOL1         0.0993
      15    H10     18.677103   18.458923   21.110299 H          1 MOL1         0.0993
      16    C5      20.689166   19.179762   21.397002 C.3        1 MOL1        -0.1313
      17    H11     21.298579   19.671889   22.164475 H          1 MOL1         0.0993
      18    H12     20.558448   19.920819   20.595735 H          1 MOL1         0.0993
      19    C6      21.450217   17.958508   20.838944 C.3        1 MOL1        -0.2328
      20    H13     21.629505   17.208559   21.620126 H          1 MOL1         0.1004
      21    H14     22.424390   18.261218   20.433292 H          1 MOL1         0.1004
      22    H15     20.884531   17.478438   20.029673 H          1 MOL1         0.1004
      23    C7      20.524059   17.808295   25.718165 C.3        1 MOL1        -0.0781
      24    H16     19.510857   17.500730   25.452620 H          1 MOL1         0.0978
      25    H17     21.191390   16.944421   25.680369 H          1 MOL1         0.0978
      26    H18     20.530436   18.234707   26.723608 H          1 MOL1         0.0978
@<TRIPOS>BOND
    1     1     2    1
    2     1     3    1
    3     1     4    1
    4     4     5    1
    5     4     6    1
    6     4     7    1
    7     7     8    1
    8     7     9    1
    9     7    10    1
   10    10    11    1
   11    10    12    1
   12    10    13    1
   13    13    14    1
   14    13    15    1
   15    13    16    1
   16    16    17    1
   17    16    18    1
   18    16    19    1
   19    19    20    1
   20    19    21    1
   21    19    22    1
   22     1    23    1
   23    23    24    1
   24    23    25    1
   25    23    26    1
@<TRIPOS>SUBSTRUCTURE
       1 MOL1            1 RESIDUE      1      MOL     
@<SCITEGIC>MOL_PROPERTY
VM2 Rank
SciTegic.value.IntegerValue
220

@<SCITEGIC>MOL_PROPERTY
Conf_Id
SciTegic.value.IntegerValue
90

@<SCITEGIC>MOL_PROPERTY
Probability
SciTegic.value.DoubleValue
0.00

@<SCITEGIC>MOL_PROPERTY
Sum Probability
SciTegic.value.DoubleValue
100.00

@<SCITEGIC>MOL_PROPERTY
Delta G
SciTegic.value.DoubleValue
7.536

@<SCITEGIC>MOL_PROPERTY
G
SciTegic.value.DoubleValue
83.002

@<SCITEGIC>MOL_PROPERTY
E
SciTegic.value.DoubleValue
49.869

@<SCITEGIC>MOL_PROPERTY
-TS
SciTegic.value.DoubleValue
33.133

@<SCITEGIC>MOL_PROPERTY
U+W
SciTegic.value.DoubleValue
28.407

@<SCITEGIC>MOL_PROPERTY
U
SciTegic.value.DoubleValue
77.224

@<SCITEGIC>MOL_PROPERTY
W
SciTegic.value.DoubleValue
-48.816

@<SCITEGIC>MOL_PROPERTY
W(PB)
SciTegic.value.DoubleValue
-50.999

@<SCITEGIC>MOL_PROPERTY
W(SA)
SciTegic.value.DoubleValue
2.183

@<SCITEGIC>MOL_PROPERTY
Valence
SciTegic.value.DoubleValue
6.170

@<SCITEGIC>MOL_PROPERTY
Coulomb
SciTegic.value.DoubleValue
71.061

@<SCITEGIC>MOL_PROPERTY
VdW
SciTegic.value.DoubleValue
-0.008

@<SCITEGIC>MOL_PROPERTY
VdW6
SciTegic.value.DoubleValue
-9.540

@<SCITEGIC>MOL_PROPERTY
VdW12
SciTegic.value.DoubleValue
9.532

@<SCITEGIC>MOL_PROPERTY
Bond
SciTegic.value.DoubleValue
0.273

@<SCITEGIC>MOL_PROPERTY
Angle
SciTegic.value.DoubleValue
1.632

@<SCITEGIC>MOL_PROPERTY
Pdih
SciTegic.value.DoubleValue
4.265

@<SCITEGIC>MOL_PROPERTY
Idih
SciTegic.value.DoubleValue
0.000

@<SCITEGIC>MOL_PROPERTY
Tether
SciTegic.value.DoubleValue
0.000

@<TRIPOS>MOLECULE
guest-s12_vm2.mol2 : vm2 ligand conformer 221
          26          25           1
SMALL
USER_CHARGES
 
@<TRIPOS>ATOM
       1    N1      20.296671   18.235277   24.948585 N.4        1 MOL1        -0.4857
       2    H1      20.442622   17.869756   23.996556 H          1 MOL1         0.3650
       3    H2      20.011513   17.424170   25.520307 H          1 MOL1         0.3650
       4    C1      19.185904   19.269538   24.937571 C.3        1 MOL1         0.0209
       5    H3      19.217316   19.783517   25.901581 H          1 MOL1         0.0967
       6    H4      18.232048   18.740136   24.871667 H          1 MOL1         0.0967
       7    C2      19.265847   20.307012   23.795442 C.3        1 MOL1        -0.1378
       8    H5      18.737020   21.206877   24.136206 H          1 MOL1         0.0993
       9    H6      20.298045   20.629288   23.624726 H          1 MOL1         0.0993
      10    C3      18.590815   19.846421   22.476895 C.3        1 MOL1        -0.1338
      11    H7      18.583260   20.687179   21.769722 H          1 MOL1         0.0993
      12    H8      17.533417   19.642614   22.695951 H          1 MOL1         0.0993
      13    C4      19.181933   18.597231   21.767031 C.3        1 MOL1        -0.1338
      14    H9      19.258895   17.744210   22.451195 H          1 MOL1         0.0993
      15    H10     18.442216   18.286410   21.016027 H          1 MOL1         0.0993
      16    C5      20.516274   18.829420   21.010488 C.3        1 MOL1        -0.1313
      17    H11     20.509956   19.815765   20.526134 H          1 MOL1         0.0993
      18    H12     20.576532   18.096513   20.193539 H          1 MOL1         0.0993
      19    C6      21.787838   18.672218   21.873563 C.3        1 MOL1        -0.2328
      20    H13     21.866542   19.454154   22.634209 H          1 MOL1         0.1004
      21    H14     22.683196   18.747437   21.242882 H          1 MOL1         0.1004
      22    H15     21.817149   17.692968   22.367305 H          1 MOL1         0.1004
      23    C7      21.582719   18.832883   25.507425 C.3        1 MOL1        -0.0781
      24    H16     21.404709   19.170663   26.530668 H          1 MOL1         0.0978
      25    H17     22.363928   18.069521   25.502377 H          1 MOL1         0.0978
      26    H18     21.889080   19.678276   24.888544 H          1 MOL1         0.0978
@<TRIPOS>BOND
    1     1     2    1
    2     1     3    1
    3     1     4    1
    4     4     5    1
    5     4     6    1
    6     4     7    1
    7     7     8    1
    8     7     9    1
    9     7    10    1
   10    10    11    1
   11    10    12    1
   12    10    13    1
   13    13    14    1
   14    13    15    1
   15    13    16    1
   16    16    17    1
   17    16    18    1
   18    16    19    1
   19    19    20    1
   20    19    21    1
   21    19    22    1
   22     1    23    1
   23    23    24    1
   24    23    25    1
   25    23    26    1
@<TRIPOS>SUBSTRUCTURE
       1 MOL1            1 RESIDUE      1      MOL     
@<SCITEGIC>MOL_PROPERTY
VM2 Rank
SciTegic.value.IntegerValue
221

@<SCITEGIC>MOL_PROPERTY
Conf_Id
SciTegic.value.IntegerValue
190

@<SCITEGIC>MOL_PROPERTY
Probability
SciTegic.value.DoubleValue
0.00

@<SCITEGIC>MOL_PROPERTY
Sum Probability
SciTegic.value.DoubleValue
100.00

@<SCITEGIC>MOL_PROPERTY
Delta G
SciTegic.value.DoubleValue
8.337

@<SCITEGIC>MOL_PROPERTY
G
SciTegic.value.DoubleValue
83.804

@<SCITEGIC>MOL_PROPERTY
E
SciTegic.value.DoubleValue
50.406

@<SCITEGIC>MOL_PROPERTY
-TS
SciTegic.value.DoubleValue
33.398

@<SCITEGIC>MOL_PROPERTY
U+W
SciTegic.value.DoubleValue
28.944

@<SCITEGIC>MOL_PROPERTY
U
SciTegic.value.DoubleValue
78.445

@<SCITEGIC>MOL_PROPERTY
W
SciTegic.value.DoubleValue
-49.500

@<SCITEGIC>MOL_PROPERTY
W(PB)
SciTegic.value.DoubleValue
-51.618

@<SCITEGIC>MOL_PROPERTY
W(SA)
SciTegic.value.DoubleValue
2.117

@<SCITEGIC>MOL_PROPERTY
Valence
SciTegic.value.DoubleValue
7.678

@<SCITEGIC>MOL_PROPERTY
Coulomb
SciTegic.value.DoubleValue
71.384

@<SCITEGIC>MOL_PROPERTY
VdW
SciTegic.value.DoubleValue
-0.617

@<SCITEGIC>MOL_PROPERTY
VdW6
SciTegic.value.DoubleValue
-10.187

@<SCITEGIC>MOL_PROPERTY
VdW12
SciTegic.value.DoubleValue
9.570

@<SCITEGIC>MOL_PROPERTY
Bond
SciTegic.value.DoubleValue
0.307

@<SCITEGIC>MOL_PROPERTY
Angle
SciTegic.value.DoubleValue
2.873

@<SCITEGIC>MOL_PROPERTY
Pdih
SciTegic.value.DoubleValue
4.498

@<SCITEGIC>MOL_PROPERTY
Idih
SciTegic.value.DoubleValue
0.000

@<SCITEGIC>MOL_PROPERTY
Tether
SciTegic.value.DoubleValue
0.000

@<TRIPOS>MOLECULE
guest-s12_vm2.mol2 : vm2 ligand conformer 222
          26          25           1
SMALL
USER_CHARGES
 
@<TRIPOS>ATOM
       1    N1      19.420100   18.506817   24.781669 N.4        1 MOL1        -0.4857
       2    H1      19.571580   17.505220   24.587472 H          1 MOL1         0.3650
       3    H2      18.906218   18.873994   23.968030 H          1 MOL1         0.3650
       4    C1      20.752006   19.216768   24.910879 C.3        1 MOL1         0.0209
       5    H3      21.295516   18.727371   25.723054 H          1 MOL1         0.0967
       6    H4      20.561807   20.251477   25.206655 H          1 MOL1         0.0967
       7    C2      21.620655   19.195323   23.635119 C.3        1 MOL1        -0.1378
       8    H5      22.655201   19.393108   23.945512 H          1 MOL1         0.0993
       9    H6      21.640228   18.194354   23.190341 H          1 MOL1         0.0993
      10    C3      21.239349   20.272108   22.585909 C.3        1 MOL1        -0.1338
      11    H7      22.019317   20.296847   21.812425 H          1 MOL1         0.0993
      12    H8      21.282773   21.255775   23.073840 H          1 MOL1         0.0993
      13    C4      19.858396   20.134788   21.888421 C.3        1 MOL1        -0.1338
      14    H9      19.038202   20.143536   22.615396 H          1 MOL1         0.0993
      15    H10     19.715167   21.050108   21.297233 H          1 MOL1         0.0993
      16    C5      19.726955   18.937926   20.909838 C.3        1 MOL1        -0.1313
      17    H11     20.689725   18.741610   20.417760 H          1 MOL1         0.0993
      18    H12     19.035305   19.228354   20.106412 H          1 MOL1         0.0993
      19    C6      19.181621   17.640137   21.548234 C.3        1 MOL1        -0.2328
      20    H13     19.021472   16.877983   20.774498 H          1 MOL1         0.1004
      21    H14     18.216445   17.814149   22.040627 H          1 MOL1         0.1004
      22    H15     19.877478   17.214498   22.277413 H          1 MOL1         0.1004
      23    C7      18.608918   18.686132   26.056931 C.3        1 MOL1        -0.0781
      24    H16     18.436072   19.751255   26.225875 H          1 MOL1         0.0978
      25    H17     17.652576   18.169480   25.949363 H          1 MOL1         0.0978
      26    H18     19.163828   18.263644   26.897462 H          1 MOL1         0.0978
@<TRIPOS>BOND
    1     1     2    1
    2     1     3    1
    3     1     4    1
    4     4     5    1
    5     4     6    1
    6     4     7    1
    7     7     8    1
    8     7     9    1
    9     7    10    1
   10    10    11    1
   11    10    12    1
   12    10    13    1
   13    13    14    1
   14    13    15    1
   15    13    16    1
   16    16    17    1
   17    16    18    1
   18    16    19    1
   19    19    20    1
   20    19    21    1
   21    19    22    1
   22     1    23    1
   23    23    24    1
   24    23    25    1
   25    23    26    1
@<TRIPOS>SUBSTRUCTURE
       1 MOL1            1 RESIDUE      1      MOL     
@<SCITEGIC>MOL_PROPERTY
VM2 Rank
SciTegic.value.IntegerValue
222

@<SCITEGIC>MOL_PROPERTY
Conf_Id
SciTegic.value.IntegerValue
1083

@<SCITEGIC>MOL_PROPERTY
Probability
SciTegic.value.DoubleValue
0.00

@<SCITEGIC>MOL_PROPERTY
Sum Probability
SciTegic.value.DoubleValue
100.00

@<SCITEGIC>MOL_PROPERTY
Delta G
SciTegic.value.DoubleValue
8.542

@<SCITEGIC>MOL_PROPERTY
G
SciTegic.value.DoubleValue
84.008

@<SCITEGIC>MOL_PROPERTY
E
SciTegic.value.DoubleValue
50.997

@<SCITEGIC>MOL_PROPERTY
-TS
SciTegic.value.DoubleValue
33.012

@<SCITEGIC>MOL_PROPERTY
U+W
SciTegic.value.DoubleValue
29.535

@<SCITEGIC>MOL_PROPERTY
U
SciTegic.value.DoubleValue
78.058

@<SCITEGIC>MOL_PROPERTY
W
SciTegic.value.DoubleValue
-48.524

@<SCITEGIC>MOL_PROPERTY
W(PB)
SciTegic.value.DoubleValue
-50.674

@<SCITEGIC>MOL_PROPERTY
W(SA)
SciTegic.value.DoubleValue
2.150

@<SCITEGIC>MOL_PROPERTY
Valence
SciTegic.value.DoubleValue
6.916

@<SCITEGIC>MOL_PROPERTY
Coulomb
SciTegic.value.DoubleValue
71.698

@<SCITEGIC>MOL_PROPERTY
VdW
SciTegic.value.DoubleValue
-0.555

@<SCITEGIC>MOL_PROPERTY
VdW6
SciTegic.value.DoubleValue
-9.227

@<SCITEGIC>MOL_PROPERTY
VdW12
SciTegic.value.DoubleValue
8.672

@<SCITEGIC>MOL_PROPERTY
Bond
SciTegic.value.DoubleValue
0.274

@<SCITEGIC>MOL_PROPERTY
Angle
SciTegic.value.DoubleValue
2.757

@<SCITEGIC>MOL_PROPERTY
Pdih
SciTegic.value.DoubleValue
3.885

@<SCITEGIC>MOL_PROPERTY
Idih
SciTegic.value.DoubleValue
0.000

@<SCITEGIC>MOL_PROPERTY
Tether
SciTegic.value.DoubleValue
0.000

