@<TRIPOS>MOLECULE
CD_guest-6_fast_vm2_rndm.mol2 : feprocess host+ligand conformer 1
         139         144           2
SMALL
USER_CHARGES
 
@<TRIPOS>ATOM
       1    C1      16.269798   15.549710   21.787540 C.3        1 MOL1         0.2972
       2    H1      15.226624   15.458944   22.111791 H          1 MOL1         0.0751
       3    O1      16.475567   16.713959   20.959012 O.3        1 MOL1        -0.3740
       4    C2      17.211304   15.625652   23.019914 C.3        1 MOL1         0.1003
       5    H2      17.069231   14.699954   23.591849 H          1 MOL1         0.0783
       6    O2      16.887727   16.745655   23.862150 O.3        1 MOL1        -0.5519
       7    H3      17.652092   17.380086   23.829569 H          1 MOL1         0.3769
       8    C3      18.689753   15.684747   22.573109 C.3        1 MOL1         0.1053
       9    H4      18.836617   16.634563   22.047561 H          1 MOL1         0.0783
      10    O3      19.548737   15.626327   23.718526 O.3        1 MOL1        -0.5519
      11    H5      19.528368   16.547338   24.090978 H          1 MOL1         0.3769
      12    C4      19.047215   14.558077   21.575718 C.3        1 MOL1         0.1018
      13    H6      19.136458   13.608932   22.118697 H          1 MOL1         0.0783
      14    C5      17.988293   14.420612   20.446924 C.3        1 MOL1         0.1043
      15    H7      18.080111   15.292947   19.786262 H          1 MOL1         0.0783
      16    O4      16.652732   14.390339   21.014048 O.3        1 MOL1        -0.3740
      17    C6      18.180328   13.159886   19.570350 C.3        1 MOL1         0.0138
      18    H8      19.074630   13.302367   18.948816 H          1 MOL1         0.0794
      19    H9      17.321872   13.072148   18.891031 H          1 MOL1         0.0794
      20    O5      18.319477   11.968398   20.354717 O.3        1 MOL1        -0.5486
      21    H10     18.356921   11.206714   19.735798 H          1 MOL1         0.3769
      22    C7      14.761825   20.350836   20.277357 C.3        1 MOL1         0.2972
      23    H11     14.212509   21.253568   19.980959 H          1 MOL1         0.0751
      24    O6      16.073272   20.672118   20.786048 O.3        1 MOL1        -0.3740
      25    C8      13.972045   19.529375   21.325738 C.3        1 MOL1         0.1003
      26    H12     13.051131   19.190708   20.833217 H          1 MOL1         0.0783
      27    O7      13.615719   20.317810   22.471411 O.3        1 MOL1        -0.5519
      28    H13     14.461797   20.548232   22.932008 H          1 MOL1         0.3769
      29    C9      14.766124   18.270981   21.755019 C.3        1 MOL1         0.1053
      30    H14     15.626641   18.598995   22.354631 H          1 MOL1         0.0783
      31    O8      13.895730   17.454653   22.546697 O.3        1 MOL1        -0.5519
      32    H15     13.557428   18.045208   23.254325 H          1 MOL1         0.3769
      33    C10     15.309714   17.457308   20.540905 C.3        1 MOL1         0.1018
      34    H16     14.521009   16.783107   20.185513 H          1 MOL1         0.0783
      35    C11     15.804292   18.342158   19.357469 C.3        1 MOL1         0.1043
      36    H17     16.803555   18.715775   19.609997 H          1 MOL1         0.0783
      37    O9      14.930708   19.478191   19.142058 O.3        1 MOL1        -0.3740
      38    C12     15.956878   17.567469   18.025866 C.3        1 MOL1         0.0138
      39    H18     16.789227   16.858016   18.128240 H          1 MOL1         0.0794
      40    H19     16.236333   18.282060   17.240420 H          1 MOL1         0.0794
      41    O10     14.763271   16.868454   17.649860 O.3        1 MOL1        -0.5486
      42    H20     14.673691   16.091357   18.241641 H          1 MOL1         0.3769
      43    C13     18.500293   23.565211   22.416742 C.3        1 MOL1         0.2972
      44    H21     18.949602   24.446509   22.891059 H          1 MOL1         0.0751
      45    O11     19.506441   22.696406   21.865116 O.3        1 MOL1        -0.3740
      46    C14     17.661960   22.779994   23.456338 C.3        1 MOL1         0.1003
      47    H22     16.860407   23.449639   23.793483 H          1 MOL1         0.0783
      48    O12     18.456967   22.401911   24.590516 O.3        1 MOL1        -0.5519
      49    H23     19.135839   21.743885   24.269406 H          1 MOL1         0.3769
      50    C15     17.003082   21.537397   22.816263 C.3        1 MOL1         0.1053
      51    H24     17.798060   20.829122   22.552499 H          1 MOL1         0.0783
      52    O13     16.118811   20.933169   23.766086 O.3        1 MOL1        -0.5519
      53    H25     16.682168   20.744563   24.550063 H          1 MOL1         0.3769
      54    C16     16.228466   21.901198   21.522997 C.3        1 MOL1         0.1018
      55    H26     15.263530   22.346917   21.797735 H          1 MOL1         0.0783
      56    C17     17.016101   22.866989   20.593512 C.3        1 MOL1         0.1043
      57    H27     17.810739   22.279312   20.122945 H          1 MOL1         0.0783
      58    O14     17.617343   23.955939   21.342069 O.3        1 MOL1        -0.3740
      59    C18     16.158086   23.465728   19.453408 C.3        1 MOL1         0.0138
      60    H28     15.921589   22.665667   18.738916 H          1 MOL1         0.0794
      61    H29     16.757266   24.213729   18.917064 H          1 MOL1         0.0794
      62    O15     14.946796   24.054812   19.941956 O.3        1 MOL1        -0.5486
      63    H30     14.494257   24.480898   19.181503 H          1 MOL1         0.3769
      64    C19     23.528792   22.651536   20.874555 C.3        1 MOL1         0.2972
      65    H31     24.540793   22.838791   20.492912 H          1 MOL1         0.0751
      66    O16     23.376956   21.303266   21.353567 O.3        1 MOL1        -0.3740
      67    C20     23.180241   23.611672   22.038377 C.3        1 MOL1         0.1003
      68    H32     23.226622   24.632984   21.638600 H          1 MOL1         0.0783
      69    O17     24.124678   23.488069   23.113970 O.3        1 MOL1        -0.5519
      70    H33     24.172956   22.527648   23.353852 H          1 MOL1         0.3769
      71    C21     21.736521   23.368620   22.550911 C.3        1 MOL1         0.1053
      72    H34     21.707423   22.394439   23.060269 H          1 MOL1         0.0783
      73    O18     21.407936   24.415009   23.471285 O.3        1 MOL1        -0.5519
      74    H35     22.150180   24.434811   24.114076 H          1 MOL1         0.3769
      75    C22     20.706700   23.333506   21.386091 C.3        1 MOL1         0.1018
      76    H36     20.513814   24.363048   21.058879 H          1 MOL1         0.0783
      77    C23     21.197285   22.492699   20.172570 C.3        1 MOL1         0.1043
      78    H37     21.179676   21.435072   20.461227 H          1 MOL1         0.0783
      79    O19     22.553278   22.869285   19.833724 O.3        1 MOL1        -0.3740
      80    C24     20.319379   22.616810   18.900563 C.3        1 MOL1         0.0138
      81    H38     19.530896   21.855724   18.949111 H          1 MOL1         0.0794
      82    H39     20.934786   22.370781   18.025016 H          1 MOL1         0.0794
      83    O20     19.734442   23.916339   18.741049 O.3        1 MOL1        -0.5486
      84    H40     19.147073   24.071040   19.514252 H          1 MOL1         0.3769
      85    C25     25.194186   17.664125   21.787748 C.3        1 MOL1         0.2972
      86    H41     25.857218   16.795729   21.891459 H          1 MOL1         0.0751
      87    O21     23.812310   17.276420   21.677569 O.3        1 MOL1        -0.3740
      88    C26     25.331392   18.581901   23.024399 C.3        1 MOL1         0.1003
      89    H42     26.366399   18.946538   23.055006 H          1 MOL1         0.0783
      90    O22     25.049110   17.849751   24.227944 O.3        1 MOL1        -0.5519
      91    H43     24.404737   17.137551   23.989008 H          1 MOL1         0.3769
      92    C27     24.395362   19.805761   22.899476 C.3        1 MOL1         0.1053
      93    H44     23.358401   19.450186   22.972572 H          1 MOL1         0.0783
      94    O23     24.665573   20.718106   23.968835 O.3        1 MOL1        -0.5519
      95    H45     24.668801   20.162604   24.780021 H          1 MOL1         0.3769
      96    C28     24.570888   20.525073   21.537301 C.3        1 MOL1         0.1018
      97    H46     25.471103   21.151994   21.585341 H          1 MOL1         0.0783
      98    C29     24.653570   19.548917   20.327343 C.3        1 MOL1         0.1043
      99    H47     23.641806   19.164654   20.141620 H          1 MOL1         0.0783
     100    O24     25.536150   18.433844   20.617706 O.3        1 MOL1        -0.3740
     101    C30     25.129322   20.223560   19.018724 C.3        1 MOL1         0.0138
     102    H48     24.332189   20.888691   18.659832 H          1 MOL1         0.0794
     103    H49     25.273319   19.446561   18.256002 H          1 MOL1         0.0794
     104    O25     26.338458   20.969920   19.204474 O.3        1 MOL1        -0.5486
     105    H50     26.618663   21.306855   18.325590 H          1 MOL1         0.3769
     106    C31     21.359335   14.000370   20.869805 C.3        1 MOL1         0.2972
     107    H51     20.975338   13.010490   20.592370 H          1 MOL1         0.0751
     108    O26     20.288045   14.963449   20.960378 O.3        1 MOL1        -0.3740
     109    C32     22.170614   13.933456   22.199163 C.3        1 MOL1         0.1003
     110    H52     23.004916   13.242183   22.022678 H          1 MOL1         0.0783
     111    O27     21.393845   13.436863   23.298989 O.3        1 MOL1        -0.5519
     112    H53     20.712878   14.129144   23.495642 H          1 MOL1         0.3769
     113    C33     22.774503   15.313337   22.554541 C.3        1 MOL1         0.1053
     114    H54     21.951902   16.001502   22.788113 H          1 MOL1         0.0783
     115    O28     23.638024   15.185232   23.689691 O.3        1 MOL1        -0.5519
     116    H55     23.141024   14.628887   24.329905 H          1 MOL1         0.3769
     117    C34     23.563117   15.897436   21.360604 C.3        1 MOL1         0.1018
     118    H56     24.490257   15.322475   21.237223 H          1 MOL1         0.0783
     119    C35     22.744280   15.843265   20.043482 C.3        1 MOL1         0.1043
     120    H57     21.891308   16.524623   20.147223 H          1 MOL1         0.0783
     121    O29     22.262530   14.487354   19.848911 O.3        1 MOL1        -0.3740
     122    C36     23.516386   16.294574   18.776606 C.3        1 MOL1         0.0138
     123    H58     23.380847   17.377173   18.657178 H          1 MOL1         0.0794
     124    H59     23.057112   15.818827   17.899901 H          1 MOL1         0.0794
     125    O30     24.915939   15.993004   18.825212 O.3        1 MOL1        -0.5486
     126    H60     25.338158   16.692549   19.375558 H          1 MOL1         0.3769
     127    C1      19.912112   19.236367   23.351052 C.2        1 MOL1         0.6021
     128    O1      20.162700   20.327461   23.823730 O.co2      1 MOL1        -0.6904
     129    O2      19.208375   18.405598   23.897806 O.co2      1 MOL1        -0.6904
     130    C2      20.447791   18.916260   21.957122 C.3        1 MOL1        -0.2102
     131    H1      20.767240   17.869262   21.949270 H          1 MOL1         0.0687
     132    H2      21.342967   19.522228   21.785484 H          1 MOL1         0.0687
     133    C3      19.408967   19.172978   20.838132 C.3        1 MOL1        -0.1974
     134    H3      18.475661   18.652411   21.085255 H          1 MOL1         0.0689
     135    H4      19.166752   20.241280   20.805367 H          1 MOL1         0.0689
     136    C4      19.911623   18.713529   19.455337 C.3        1 MOL1        -0.2987
     137    H5      20.034553   17.623673   19.430743 H          1 MOL1         0.0700
     138    H6      19.192203   18.987812   18.673517 H          1 MOL1         0.0700
     139    H7      20.875458   19.178563   19.211680 H          1 MOL1         0.0700
@<TRIPOS>BOND
    1     1     2    1
    2     1     3    1
    3     1     4    1
    4     4     5    1
    5     4     6    1
    6     6     7    1
    7     4     8    1
    8     8     9    1
    9     8    10    1
   10    10    11    1
   11     8    12    1
   12    12    13    1
   13    12    14    1
   14    14    15    1
   15     1    16    1
   16    14    16    1
   17    14    17    1
   18    17    18    1
   19    17    19    1
   20    17    20    1
   21    20    21    1
   22    22    23    1
   23    22    24    1
   24    22    25    1
   25    25    26    1
   26    25    27    1
   27    27    28    1
   28    25    29    1
   29    29    30    1
   30    29    31    1
   31    31    32    1
   32     3    33    1
   33    29    33    1
   34    33    34    1
   35    33    35    1
   36    35    36    1
   37    22    37    1
   38    35    37    1
   39    35    38    1
   40    38    39    1
   41    38    40    1
   42    38    41    1
   43    41    42    1
   44    43    44    1
   45    43    45    1
   46    43    46    1
   47    46    47    1
   48    46    48    1
   49    48    49    1
   50    46    50    1
   51    50    51    1
   52    50    52    1
   53    52    53    1
   54    24    54    1
   55    50    54    1
   56    54    55    1
   57    54    56    1
   58    56    57    1
   59    43    58    1
   60    56    58    1
   61    56    59    1
   62    59    60    1
   63    59    61    1
   64    59    62    1
   65    62    63    1
   66    64    65    1
   67    64    66    1
   68    64    67    1
   69    67    68    1
   70    67    69    1
   71    69    70    1
   72    67    71    1
   73    71    72    1
   74    71    73    1
   75    73    74    1
   76    45    75    1
   77    71    75    1
   78    75    76    1
   79    75    77    1
   80    77    78    1
   81    64    79    1
   82    77    79    1
   83    77    80    1
   84    80    81    1
   85    80    82    1
   86    80    83    1
   87    83    84    1
   88    85    86    1
   89    85    87    1
   90    85    88    1
   91    88    89    1
   92    88    90    1
   93    90    91    1
   94    88    92    1
   95    92    93    1
   96    92    94    1
   97    94    95    1
   98    66    96    1
   99    92    96    1
  100    96    97    1
  101    96    98    1
  102    98    99    1
  103    85   100    1
  104    98   100    1
  105    98   101    1
  106   101   102    1
  107   101   103    1
  108   101   104    1
  109   104   105    1
  110   106   107    1
  111    12   108    1
  112   106   108    1
  113   106   109    1
  114   109   110    1
  115   109   111    1
  116   111   112    1
  117   109   113    1
  118   113   114    1
  119   113   115    1
  120   115   116    1
  121    87   117    1
  122   113   117    1
  123   117   118    1
  124   117   119    1
  125   119   120    1
  126   106   121    1
  127   119   121    1
  128   119   122    1
  129   122   123    1
  130   122   124    1
  131   122   125    1
  132   125   126    1
  133   127   128    1
  134   127   129    2
  135   127   130    1
  136   130   131    1
  137   130   132    1
  138   130   133    1
  139   133   134    1
  140   133   135    1
  141   133   136    1
  142   136   137    1
  143   136   138    1
  144   136   139    1
@<TRIPOS>SUBSTRUCTURE
       1 MOL1            1 RESIDUE      1      MOL     
       2 MOL1          139 RESIDUE      1      MOL     
@<SCITEGIC>MOL_PROPERTY
feprocess Rank
SciTegic.value.IntegerValue
1

@<SCITEGIC>MOL_PROPERTY
Conf_Id
SciTegic.value.IntegerValue
493

@<SCITEGIC>MOL_PROPERTY
Probability
SciTegic.value.DoubleValue
32.69

@<SCITEGIC>MOL_PROPERTY
G
SciTegic.value.DoubleValue
482.611

@<SCITEGIC>MOL_PROPERTY
E
SciTegic.value.DoubleValue
304.919

@<SCITEGIC>MOL_PROPERTY
-TS
SciTegic.value.DoubleValue
177.691

@<SCITEGIC>MOL_PROPERTY
U+W
SciTegic.value.DoubleValue
182.408

@<SCITEGIC>MOL_PROPERTY
U
SciTegic.value.DoubleValue
254.459

@<SCITEGIC>MOL_PROPERTY
W
SciTegic.value.DoubleValue
-72.051

@<SCITEGIC>MOL_PROPERTY
W(PB)
SciTegic.value.DoubleValue
-78.009

@<SCITEGIC>MOL_PROPERTY
W(SA)
SciTegic.value.DoubleValue
5.958

@<SCITEGIC>MOL_PROPERTY
Valence
SciTegic.value.DoubleValue
149.952

@<SCITEGIC>MOL_PROPERTY
Coulomb
SciTegic.value.DoubleValue
126.925

@<SCITEGIC>MOL_PROPERTY
VdW
SciTegic.value.DoubleValue
-22.417

@<SCITEGIC>MOL_PROPERTY
VdW6
SciTegic.value.DoubleValue
-179.471

@<SCITEGIC>MOL_PROPERTY
VdW12
SciTegic.value.DoubleValue
157.054

@<SCITEGIC>MOL_PROPERTY
Bond
SciTegic.value.DoubleValue
5.152

@<SCITEGIC>MOL_PROPERTY
Angle
SciTegic.value.DoubleValue
15.333

@<SCITEGIC>MOL_PROPERTY
Pdih
SciTegic.value.DoubleValue
129.459

@<SCITEGIC>MOL_PROPERTY
Idih
SciTegic.value.DoubleValue
0.008

@<SCITEGIC>MOL_PROPERTY
Tether
SciTegic.value.DoubleValue
0.000

@<TRIPOS>MOLECULE
CD_guest-6_fast_vm2_rndm.mol2 : feprocess host+ligand conformer 2
         139         144           2
SMALL
USER_CHARGES
 
@<TRIPOS>ATOM
       1    C1      16.203705   15.147491   21.082816 C.3        1 MOL1         0.2972
       2    H1      15.117446   15.033191   20.975948 H          1 MOL1         0.0751
       3    O1      16.587524   16.539767   21.069781 O.3        1 MOL1        -0.3740
       4    C2      16.715795   14.451143   22.374423 C.3        1 MOL1         0.1003
       5    H2      16.511622   13.378530   22.260192 H          1 MOL1         0.0783
       6    O2      16.043740   14.920069   23.552367 O.3        1 MOL1        -0.5519
       7    H3      16.300988   15.869858   23.666564 H          1 MOL1         0.3769
       8    C3      18.247039   14.627011   22.509147 C.3        1 MOL1         0.1053
       9    H4      18.460271   15.693887   22.656433 H          1 MOL1         0.0783
      10    O3      18.724124   13.876252   23.631934 O.3        1 MOL1        -0.5519
      11    H5      18.100078   14.082041   24.362900 H          1 MOL1         0.3769
      12    C4      18.975754   14.156780   21.227544 C.3        1 MOL1         0.1018
      13    H6      18.983566   13.058776   21.226662 H          1 MOL1         0.0783
      14    C5      18.314150   14.684865   19.921581 C.3        1 MOL1         0.1043
      15    H7      18.541285   15.755073   19.833355 H          1 MOL1         0.0783
      16    O4      16.875164   14.506410   19.977923 O.3        1 MOL1        -0.3740
      17    C6      18.835931   13.997500   18.636683 C.3        1 MOL1         0.0138
      18    H8      19.857410   14.349624   18.441699 H          1 MOL1         0.0794
      19    H9      18.215178   14.321550   17.790682 H          1 MOL1         0.0794
      20    O5      18.825331   12.567938   18.743435 O.3        1 MOL1        -0.5486
      21    H10     19.109429   12.203225   17.876977 H          1 MOL1         0.3769
      22    C7      15.198128   20.389897   21.805888 C.3        1 MOL1         0.2972
      23    H11     14.615461   21.264412   22.116086 H          1 MOL1         0.0751
      24    O6      16.302635   20.752218   20.949117 O.3        1 MOL1        -0.3740
      25    C8      15.749345   19.642769   23.049555 C.3        1 MOL1         0.1003
      26    H12     14.883125   19.319496   23.640723 H          1 MOL1         0.0783
      27    O7      16.559279   20.512140   23.859027 O.3        1 MOL1        -0.5519
      28    H13     17.473487   20.125968   23.905502 H          1 MOL1         0.3769
      29    C9      16.527711   18.373999   22.622470 C.3        1 MOL1         0.1053
      30    H14     17.414236   18.691337   22.061309 H          1 MOL1         0.0783
      31    O8      16.925501   17.633077   23.782456 O.3        1 MOL1        -0.5519
      32    H15     17.703825   18.130250   24.150329 H          1 MOL1         0.3769
      33    C10     15.680329   17.479108   21.685081 C.3        1 MOL1         0.1018
      34    H16     14.905739   16.977214   22.279570 H          1 MOL1         0.0783
      35    C11     15.017642   18.295401   20.540456 C.3        1 MOL1         0.1043
      36    H17     15.807848   18.613462   19.847462 H          1 MOL1         0.0783
      37    O9      14.356050   19.468592   21.078393 O.3        1 MOL1        -0.3740
      38    C12     13.985839   17.483431   19.721123 C.3        1 MOL1         0.0138
      39    H18     14.527361   16.743437   19.116370 H          1 MOL1         0.0794
      40    H19     13.477755   18.164373   19.025229 H          1 MOL1         0.0794
      41    O10     13.029335   16.820080   20.557659 O.3        1 MOL1        -0.5486
      42    H20     12.364569   16.396363   19.971850 H          1 MOL1         0.3769
      43    C13     18.609201   24.034022   20.173909 C.3        1 MOL1         0.2972
      44    H21     19.116997   24.948852   19.842582 H          1 MOL1         0.0751
      45    O11     19.536917   23.097751   20.762234 O.3        1 MOL1        -0.3740
      46    C14     17.468516   24.352825   21.171231 C.3        1 MOL1         0.1003
      47    H22     16.723926   24.942404   20.620425 H          1 MOL1         0.0783
      48    O12     17.928398   25.127773   22.288712 O.3        1 MOL1        -0.5519
      49    H23     18.541938   24.545878   22.804393 H          1 MOL1         0.3769
      50    C15     16.775731   23.053934   21.652820 C.3        1 MOL1         0.1053
      51    H24     17.479641   22.509033   22.297153 H          1 MOL1         0.0783
      52    O13     15.615078   23.434483   22.400298 O.3        1 MOL1        -0.5519
      53    H25     15.937146   24.075253   23.071102 H          1 MOL1         0.3769
      54    C16     16.376617   22.114610   20.472817 C.3        1 MOL1         0.1018
      55    H26     15.409867   22.442288   20.071709 H          1 MOL1         0.0783
      56    C17     17.427614   22.071775   19.323161 C.3        1 MOL1         0.1043
      57    H27     18.245087   21.413975   19.640629 H          1 MOL1         0.0783
      58    O14     17.976264   23.385452   19.052391 O.3        1 MOL1        -0.3740
      59    C18     16.879302   21.476199   18.003597 C.3        1 MOL1         0.0138
      60    H28     16.685837   20.405937   18.157522 H          1 MOL1         0.0794
      61    H29     17.661344   21.556051   17.236989 H          1 MOL1         0.0794
      62    O15     15.684539   22.128419   17.554411 O.3        1 MOL1        -0.5486
      63    H30     14.951993   21.847093   18.142902 H          1 MOL1         0.3769
      64    C19     23.203623   22.589807   22.569718 C.3        1 MOL1         0.2972
      65    H31     24.171979   22.684522   23.077141 H          1 MOL1         0.0751
      66    O16     22.993023   21.250529   22.088349 O.3        1 MOL1        -0.3740
      67    C20     22.060841   22.970439   23.543864 C.3        1 MOL1         0.1003
      68    H32     22.214421   24.020638   23.823303 H          1 MOL1         0.0783
      69    O17     22.096403   22.165403   24.731906 O.3        1 MOL1        -0.5519
      70    H33     21.903474   21.225528   24.455807 H          1 MOL1         0.3769
      71    C21     20.681587   22.860289   22.856331 C.3        1 MOL1         0.1053
      72    H34     20.487851   21.800448   22.651005 H          1 MOL1         0.0783
      73    O18     19.678085   23.368049   23.741607 O.3        1 MOL1        -0.5519
      74    H35     19.786781   22.848154   24.569515 H          1 MOL1         0.3769
      75    C22     20.648468   23.630869   21.510594 C.3        1 MOL1         0.1018
      76    H36     20.534952   24.703264   21.716372 H          1 MOL1         0.0783
      77    C23     21.914821   23.388019   20.641386 C.3        1 MOL1         0.1043
      78    H37     21.832737   22.376148   20.230467 H          1 MOL1         0.0783
      79    O19     23.129258   23.478192   21.432906 O.3        1 MOL1        -0.3740
      80    C24     22.035298   24.356704   19.440748 C.3        1 MOL1         0.0138
      81    H38     21.252355   24.106606   18.712058 H          1 MOL1         0.0794
      82    H39     23.002854   24.189195   18.948770 H          1 MOL1         0.0794
      83    O20     21.908997   25.727436   19.838450 O.3        1 MOL1        -0.5486
      84    H40     22.073389   26.284316   19.046333 H          1 MOL1         0.3769
      85    C25     25.065539   17.707561   21.448794 C.3        1 MOL1         0.2972
      86    H41     25.809828   16.943346   21.191512 H          1 MOL1         0.0751
      87    O21     23.805078   17.112817   21.814137 O.3        1 MOL1        -0.3740
      88    C26     25.558064   18.523597   22.666897 C.3        1 MOL1         0.1003
      89    H42     26.520929   18.974191   22.393157 H          1 MOL1         0.0783
      90    O22     25.742751   17.654042   23.795535 O.3        1 MOL1        -0.5519
      91    H43     24.992120   17.012435   23.775974 H          1 MOL1         0.3769
      92    C27     24.578325   19.670002   23.022104 C.3        1 MOL1         0.1053
      93    H44     23.666178   19.225511   23.443082 H          1 MOL1         0.0783
      94    O23     25.208582   20.514517   23.991333 O.3        1 MOL1        -0.5519
      95    H45     25.475526   19.914934   24.721435 H          1 MOL1         0.3769
      96    C28     24.178373   20.496781   21.770288 C.3        1 MOL1         0.1018
      97    H46     25.015532   21.153157   21.500021 H          1 MOL1         0.0783
      98    C29     23.817872   19.600540   20.553678 C.3        1 MOL1         0.1043
      99    H47     22.877132   19.084164   20.779485 H          1 MOL1         0.0783
     100    O24     24.861633   18.617437   20.347002 O.3        1 MOL1        -0.3740
     101    C30     23.593859   20.377098   19.229425 C.3        1 MOL1         0.0138
     102    H48     22.532392   20.647150   19.163886 H          1 MOL1         0.0794
     103    H49     23.798116   19.704298   18.386241 H          1 MOL1         0.0794
     104    O25     24.402391   21.556021   19.120115 O.3        1 MOL1        -0.5486
     105    H50     24.138288   22.162251   19.849010 H          1 MOL1         0.3769
     106    C31     21.376210   13.836023   20.889141 C.3        1 MOL1         0.2972
     107    H51     21.003192   12.863620   20.542529 H          1 MOL1         0.0751
     108    O26     20.304892   14.703408   21.305046 O.3        1 MOL1        -0.3740
     109    C32     22.325558   13.657926   22.100371 C.3        1 MOL1         0.1003
     110    H52     23.149595   13.007240   21.780121 H          1 MOL1         0.0783
     111    O27     21.634906   13.042795   23.200839 O.3        1 MOL1        -0.5519
     112    H53     20.753113   13.487461   23.279692 H          1 MOL1         0.3769
     113    C33     22.930042   15.016692   22.535367 C.3        1 MOL1         0.1053
     114    H54     22.121332   15.634023   22.951381 H          1 MOL1         0.0783
     115    O28     23.931125   14.791181   23.534551 O.3        1 MOL1        -0.5519
     116    H55     23.517051   14.174546   24.178092 H          1 MOL1         0.3769
     117    C34     23.547166   15.778509   21.334641 C.3        1 MOL1         0.1018
     118    H56     24.470931   15.263754   21.039763 H          1 MOL1         0.0783
     119    C35     22.564990   15.835113   20.128005 C.3        1 MOL1         0.1043
     120    H57     21.705812   16.454280   20.413286 H          1 MOL1         0.0783
     121    O29     22.109497   14.493281   19.835346 O.3        1 MOL1        -0.3740
     122    C36     23.137598   16.427964   18.816043 C.3        1 MOL1         0.0138
     123    H58     22.997936   17.514825   18.833115 H          1 MOL1         0.0794
     124    H59     22.541755   16.049057   17.974984 H          1 MOL1         0.0794
     125    O30     24.520918   16.121772   18.612041 O.3        1 MOL1        -0.5486
     126    H60     25.030862   16.857149   19.019930 H          1 MOL1         0.3769
     127    C1      20.199836   19.189556   23.566496 C.2        1 MOL1         0.6021
     128    O1      19.106085   19.324942   24.083057 O.co2      1 MOL1        -0.6904
     129    O2      21.233360   19.596998   24.057716 O.co2      1 MOL1        -0.6904
     130    C2      20.262372   18.529378   22.191404 C.3        1 MOL1        -0.2102
     131    H1      19.545080   17.701930   22.182561 H          1 MOL1         0.0687
     132    H2      21.256865   18.089158   22.070397 H          1 MOL1         0.0687
     133    C3      19.959704   19.514642   21.034931 C.3        1 MOL1        -0.1974
     134    H3      19.038230   20.064569   21.264776 H          1 MOL1         0.0689
     135    H4      20.758370   20.262500   20.971812 H          1 MOL1         0.0689
     136    C4      19.808640   18.801717   19.676802 C.3        1 MOL1        -0.2987
     137    H5      18.982067   18.080514   19.707233 H          1 MOL1         0.0700
     138    H6      19.595650   19.527154   18.881800 H          1 MOL1         0.0700
     139    H7      20.726133   18.267605   19.407605 H          1 MOL1         0.0700
@<TRIPOS>BOND
    1     1     2    1
    2     1     3    1
    3     1     4    1
    4     4     5    1
    5     4     6    1
    6     6     7    1
    7     4     8    1
    8     8     9    1
    9     8    10    1
   10    10    11    1
   11     8    12    1
   12    12    13    1
   13    12    14    1
   14    14    15    1
   15     1    16    1
   16    14    16    1
   17    14    17    1
   18    17    18    1
   19    17    19    1
   20    17    20    1
   21    20    21    1
   22    22    23    1
   23    22    24    1
   24    22    25    1
   25    25    26    1
   26    25    27    1
   27    27    28    1
   28    25    29    1
   29    29    30    1
   30    29    31    1
   31    31    32    1
   32     3    33    1
   33    29    33    1
   34    33    34    1
   35    33    35    1
   36    35    36    1
   37    22    37    1
   38    35    37    1
   39    35    38    1
   40    38    39    1
   41    38    40    1
   42    38    41    1
   43    41    42    1
   44    43    44    1
   45    43    45    1
   46    43    46    1
   47    46    47    1
   48    46    48    1
   49    48    49    1
   50    46    50    1
   51    50    51    1
   52    50    52    1
   53    52    53    1
   54    24    54    1
   55    50    54    1
   56    54    55    1
   57    54    56    1
   58    56    57    1
   59    43    58    1
   60    56    58    1
   61    56    59    1
   62    59    60    1
   63    59    61    1
   64    59    62    1
   65    62    63    1
   66    64    65    1
   67    64    66    1
   68    64    67    1
   69    67    68    1
   70    67    69    1
   71    69    70    1
   72    67    71    1
   73    71    72    1
   74    71    73    1
   75    73    74    1
   76    45    75    1
   77    71    75    1
   78    75    76    1
   79    75    77    1
   80    77    78    1
   81    64    79    1
   82    77    79    1
   83    77    80    1
   84    80    81    1
   85    80    82    1
   86    80    83    1
   87    83    84    1
   88    85    86    1
   89    85    87    1
   90    85    88    1
   91    88    89    1
   92    88    90    1
   93    90    91    1
   94    88    92    1
   95    92    93    1
   96    92    94    1
   97    94    95    1
   98    66    96    1
   99    92    96    1
  100    96    97    1
  101    96    98    1
  102    98    99    1
  103    85   100    1
  104    98   100    1
  105    98   101    1
  106   101   102    1
  107   101   103    1
  108   101   104    1
  109   104   105    1
  110   106   107    1
  111    12   108    1
  112   106   108    1
  113   106   109    1
  114   109   110    1
  115   109   111    1
  116   111   112    1
  117   109   113    1
  118   113   114    1
  119   113   115    1
  120   115   116    1
  121    87   117    1
  122   113   117    1
  123   117   118    1
  124   117   119    1
  125   119   120    1
  126   106   121    1
  127   119   121    1
  128   119   122    1
  129   122   123    1
  130   122   124    1
  131   122   125    1
  132   125   126    1
  133   127   128    1
  134   127   129    2
  135   127   130    1
  136   130   131    1
  137   130   132    1
  138   130   133    1
  139   133   134    1
  140   133   135    1
  141   133   136    1
  142   136   137    1
  143   136   138    1
  144   136   139    1
@<TRIPOS>SUBSTRUCTURE
       1 MOL1            1 RESIDUE      1      MOL     
       2 MOL1          139 RESIDUE      1      MOL     
@<SCITEGIC>MOL_PROPERTY
feprocess Rank
SciTegic.value.IntegerValue
2

@<SCITEGIC>MOL_PROPERTY
Conf_Id
SciTegic.value.IntegerValue
309

@<SCITEGIC>MOL_PROPERTY
Probability
SciTegic.value.DoubleValue
32.15

@<SCITEGIC>MOL_PROPERTY
G
SciTegic.value.DoubleValue
482.621

@<SCITEGIC>MOL_PROPERTY
E
SciTegic.value.DoubleValue
304.613

@<SCITEGIC>MOL_PROPERTY
-TS
SciTegic.value.DoubleValue
178.008

@<SCITEGIC>MOL_PROPERTY
U+W
SciTegic.value.DoubleValue
182.101

@<SCITEGIC>MOL_PROPERTY
U
SciTegic.value.DoubleValue
254.422

@<SCITEGIC>MOL_PROPERTY
W
SciTegic.value.DoubleValue
-72.321

@<SCITEGIC>MOL_PROPERTY
W(PB)
SciTegic.value.DoubleValue
-78.302

@<SCITEGIC>MOL_PROPERTY
W(SA)
SciTegic.value.DoubleValue
5.981

@<SCITEGIC>MOL_PROPERTY
Valence
SciTegic.value.DoubleValue
149.194

@<SCITEGIC>MOL_PROPERTY
Coulomb
SciTegic.value.DoubleValue
127.441

@<SCITEGIC>MOL_PROPERTY
VdW
SciTegic.value.DoubleValue
-22.213

@<SCITEGIC>MOL_PROPERTY
VdW6
SciTegic.value.DoubleValue
-178.954

@<SCITEGIC>MOL_PROPERTY
VdW12
SciTegic.value.DoubleValue
156.741

@<SCITEGIC>MOL_PROPERTY
Bond
SciTegic.value.DoubleValue
5.094

@<SCITEGIC>MOL_PROPERTY
Angle
SciTegic.value.DoubleValue
14.656

@<SCITEGIC>MOL_PROPERTY
Pdih
SciTegic.value.DoubleValue
129.438

@<SCITEGIC>MOL_PROPERTY
Idih
SciTegic.value.DoubleValue
0.006

@<SCITEGIC>MOL_PROPERTY
Tether
SciTegic.value.DoubleValue
0.000

@<TRIPOS>MOLECULE
CD_guest-6_fast_vm2_rndm.mol2 : feprocess host+ligand conformer 3
         139         144           2
SMALL
USER_CHARGES
 
@<TRIPOS>ATOM
       1    C1      16.160580   15.270434   20.215534 C.3        1 MOL1         0.2972
       2    H1      15.136692   15.184577   19.829714 H          1 MOL1         0.0751
       3    O1      16.403583   16.570696   20.786296 O.3        1 MOL1        -0.3740
       4    C2      16.462343   14.173665   21.266809 C.3        1 MOL1         0.1003
       5    H2      16.384844   13.209744   20.746948 H          1 MOL1         0.0783
       6    O2      15.515043   14.188187   22.345943 O.3        1 MOL1        -0.5519
       7    H3      15.619326   15.055337   22.812847 H          1 MOL1         0.3769
       8    C3      17.909763   14.299178   21.807060 C.3        1 MOL1         0.1053
       9    H4      17.972890   15.209171   22.420590 H          1 MOL1         0.0783
      10    O3      18.169983   13.143833   22.611300 O.3        1 MOL1        -0.5519
      11    H5      17.413626   13.086356   23.235261 H          1 MOL1         0.3769
      12    C4      18.961013   14.413748   20.660317 C.3        1 MOL1         0.1018
      13    H6      19.173287   13.410222   20.271635 H          1 MOL1         0.0783
      14    C5      18.496640   15.333982   19.493430 C.3        1 MOL1         0.1043
      15    H7      18.592136   16.376115   19.825215 H          1 MOL1         0.0783
      16    O4      17.111973   15.077657   19.148326 O.3        1 MOL1        -0.3740
      17    C6      19.362448   15.201469   18.216398 C.3        1 MOL1         0.0138
      18    H8      20.348831   15.640969   18.416132 H          1 MOL1         0.0794
      19    H9      18.898848   15.798428   17.419912 H          1 MOL1         0.0794
      20    O5      19.514358   13.842760   17.786351 O.3        1 MOL1        -0.5486
      21    H10     20.118446   13.397238   18.417889 H          1 MOL1         0.3769
      22    C7      14.978302   20.090233   22.215690 C.3        1 MOL1         0.2972
      23    H11     14.443715   20.958555   22.621061 H          1 MOL1         0.0751
      24    O6      16.284415   20.457368   21.733478 O.3        1 MOL1        -0.3740
      25    C8      15.120753   19.003515   23.310113 C.3        1 MOL1         0.1003
      26    H12     14.105679   18.704337   23.601244 H          1 MOL1         0.0783
      27    O7      15.810331   19.513246   24.462106 O.3        1 MOL1        -0.5519
      28    H13     16.744378   19.719590   24.176002 H          1 MOL1         0.3769
      29    C9      15.852234   17.754099   22.773315 C.3        1 MOL1         0.1053
      30    H14     16.900136   18.028965   22.626866 H          1 MOL1         0.0783
      31    O8      15.775315   16.706538   23.745298 O.3        1 MOL1        -0.5519
      32    H15     16.065657   17.122181   24.588104 H          1 MOL1         0.3769
      33    C10     15.301440   17.259546   21.411070 C.3        1 MOL1         0.1018
      34    H16     14.441817   16.600264   21.589207 H          1 MOL1         0.0783
      35    C11     14.911590   18.406446   20.434712 C.3        1 MOL1         0.1043
      36    H17     15.843450   18.778307   19.998080 H          1 MOL1         0.0783
      37    O9      14.249103   19.503906   21.116052 O.3        1 MOL1        -0.3740
      38    C12     14.019759   17.941267   19.259133 C.3        1 MOL1         0.0138
      39    H18     14.622148   17.307487   18.594410 H          1 MOL1         0.0794
      40    H19     13.714130   18.822397   18.679036 H          1 MOL1         0.0794
      41    O10     12.868207   17.217689   19.709397 O.3        1 MOL1        -0.5486
      42    H20     12.312549   17.021703   18.923488 H          1 MOL1         0.3769
      43    C13     18.524316   23.828977   20.753341 C.3        1 MOL1         0.2972
      44    H21     18.887148   24.788383   20.362641 H          1 MOL1         0.0751
      45    O11     19.602557   23.013243   21.247677 O.3        1 MOL1        -0.3740
      46    C14     17.511910   24.043810   21.906850 C.3        1 MOL1         0.1003
      47    H22     16.676850   24.625909   21.495936 H          1 MOL1         0.0783
      48    O12     18.105206   24.781028   22.987790 O.3        1 MOL1        -0.5519
      49    H23     18.944963   24.315636   23.234360 H          1 MOL1         0.3769
      50    C15     16.939670   22.695131   22.417392 C.3        1 MOL1         0.1053
      51    H24     17.741167   22.150494   22.937378 H          1 MOL1         0.0783
      52    O13     15.866704   22.978244   23.322084 O.3        1 MOL1        -0.5519
      53    H25     16.238393   23.614171   23.971525 H          1 MOL1         0.3769
      54    C16     16.432778   21.806444   21.247691 C.3        1 MOL1         0.1018
      55    H26     15.478999   22.211887   20.886445 H          1 MOL1         0.0783
      56    C17     17.443531   21.750169   20.067594 C.3        1 MOL1         0.1043
      57    H27     18.322873   21.183844   20.396857 H          1 MOL1         0.0783
      58    O14     17.845975   23.094260   19.713017 O.3        1 MOL1        -0.3740
      59    C18     16.911807   21.048083   18.791760 C.3        1 MOL1         0.0138
      60    H28     17.145872   19.978984   18.863209 H          1 MOL1         0.0794
      61    H29     17.466749   21.430211   17.924597 H          1 MOL1         0.0794
      62    O15     15.503066   21.227990   18.592126 O.3        1 MOL1        -0.5486
      63    H30     15.042588   20.821040   19.360188 H          1 MOL1         0.3769
      64    C19     23.703335   22.859182   21.687802 C.3        1 MOL1         0.2972
      65    H31     24.777814   23.056897   21.789465 H          1 MOL1         0.0751
      66    O16     23.422477   21.450940   21.578528 O.3        1 MOL1        -0.3740
      67    C20     22.942381   23.411103   22.918090 C.3        1 MOL1         0.1003
      68    H32     23.090725   24.498713   22.934707 H          1 MOL1         0.0783
      69    O17     23.454621   22.850526   24.137166 O.3        1 MOL1        -0.5519
      70    H33     23.789742   21.943080   23.925682 H          1 MOL1         0.3769
      71    C21     21.424853   23.142850   22.788653 C.3        1 MOL1         0.1053
      72    H34     21.258587   22.057955   22.847226 H          1 MOL1         0.0783
      73    O18     20.740134   23.796559   23.862548 O.3        1 MOL1        -0.5519
      74    H35     21.239084   23.541649   24.670563 H          1 MOL1         0.3769
      75    C22     20.879019   23.652044   21.430823 C.3        1 MOL1         0.1018
      76    H36     20.787133   24.745055   21.482775 H          1 MOL1         0.0783
      77    C23     21.777265   23.246184   20.225076 C.3        1 MOL1         0.1043
      78    H37     21.646883   22.170042   20.051991 H          1 MOL1         0.0783
      79    O19     23.174796   23.511558   20.514919 O.3        1 MOL1        -0.3740
      80    C24     21.405942   23.966125   18.906753 C.3        1 MOL1         0.0138
      81    H38     20.447057   23.566236   18.550000 H          1 MOL1         0.0794
      82    H39     22.162669   23.721694   18.149344 H          1 MOL1         0.0794
      83    O20     21.308676   25.386287   19.074303 O.3        1 MOL1        -0.5486
      84    H40     21.144035   25.779807   18.189738 H          1 MOL1         0.3769
      85    C25     25.098994   17.689146   21.099504 C.3        1 MOL1         0.2972
      86    H41     25.750848   16.825693   20.915187 H          1 MOL1         0.0751
      87    O21     23.709710   17.294348   21.134514 O.3        1 MOL1        -0.3740
      88    C26     25.500060   18.426096   22.409406 C.3        1 MOL1         0.1003
      89    H42     26.523384   18.795369   22.262371 H          1 MOL1         0.0783
      90    O22     25.490054   17.560893   23.554214 O.3        1 MOL1        -0.5519
      91    H43     24.541550   17.330021   23.722524 H          1 MOL1         0.3769
      92    C27     24.588581   19.654317   22.648549 C.3        1 MOL1         0.1053
      93    H44     23.567222   19.298304   22.837432 H          1 MOL1         0.0783
      94    O23     25.065139   20.387487   23.781337 O.3        1 MOL1        -0.5519
      95    H45     25.263405   19.707113   24.462959 H          1 MOL1         0.3769
      96    C28     24.550639   20.574510   21.404809 C.3        1 MOL1         0.1018
      97    H46     25.499944   21.121926   21.344652 H          1 MOL1         0.0783
      98    C29     24.326013   19.780699   20.088451 C.3        1 MOL1         0.1043
      99    H47     23.297101   19.404888   20.090459 H          1 MOL1         0.0783
     100    O24     25.238380   18.653238   20.030283 O.3        1 MOL1        -0.3740
     101    C30     24.482011   20.630018   18.802708 C.3        1 MOL1         0.0138
     102    H48     23.573167   21.232431   18.672022 H          1 MOL1         0.0794
     103    H49     24.544045   19.949902   17.942877 H          1 MOL1         0.0794
     104    O25     25.627012   21.490191   18.835071 O.3        1 MOL1        -0.5486
     105    H50     25.363993   22.303448   19.318143 H          1 MOL1         0.3769
     106    C31     21.033910   14.243515   22.000238 C.3        1 MOL1         0.2972
     107    H51     20.550226   13.320464   22.338546 H          1 MOL1         0.0751
     108    O26     20.160714   15.037233   21.167940 O.3        1 MOL1        -0.3740
     109    C32     21.466825   15.096310   23.220861 C.3        1 MOL1         0.1003
     110    H52     22.173097   14.493043   23.805249 H          1 MOL1         0.0783
     111    O27     20.337077   15.422606   24.048684 O.3        1 MOL1        -0.5519
     112    H53     20.221400   16.408475   24.022701 H          1 MOL1         0.3769
     113    C33     22.204054   16.373720   22.753770 C.3        1 MOL1         0.1053
     114    H54     21.488846   16.985446   22.195783 H          1 MOL1         0.0783
     115    O28     22.676924   17.106871   23.889548 O.3        1 MOL1        -0.5519
     116    H55     21.882280   17.611813   24.209483 H          1 MOL1         0.3769
     117    C34     23.366274   16.051063   21.783373 C.3        1 MOL1         0.1018
     118    H56     24.205634   15.627853   22.349817 H          1 MOL1         0.0783
     119    C35     22.926545   15.063578   20.666206 C.3        1 MOL1         0.1043
     120    H57     22.251251   15.600187   19.986871 H          1 MOL1         0.0783
     121    O29     22.220930   13.931565   21.237020 O.3        1 MOL1        -0.3740
     122    C36     24.105622   14.531841   19.816794 C.3        1 MOL1         0.0138
     123    H58     24.481089   15.353234   19.191617 H          1 MOL1         0.0794
     124    H59     23.727150   13.753720   19.140496 H          1 MOL1         0.0794
     125    O30     25.168334   14.014552   20.627605 O.3        1 MOL1        -0.5486
     126    H60     25.841577   13.628522   20.025648 H          1 MOL1         0.3769
     127    C1      19.365625   18.931176   23.307713 C.2        1 MOL1         0.6021
     128    O1      18.543317   19.703720   23.761471 O.co2      1 MOL1        -0.6904
     129    O2      20.111648   18.252524   23.990863 O.co2      1 MOL1        -0.6904
     130    C2      19.376679   18.697304   21.797526 C.3        1 MOL1        -0.2102
     131    H1      18.419016   19.027363   21.385955 H          1 MOL1         0.0687
     132    H2      19.433489   17.617851   21.627861 H          1 MOL1         0.0687
     133    C3      20.525059   19.423521   21.060494 C.3        1 MOL1        -0.1974
     134    H3      20.418769   20.503645   21.209230 H          1 MOL1         0.0689
     135    H4      21.487828   19.142048   21.504399 H          1 MOL1         0.0689
     136    C4      20.522019   19.097833   19.552680 C.3        1 MOL1        -0.2987
     137    H5      19.548250   19.326193   19.102641 H          1 MOL1         0.0700
     138    H6      21.281935   19.686080   19.024489 H          1 MOL1         0.0700
     139    H7      20.736433   18.034347   19.386619 H          1 MOL1         0.0700
@<TRIPOS>BOND
    1     1     2    1
    2     1     3    1
    3     1     4    1
    4     4     5    1
    5     4     6    1
    6     6     7    1
    7     4     8    1
    8     8     9    1
    9     8    10    1
   10    10    11    1
   11     8    12    1
   12    12    13    1
   13    12    14    1
   14    14    15    1
   15     1    16    1
   16    14    16    1
   17    14    17    1
   18    17    18    1
   19    17    19    1
   20    17    20    1
   21    20    21    1
   22    22    23    1
   23    22    24    1
   24    22    25    1
   25    25    26    1
   26    25    27    1
   27    27    28    1
   28    25    29    1
   29    29    30    1
   30    29    31    1
   31    31    32    1
   32     3    33    1
   33    29    33    1
   34    33    34    1
   35    33    35    1
   36    35    36    1
   37    22    37    1
   38    35    37    1
   39    35    38    1
   40    38    39    1
   41    38    40    1
   42    38    41    1
   43    41    42    1
   44    43    44    1
   45    43    45    1
   46    43    46    1
   47    46    47    1
   48    46    48    1
   49    48    49    1
   50    46    50    1
   51    50    51    1
   52    50    52    1
   53    52    53    1
   54    24    54    1
   55    50    54    1
   56    54    55    1
   57    54    56    1
   58    56    57    1
   59    43    58    1
   60    56    58    1
   61    56    59    1
   62    59    60    1
   63    59    61    1
   64    59    62    1
   65    62    63    1
   66    64    65    1
   67    64    66    1
   68    64    67    1
   69    67    68    1
   70    67    69    1
   71    69    70    1
   72    67    71    1
   73    71    72    1
   74    71    73    1
   75    73    74    1
   76    45    75    1
   77    71    75    1
   78    75    76    1
   79    75    77    1
   80    77    78    1
   81    64    79    1
   82    77    79    1
   83    77    80    1
   84    80    81    1
   85    80    82    1
   86    80    83    1
   87    83    84    1
   88    85    86    1
   89    85    87    1
   90    85    88    1
   91    88    89    1
   92    88    90    1
   93    90    91    1
   94    88    92    1
   95    92    93    1
   96    92    94    1
   97    94    95    1
   98    66    96    1
   99    92    96    1
  100    96    97    1
  101    96    98    1
  102    98    99    1
  103    85   100    1
  104    98   100    1
  105    98   101    1
  106   101   102    1
  107   101   103    1
  108   101   104    1
  109   104   105    1
  110   106   107    1
  111    12   108    1
  112   106   108    1
  113   106   109    1
  114   109   110    1
  115   109   111    1
  116   111   112    1
  117   109   113    1
  118   113   114    1
  119   113   115    1
  120   115   116    1
  121    87   117    1
  122   113   117    1
  123   117   118    1
  124   117   119    1
  125   119   120    1
  126   106   121    1
  127   119   121    1
  128   119   122    1
  129   122   123    1
  130   122   124    1
  131   122   125    1
  132   125   126    1
  133   127   128    1
  134   127   129    2
  135   127   130    1
  136   130   131    1
  137   130   132    1
  138   130   133    1
  139   133   134    1
  140   133   135    1
  141   133   136    1
  142   136   137    1
  143   136   138    1
  144   136   139    1
@<TRIPOS>SUBSTRUCTURE
       1 MOL1            1 RESIDUE      1      MOL     
       2 MOL1          139 RESIDUE      1      MOL     
@<SCITEGIC>MOL_PROPERTY
feprocess Rank
SciTegic.value.IntegerValue
3

@<SCITEGIC>MOL_PROPERTY
Conf_Id
SciTegic.value.IntegerValue
41

@<SCITEGIC>MOL_PROPERTY
Probability
SciTegic.value.DoubleValue
16.95

@<SCITEGIC>MOL_PROPERTY
G
SciTegic.value.DoubleValue
483.002

@<SCITEGIC>MOL_PROPERTY
E
SciTegic.value.DoubleValue
305.670

@<SCITEGIC>MOL_PROPERTY
-TS
SciTegic.value.DoubleValue
177.332

@<SCITEGIC>MOL_PROPERTY
U+W
SciTegic.value.DoubleValue
183.159

@<SCITEGIC>MOL_PROPERTY
U
SciTegic.value.DoubleValue
257.741

@<SCITEGIC>MOL_PROPERTY
W
SciTegic.value.DoubleValue
-74.578

@<SCITEGIC>MOL_PROPERTY
W(PB)
SciTegic.value.DoubleValue
-80.538

@<SCITEGIC>MOL_PROPERTY
W(SA)
SciTegic.value.DoubleValue
5.960

@<SCITEGIC>MOL_PROPERTY
Valence
SciTegic.value.DoubleValue
150.396

@<SCITEGIC>MOL_PROPERTY
Coulomb
SciTegic.value.DoubleValue
129.109

@<SCITEGIC>MOL_PROPERTY
VdW
SciTegic.value.DoubleValue
-21.764

@<SCITEGIC>MOL_PROPERTY
VdW6
SciTegic.value.DoubleValue
-177.764

@<SCITEGIC>MOL_PROPERTY
VdW12
SciTegic.value.DoubleValue
155.999

@<SCITEGIC>MOL_PROPERTY
Bond
SciTegic.value.DoubleValue
5.140

@<SCITEGIC>MOL_PROPERTY
Angle
SciTegic.value.DoubleValue
15.463

@<SCITEGIC>MOL_PROPERTY
Pdih
SciTegic.value.DoubleValue
129.768

@<SCITEGIC>MOL_PROPERTY
Idih
SciTegic.value.DoubleValue
0.025

@<SCITEGIC>MOL_PROPERTY
Tether
SciTegic.value.DoubleValue
0.000

@<TRIPOS>MOLECULE
CD_guest-6_fast_vm2_rndm.mol2 : feprocess host+ligand conformer 4
         139         144           2
SMALL
USER_CHARGES
 
@<TRIPOS>ATOM
       1    C1      16.362430   15.335733   20.573369 C.3        1 MOL1         0.2972
       2    H1      15.332537   15.213464   20.214566 H          1 MOL1         0.0751
       3    O1      16.643511   16.714031   20.893750 O.3        1 MOL1        -0.3740
       4    C2      16.641173   14.422409   21.802665 C.3        1 MOL1         0.1003
       5    H2      16.501837   13.387199   21.465022 H          1 MOL1         0.0783
       6    O2      15.736623   14.672221   22.888433 O.3        1 MOL1        -0.5519
       7    H3      15.925947   15.589409   23.212496 H          1 MOL1         0.3769
       8    C3      18.108760   14.568115   22.273858 C.3        1 MOL1         0.1053
       9    H4      18.249026   15.587740   22.658076 H          1 MOL1         0.0783
      10    O3      18.381178   13.617360   23.309414 O.3        1 MOL1        -0.5519
      11    H5      17.613951   13.675874   23.921100 H          1 MOL1         0.3769
      12    C4      19.085656   14.349790   21.093053 C.3        1 MOL1         0.1018
      13    H6      19.075837   13.284900   20.825965 H          1 MOL1         0.0783
      14    C5      18.695663   15.189562   19.845175 C.3        1 MOL1         0.1043
      15    H7      18.840348   16.251315   20.082774 H          1 MOL1         0.0783
      16    O4      17.297423   14.948826   19.539494 O.3        1 MOL1        -0.3740
      17    C6      19.541693   14.901534   18.577109 C.3        1 MOL1         0.0138
      18    H8      20.400804   15.583836   18.571568 H          1 MOL1         0.0794
      19    H9      18.938999   15.146768   17.692497 H          1 MOL1         0.0794
      20    O5      20.006170   13.548460   18.495822 O.3        1 MOL1        -0.5486
      21    H10     20.755157   13.463058   19.130859 H          1 MOL1         0.3769
      22    C7      15.056403   20.373863   21.908454 C.3        1 MOL1         0.2972
      23    H11     14.452768   21.229645   22.235606 H          1 MOL1         0.0751
      24    O6      16.281169   20.797306   21.277924 O.3        1 MOL1        -0.3740
      25    C8      15.382974   19.463903   23.119932 C.3        1 MOL1         0.1003
      26    H12     14.424556   19.081775   23.493650 H          1 MOL1         0.0783
      27    O7      16.016751   20.205676   24.175780 O.3        1 MOL1        -0.5519
      28    H13     16.994593   20.252269   23.993625 H          1 MOL1         0.3769
      29    C9      16.230521   18.246434   22.679220 C.3        1 MOL1         0.1053
      30    H14     17.213120   18.615437   22.359490 H          1 MOL1         0.0783
      31    O8      16.386599   17.334151   23.772529 O.3        1 MOL1        -0.5519
      32    H15     17.092764   17.738135   24.348612 H          1 MOL1         0.3769
      33    C10     15.588565   17.504811   21.478654 C.3        1 MOL1         0.1018
      34    H16     14.760148   16.885808   21.846471 H          1 MOL1         0.0783
      35    C11     15.074756   18.468872   20.370862 C.3        1 MOL1         0.1043
      36    H17     15.951468   18.864924   19.843333 H          1 MOL1         0.0783
      37    O9      14.331022   19.572692   20.950902 O.3        1 MOL1        -0.3740
      38    C12     14.182928   17.777854   19.311782 C.3        1 MOL1         0.0138
      39    H18     14.816546   17.125770   18.695611 H          1 MOL1         0.0794
      40    H19     13.766609   18.548136   18.648826 H          1 MOL1         0.0794
      41    O10     13.129375   17.009928   19.906766 O.3        1 MOL1        -0.5486
      42    H20     12.560355   16.671707   19.181183 H          1 MOL1         0.3769
      43    C13     18.518860   24.085438   20.388260 C.3        1 MOL1         0.2972
      44    H21     18.996125   25.013936   20.049825 H          1 MOL1         0.0751
      45    O11     19.495962   23.129737   20.850179 O.3        1 MOL1        -0.3740
      46    C14     17.461696   24.363634   21.488217 C.3        1 MOL1         0.1003
      47    H22     16.680499   24.979475   21.023815 H          1 MOL1         0.0783
      48    O12     18.013153   25.087572   22.598417 O.3        1 MOL1        -0.5519
      49    H23     18.643054   24.471308   23.050594 H          1 MOL1         0.3769
      50    C15     16.797014   23.049364   21.968420 C.3        1 MOL1         0.1053
      51    H24     17.538659   22.475976   22.541083 H          1 MOL1         0.0783
      52    O13     15.686062   23.385770   22.806639 O.3        1 MOL1        -0.5519
      53    H25     16.050365   23.981725   23.496313 H          1 MOL1         0.3769
      54    C16     16.319516   22.153181   20.790873 C.3        1 MOL1         0.1018
      55    H26     15.328065   22.491282   20.465396 H          1 MOL1         0.0783
      56    C17     17.286104   22.141805   19.569676 C.3        1 MOL1         0.1043
      57    H27     18.127601   21.480828   19.810026 H          1 MOL1         0.0783
      58    O14     17.800089   23.470561   19.299194 O.3        1 MOL1        -0.3740
      59    C18     16.650269   21.581462   18.273297 C.3        1 MOL1         0.0138
      60    H28     16.528716   20.496383   18.383539 H          1 MOL1         0.0794
      61    H29     17.353925   21.742896   17.445933 H          1 MOL1         0.0794
      62    O15     15.386220   22.182349   17.964819 O.3        1 MOL1        -0.5486
      63    H30     14.725033   21.822971   18.594452 H          1 MOL1         0.3769
      64    C19     23.240664   22.506613   22.446716 C.3        1 MOL1         0.2972
      65    H31     24.233385   22.573028   22.910045 H          1 MOL1         0.0751
      66    O16     22.989276   21.182978   21.932842 O.3        1 MOL1        -0.3740
      67    C20     22.147493   22.833418   23.492897 C.3        1 MOL1         0.1003
      68    H32     22.301776   23.866897   23.828327 H          1 MOL1         0.0783
      69    O17     22.265945   21.948462   24.616774 O.3        1 MOL1        -0.5519
      70    H33     22.192013   21.040718   24.257076 H          1 MOL1         0.3769
      71    C21     20.743543   22.740049   22.847153 C.3        1 MOL1         0.1053
      72    H34     20.576936   21.701519   22.537032 H          1 MOL1         0.0783
      73    O18     19.732920   23.112448   23.789287 O.3        1 MOL1        -0.5519
      74    H35     19.371315   22.242208   24.113135 H          1 MOL1         0.3769
      75    C22     20.644777   23.614366   21.573191 C.3        1 MOL1         0.1018
      76    H36     20.548347   24.669697   21.859414 H          1 MOL1         0.0783
      77    C23     21.862933   23.417824   20.627542 C.3        1 MOL1         0.1043
      78    H37     21.749564   22.432997   20.162404 H          1 MOL1         0.0783
      79    O19     23.117875   23.447737   21.357415 O.3        1 MOL1        -0.3740
      80    C24     21.930623   24.458474   19.484616 C.3        1 MOL1         0.0138
      81    H38     21.106073   24.262031   18.786023 H          1 MOL1         0.0794
      82    H39     22.867976   24.313441   18.930914 H          1 MOL1         0.0794
      83    O20     21.843181   25.802320   19.973900 O.3        1 MOL1        -0.5486
      84    H40     21.967163   26.406751   19.209758 H          1 MOL1         0.3769
      85    C25     24.950817   17.658813   20.962901 C.3        1 MOL1         0.2972
      86    H41     25.626310   16.876755   20.592736 H          1 MOL1         0.0751
      87    O21     23.691042   17.118241   21.400559 O.3        1 MOL1        -0.3740
      88    C26     25.573639   18.421401   22.158606 C.3        1 MOL1         0.1003
      89    H42     26.497919   18.892465   21.799608 H          1 MOL1         0.0783
      90    O22     25.889773   17.525299   23.236517 O.3        1 MOL1        -0.5519
      91    H43     25.076188   16.992241   23.426147 H          1 MOL1         0.3769
      92    C27     24.624443   19.544251   22.650660 C.3        1 MOL1         0.1053
      93    H44     23.742260   19.071604   23.104257 H          1 MOL1         0.0783
      94    O23     25.312706   20.329693   23.628349 O.3        1 MOL1        -0.5519
      95    H45     25.714040   19.679645   24.246219 H          1 MOL1         0.3769
      96    C28     24.140115   20.444239   21.480062 C.3        1 MOL1         0.1018
      97    H46     24.960876   21.111248   21.186411 H          1 MOL1         0.0783
      98    C29     23.680468   19.618895   20.244691 C.3        1 MOL1         0.1043
      99    H47     22.741352   19.112270   20.501039 H          1 MOL1         0.0783
     100    O24     24.685515   18.626619   19.924719 O.3        1 MOL1        -0.3740
     101    C30     23.395868   20.461492   18.974278 C.3        1 MOL1         0.0138
     102    H48     22.339970   20.758557   18.986712 H          1 MOL1         0.0794
     103    H49     23.528808   19.821113   18.092143 H          1 MOL1         0.0794
     104    O25     24.227504   21.624837   18.866528 O.3        1 MOL1        -0.5486
     105    H50     24.019934   22.207399   19.631817 H          1 MOL1         0.3769
     106    C31     21.383111   13.756694   21.668169 C.3        1 MOL1         0.2972
     107    H51     20.936369   12.756263   21.734022 H          1 MOL1         0.0751
     108    O26     20.381132   14.783346   21.539770 O.3        1 MOL1        -0.3740
     109    C32     22.206355   14.049896   22.943719 C.3        1 MOL1         0.1003
     110    H52     23.024760   13.319664   22.989290 H          1 MOL1         0.0783
     111    O27     21.382385   13.917773   24.112902 O.3        1 MOL1        -0.5519
     112    H53     20.454120   14.110479   23.831693 H          1 MOL1         0.3769
     113    C33     22.825415   15.463867   22.872898 C.3        1 MOL1         0.1053
     114    H54     22.004392   16.189904   22.923218 H          1 MOL1         0.0783
     115    O28     23.704302   15.659509   23.985675 O.3        1 MOL1        -0.5519
     116    H55     23.197463   15.341060   24.765783 H          1 MOL1         0.3769
     117    C34     23.594904   15.691193   21.546883 C.3        1 MOL1         0.1018
     118    H56     24.580862   15.214501   21.626707 H          1 MOL1         0.0783
     119    C35     22.835804   15.166335   20.293059 C.3        1 MOL1         0.1043
     120    H57     22.021694   15.871744   20.083947 H          1 MOL1         0.0783
     121    O29     22.268681   13.851903   20.534023 O.3        1 MOL1        -0.3740
     122    C36     23.713274   15.096294   19.020646 C.3        1 MOL1         0.0138
     123    H58     23.926381   16.120851   18.686913 H          1 MOL1         0.0794
     124    H59     23.136912   14.607569   18.223596 H          1 MOL1         0.0794
     125    O30     24.941229   14.394318   19.250116 O.3        1 MOL1        -0.5486
     126    H60     25.409514   14.323868   18.389709 H          1 MOL1         0.3769
     127    C1      19.249706   19.300041   24.117979 C.2        1 MOL1         0.6021
     128    O1      18.854419   20.442650   23.976577 O.co2      1 MOL1        -0.6904
     129    O2      18.682030   18.485999   24.819245 O.co2      1 MOL1        -0.6904
     130    C2      20.473330   18.831473   23.329551 C.3        1 MOL1        -0.2102
     131    H1      20.961534   18.052501   23.926345 H          1 MOL1         0.0687
     132    H2      21.185066   19.656752   23.254242 H          1 MOL1         0.0687
     133    C3      20.149838   18.269006   21.920808 C.3        1 MOL1        -0.1974
     134    H3      21.028934   17.746823   21.525795 H          1 MOL1         0.0689
     135    H4      19.352366   17.521135   22.008450 H          1 MOL1         0.0689
     136    C4      19.731286   19.362793   20.918516 C.3        1 MOL1        -0.2987
     137    H5      20.537712   20.090421   20.768833 H          1 MOL1         0.0700
     138    H6      19.478119   18.923549   19.945685 H          1 MOL1         0.0700
     139    H7      18.853229   19.906169   21.286631 H          1 MOL1         0.0700
@<TRIPOS>BOND
    1     1     2    1
    2     1     3    1
    3     1     4    1
    4     4     5    1
    5     4     6    1
    6     6     7    1
    7     4     8    1
    8     8     9    1
    9     8    10    1
   10    10    11    1
   11     8    12    1
   12    12    13    1
   13    12    14    1
   14    14    15    1
   15     1    16    1
   16    14    16    1
   17    14    17    1
   18    17    18    1
   19    17    19    1
   20    17    20    1
   21    20    21    1
   22    22    23    1
   23    22    24    1
   24    22    25    1
   25    25    26    1
   26    25    27    1
   27    27    28    1
   28    25    29    1
   29    29    30    1
   30    29    31    1
   31    31    32    1
   32     3    33    1
   33    29    33    1
   34    33    34    1
   35    33    35    1
   36    35    36    1
   37    22    37    1
   38    35    37    1
   39    35    38    1
   40    38    39    1
   41    38    40    1
   42    38    41    1
   43    41    42    1
   44    43    44    1
   45    43    45    1
   46    43    46    1
   47    46    47    1
   48    46    48    1
   49    48    49    1
   50    46    50    1
   51    50    51    1
   52    50    52    1
   53    52    53    1
   54    24    54    1
   55    50    54    1
   56    54    55    1
   57    54    56    1
   58    56    57    1
   59    43    58    1
   60    56    58    1
   61    56    59    1
   62    59    60    1
   63    59    61    1
   64    59    62    1
   65    62    63    1
   66    64    65    1
   67    64    66    1
   68    64    67    1
   69    67    68    1
   70    67    69    1
   71    69    70    1
   72    67    71    1
   73    71    72    1
   74    71    73    1
   75    73    74    1
   76    45    75    1
   77    71    75    1
   78    75    76    1
   79    75    77    1
   80    77    78    1
   81    64    79    1
   82    77    79    1
   83    77    80    1
   84    80    81    1
   85    80    82    1
   86    80    83    1
   87    83    84    1
   88    85    86    1
   89    85    87    1
   90    85    88    1
   91    88    89    1
   92    88    90    1
   93    90    91    1
   94    88    92    1
   95    92    93    1
   96    92    94    1
   97    94    95    1
   98    66    96    1
   99    92    96    1
  100    96    97    1
  101    96    98    1
  102    98    99    1
  103    85   100    1
  104    98   100    1
  105    98   101    1
  106   101   102    1
  107   101   103    1
  108   101   104    1
  109   104   105    1
  110   106   107    1
  111    12   108    1
  112   106   108    1
  113   106   109    1
  114   109   110    1
  115   109   111    1
  116   111   112    1
  117   109   113    1
  118   113   114    1
  119   113   115    1
  120   115   116    1
  121    87   117    1
  122   113   117    1
  123   117   118    1
  124   117   119    1
  125   119   120    1
  126   106   121    1
  127   119   121    1
  128   119   122    1
  129   122   123    1
  130   122   124    1
  131   122   125    1
  132   125   126    1
  133   127   128    1
  134   127   129    2
  135   127   130    1
  136   130   131    1
  137   130   132    1
  138   130   133    1
  139   133   134    1
  140   133   135    1
  141   133   136    1
  142   136   137    1
  143   136   138    1
  144   136   139    1
@<TRIPOS>SUBSTRUCTURE
       1 MOL1            1 RESIDUE      1      MOL     
       2 MOL1          139 RESIDUE      1      MOL     
@<SCITEGIC>MOL_PROPERTY
feprocess Rank
SciTegic.value.IntegerValue
4

@<SCITEGIC>MOL_PROPERTY
Conf_Id
SciTegic.value.IntegerValue
644

@<SCITEGIC>MOL_PROPERTY
Probability
SciTegic.value.DoubleValue
2.83

@<SCITEGIC>MOL_PROPERTY
G
SciTegic.value.DoubleValue
484.069

@<SCITEGIC>MOL_PROPERTY
E
SciTegic.value.DoubleValue
306.266

@<SCITEGIC>MOL_PROPERTY
-TS
SciTegic.value.DoubleValue
177.803

@<SCITEGIC>MOL_PROPERTY
U+W
SciTegic.value.DoubleValue
183.755

@<SCITEGIC>MOL_PROPERTY
U
SciTegic.value.DoubleValue
258.091

@<SCITEGIC>MOL_PROPERTY
W
SciTegic.value.DoubleValue
-74.337

@<SCITEGIC>MOL_PROPERTY
W(PB)
SciTegic.value.DoubleValue
-80.310

@<SCITEGIC>MOL_PROPERTY
W(SA)
SciTegic.value.DoubleValue
5.973

@<SCITEGIC>MOL_PROPERTY
Valence
SciTegic.value.DoubleValue
150.704

@<SCITEGIC>MOL_PROPERTY
Coulomb
SciTegic.value.DoubleValue
129.840

@<SCITEGIC>MOL_PROPERTY
VdW
SciTegic.value.DoubleValue
-22.452

@<SCITEGIC>MOL_PROPERTY
VdW6
SciTegic.value.DoubleValue
-179.292

@<SCITEGIC>MOL_PROPERTY
VdW12
SciTegic.value.DoubleValue
156.840

@<SCITEGIC>MOL_PROPERTY
Bond
SciTegic.value.DoubleValue
5.138

@<SCITEGIC>MOL_PROPERTY
Angle
SciTegic.value.DoubleValue
15.447

@<SCITEGIC>MOL_PROPERTY
Pdih
SciTegic.value.DoubleValue
130.112

@<SCITEGIC>MOL_PROPERTY
Idih
SciTegic.value.DoubleValue
0.007

@<SCITEGIC>MOL_PROPERTY
Tether
SciTegic.value.DoubleValue
0.000

@<TRIPOS>MOLECULE
CD_guest-6_fast_vm2_rndm.mol2 : feprocess host+ligand conformer 5
         139         144           2
SMALL
USER_CHARGES
 
@<TRIPOS>ATOM
       1    C1      16.103500   15.080199   21.526941 C.3        1 MOL1         0.2972
       2    H1      15.011612   14.974832   21.564903 H          1 MOL1         0.0751
       3    O1      16.507032   16.458179   21.417702 O.3        1 MOL1        -0.3740
       4    C2      16.734989   14.497026   22.812200 C.3        1 MOL1         0.1003
       5    H2      16.510343   13.422775   22.837406 H          1 MOL1         0.0783
       6    O2      16.180987   15.127039   23.978192 O.3        1 MOL1        -0.5519
       7    H3      15.871883   16.025036   23.700853 H          1 MOL1         0.3769
       8    C3      18.270120   14.667076   22.780173 C.3        1 MOL1         0.1053
       9    H4      18.489296   15.740604   22.840593 H          1 MOL1         0.0783
      10    O3      18.848903   13.997939   23.905016 O.3        1 MOL1        -0.5519
      11    H5      18.296353   14.271155   24.671236 H          1 MOL1         0.3769
      12    C4      18.880506   14.117475   21.465670 C.3        1 MOL1         0.1018
      13    H6      18.948479   13.024266   21.541979 H          1 MOL1         0.0783
      14    C5      18.079730   14.524065   20.193688 C.3        1 MOL1         0.1043
      15    H7      18.295685   15.581067   19.992442 H          1 MOL1         0.0783
      16    O4      16.650873   14.367055   20.399234 O.3        1 MOL1        -0.3740
      17    C6      18.483986   13.729401   18.929261 C.3        1 MOL1         0.0138
      18    H8      19.491491   14.045006   18.626273 H          1 MOL1         0.0794
      19    H9      17.799534   13.996928   18.113030 H          1 MOL1         0.0794
      20    O5      18.464642   12.314005   19.152658 O.3        1 MOL1        -0.5486
      21    H10     18.665729   11.874797   18.297573 H          1 MOL1         0.3769
      22    C7      14.994869   20.250409   20.566088 C.3        1 MOL1         0.2972
      23    H11     14.377421   21.092075   20.227435 H          1 MOL1         0.0751
      24    O6      16.324451   20.687257   20.916627 O.3        1 MOL1        -0.3740
      25    C8      14.328316   19.511351   21.763583 C.3        1 MOL1         0.1003
      26    H12     13.365737   19.127878   21.400988 H          1 MOL1         0.0783
      27    O7      14.080354   20.380489   22.878349 O.3        1 MOL1        -0.5519
      28    H13     14.966321   20.652599   23.229333 H          1 MOL1         0.3769
      29    C9      15.180607   18.296432   22.204065 C.3        1 MOL1         0.1053
      30    H14     16.130367   18.668590   22.612225 H          1 MOL1         0.0783
      31    O8      14.478432   17.552555   23.205952 O.3        1 MOL1        -0.5519
      32    H15     14.133958   18.226922   23.832878 H          1 MOL1         0.3769
      33    C10     15.492307   17.382801   20.994618 C.3        1 MOL1         0.1018
      34    H16     14.567631   16.872846   20.693999 H          1 MOL1         0.0783
      35    C11     16.046444   18.182565   19.784265 C.3        1 MOL1         0.1043
      36    H17     17.033134   18.580395   20.054153 H          1 MOL1         0.0783
      37    O9      15.142660   19.282321   19.500512 O.3        1 MOL1        -0.3740
      38    C12     16.247079   17.345857   18.493401 C.3        1 MOL1         0.0138
      39    H18     17.267533   16.942296   18.498907 H          1 MOL1         0.0794
      40    H19     16.177254   18.017328   17.627297 H          1 MOL1         0.0794
      41    O10     15.310383   16.269651   18.359507 O.3        1 MOL1        -0.5486
      42    H20     15.594266   15.562046   18.983967 H          1 MOL1         0.3769
      43    C13     18.676325   23.845116   22.115693 C.3        1 MOL1         0.2972
      44    H21     19.110889   24.778735   22.494467 H          1 MOL1         0.0751
      45    O11     19.662108   23.029977   21.452635 O.3        1 MOL1        -0.3740
      46    C14     18.041982   23.045502   23.281552 C.3        1 MOL1         0.1003
      47    H22     17.222531   23.659482   23.676214 H          1 MOL1         0.0783
      48    O12     18.989491   22.821789   24.338790 O.3        1 MOL1        -0.5519
      49    H23     19.539914   22.023569   24.110119 H          1 MOL1         0.3769
      50    C15     17.427815   21.722299   22.765387 C.3        1 MOL1         0.1053
      51    H24     18.247047   21.080827   22.415967 H          1 MOL1         0.0783
      52    O13     16.715793   21.066476   23.821226 O.3        1 MOL1        -0.5519
      53    H25     17.422957   20.642318   24.381569 H          1 MOL1         0.3769
      54    C16     16.471931   21.965107   21.569099 C.3        1 MOL1         0.1018
      55    H26     15.517710   22.350791   21.950104 H          1 MOL1         0.0783
      56    C17     17.053862   22.950662   20.515113 C.3        1 MOL1         0.1043
      57    H27     17.841591   22.420487   19.965507 H          1 MOL1         0.0783
      58    O14     17.628239   24.117819   21.160517 O.3        1 MOL1        -0.3740
      59    C18     16.015696   23.427173   19.471266 C.3        1 MOL1         0.0138
      60    H28     15.776493   22.584334   18.808900 H          1 MOL1         0.0794
      61    H29     16.476262   24.207954   18.851238 H          1 MOL1         0.0794
      62    O15     14.816999   23.919277   20.083310 O.3        1 MOL1        -0.5486
      63    H30     14.243616   24.277497   19.370882 H          1 MOL1         0.3769
      64    C19     23.639362   22.798307   20.565322 C.3        1 MOL1         0.2972
      65    H31     24.682472   22.882350   20.234807 H          1 MOL1         0.0751
      66    O16     23.310031   21.441959   20.929061 O.3        1 MOL1        -0.3740
      67    C20     23.342717   23.763424   21.742610 C.3        1 MOL1         0.1003
      68    H32     23.486763   24.781548   21.358139 H          1 MOL1         0.0783
      69    O17     24.237800   23.560817   22.846728 O.3        1 MOL1        -0.5519
      70    H33     24.026255   22.668441   23.221153 H          1 MOL1         0.3769
      71    C21     21.869819   23.642251   22.206248 C.3        1 MOL1         0.1053
      72    H34     21.744137   22.671709   22.705777 H          1 MOL1         0.0783
      73    O18     21.597445   24.705782   23.125418 O.3        1 MOL1        -0.5519
      74    H35     22.283961   24.630446   23.822802 H          1 MOL1         0.3769
      75    C22     20.863870   23.697220   21.022107 C.3        1 MOL1         0.1018
      76    H36     20.672103   24.746616   20.766610 H          1 MOL1         0.0783
      77    C23     21.342018   22.937569   19.750215 C.3        1 MOL1         0.1043
      78    H37     21.196426   21.863925   19.921697 H          1 MOL1         0.0783
      79    O19     22.748187   23.185093   19.499036 O.3        1 MOL1        -0.3740
      80    C24     20.539578   23.286766   18.472137 C.3        1 MOL1         0.0138
      81    H38     19.546948   22.824629   18.545022 H          1 MOL1         0.0794
      82    H39     21.044076   22.828069   17.611434 H          1 MOL1         0.0794
      83    O20     20.402839   24.698182   18.264417 O.3        1 MOL1        -0.5486
      84    H40     19.751263   25.031960   18.917880 H          1 MOL1         0.3769
      85    C25     24.738475   17.793793   22.172852 C.3        1 MOL1         0.2972
      86    H41     25.309373   16.932343   22.542343 H          1 MOL1         0.0751
      87    O21     23.478277   17.393574   21.600059 O.3        1 MOL1        -0.3740
      88    C26     24.443503   18.778458   23.330204 C.3        1 MOL1         0.1003
      89    H42     25.405676   19.148398   23.706597 H          1 MOL1         0.0783
      90    O22     23.752174   18.096572   24.390738 O.3        1 MOL1        -0.5519
      91    H43     23.623041   17.163450   24.097731 H          1 MOL1         0.3769
      92    C27     23.635153   19.991942   22.802410 C.3        1 MOL1         0.1053
      93    H44     22.654889   19.630798   22.470165 H          1 MOL1         0.0783
      94    O23     23.447527   20.965648   23.835349 O.3        1 MOL1        -0.5519
      95    H45     22.503102   20.834067   24.125228 H          1 MOL1         0.3769
      96    C28     24.321741   20.645411   21.575234 C.3        1 MOL1         0.1018
      97    H46     25.172622   21.248031   21.918226 H          1 MOL1         0.0783
      98    C29     24.794385   19.601999   20.522752 C.3        1 MOL1         0.1043
      99    H47     23.902391   19.215208   20.013854 H          1 MOL1         0.0783
     100    O24     25.486621   18.499377   21.161267 O.3        1 MOL1        -0.3740
     101    C30     25.717282   20.196977   19.432530 C.3        1 MOL1         0.0138
     102    H48     25.115070   20.848263   18.784765 H          1 MOL1         0.0794
     103    H49     26.095840   19.376685   18.808016 H          1 MOL1         0.0794
     104    O25     26.806550   20.941433   19.992048 O.3        1 MOL1        -0.5486
     105    H50     27.388655   21.220131   19.251702 H          1 MOL1         0.3769
     106    C31     21.280804   13.899836   20.975062 C.3        1 MOL1         0.2972
     107    H51     20.953839   12.892331   20.687180 H          1 MOL1         0.0751
     108    O26     20.173323   14.736792   21.353257 O.3        1 MOL1        -0.3740
     109    C32     22.254031   13.851348   22.182186 C.3        1 MOL1         0.1003
     110    H52     23.130662   13.267204   21.873378 H          1 MOL1         0.0783
     111    O27     21.644042   13.216959   23.317660 O.3        1 MOL1        -0.5519
     112    H53     20.746737   13.620480   23.437025 H          1 MOL1         0.3769
     113    C33     22.735950   15.277742   22.552335 C.3        1 MOL1         0.1053
     114    H54     21.870086   15.851985   22.909474 H          1 MOL1         0.0783
     115    O28     23.717835   15.188234   23.589585 O.3        1 MOL1        -0.5519
     116    H55     23.369646   14.508078   24.209779 H          1 MOL1         0.3769
     117    C34     23.315391   15.997050   21.305158 C.3        1 MOL1         0.1018
     118    H56     24.269964   15.530068   21.030040 H          1 MOL1         0.0783
     119    C35     22.342280   15.921340   20.099005 C.3        1 MOL1         0.1043
     120    H57     21.445881   16.506472   20.342626 H          1 MOL1         0.0783
     121    O29     21.968116   14.539692   19.875543 O.3        1 MOL1        -0.3740
     122    C36     22.916638   16.513529   18.786792 C.3        1 MOL1         0.0138
     123    H58     22.766090   17.600887   18.805949 H          1 MOL1         0.0794
     124    H59     22.333839   16.124740   17.941285 H          1 MOL1         0.0794
     125    O30     24.308824   16.226584   18.603384 O.3        1 MOL1        -0.5486
     126    H60     24.800982   16.730162   19.288927 H          1 MOL1         0.3769
     127    C1      19.894480   19.608774   24.092264 C.2        1 MOL1         0.6021
     128    O1      20.662549   20.544403   23.961243 O.co2      1 MOL1        -0.6904
     129    O2      18.905061   19.661337   24.796685 O.co2      1 MOL1        -0.6904
     130    C2      20.115613   18.338475   23.270676 C.3        1 MOL1        -0.2102
     131    H1      19.710184   17.504274   23.854498 H          1 MOL1         0.0687
     132    H2      21.190341   18.157754   23.181000 H          1 MOL1         0.0687
     133    C3      19.445641   18.356789   21.871376 C.3        1 MOL1        -0.1974
     134    H3      19.442395   17.342562   21.456016 H          1 MOL1         0.0689
     135    H4      18.395907   18.655862   21.981698 H          1 MOL1         0.0689
     136    C4      20.154720   19.296649   20.876093 C.3        1 MOL1        -0.2987
     137    H5      21.189319   18.976707   20.701694 H          1 MOL1         0.0700
     138    H6      19.631301   19.309852   19.912140 H          1 MOL1         0.0700
     139    H7      20.179532   20.321468   21.265222 H          1 MOL1         0.0700
@<TRIPOS>BOND
    1     1     2    1
    2     1     3    1
    3     1     4    1
    4     4     5    1
    5     4     6    1
    6     6     7    1
    7     4     8    1
    8     8     9    1
    9     8    10    1
   10    10    11    1
   11     8    12    1
   12    12    13    1
   13    12    14    1
   14    14    15    1
   15     1    16    1
   16    14    16    1
   17    14    17    1
   18    17    18    1
   19    17    19    1
   20    17    20    1
   21    20    21    1
   22    22    23    1
   23    22    24    1
   24    22    25    1
   25    25    26    1
   26    25    27    1
   27    27    28    1
   28    25    29    1
   29    29    30    1
   30    29    31    1
   31    31    32    1
   32     3    33    1
   33    29    33    1
   34    33    34    1
   35    33    35    1
   36    35    36    1
   37    22    37    1
   38    35    37    1
   39    35    38    1
   40    38    39    1
   41    38    40    1
   42    38    41    1
   43    41    42    1
   44    43    44    1
   45    43    45    1
   46    43    46    1
   47    46    47    1
   48    46    48    1
   49    48    49    1
   50    46    50    1
   51    50    51    1
   52    50    52    1
   53    52    53    1
   54    24    54    1
   55    50    54    1
   56    54    55    1
   57    54    56    1
   58    56    57    1
   59    43    58    1
   60    56    58    1
   61    56    59    1
   62    59    60    1
   63    59    61    1
   64    59    62    1
   65    62    63    1
   66    64    65    1
   67    64    66    1
   68    64    67    1
   69    67    68    1
   70    67    69    1
   71    69    70    1
   72    67    71    1
   73    71    72    1
   74    71    73    1
   75    73    74    1
   76    45    75    1
   77    71    75    1
   78    75    76    1
   79    75    77    1
   80    77    78    1
   81    64    79    1
   82    77    79    1
   83    77    80    1
   84    80    81    1
   85    80    82    1
   86    80    83    1
   87    83    84    1
   88    85    86    1
   89    85    87    1
   90    85    88    1
   91    88    89    1
   92    88    90    1
   93    90    91    1
   94    88    92    1
   95    92    93    1
   96    92    94    1
   97    94    95    1
   98    66    96    1
   99    92    96    1
  100    96    97    1
  101    96    98    1
  102    98    99    1
  103    85   100    1
  104    98   100    1
  105    98   101    1
  106   101   102    1
  107   101   103    1
  108   101   104    1
  109   104   105    1
  110   106   107    1
  111    12   108    1
  112   106   108    1
  113   106   109    1
  114   109   110    1
  115   109   111    1
  116   111   112    1
  117   109   113    1
  118   113   114    1
  119   113   115    1
  120   115   116    1
  121    87   117    1
  122   113   117    1
  123   117   118    1
  124   117   119    1
  125   119   120    1
  126   106   121    1
  127   119   121    1
  128   119   122    1
  129   122   123    1
  130   122   124    1
  131   122   125    1
  132   125   126    1
  133   127   128    1
  134   127   129    2
  135   127   130    1
  136   130   131    1
  137   130   132    1
  138   130   133    1
  139   133   134    1
  140   133   135    1
  141   133   136    1
  142   136   137    1
  143   136   138    1
  144   136   139    1
@<TRIPOS>SUBSTRUCTURE
       1 MOL1            1 RESIDUE      1      MOL     
       2 MOL1          139 RESIDUE      1      MOL     
@<SCITEGIC>MOL_PROPERTY
feprocess Rank
SciTegic.value.IntegerValue
5

@<SCITEGIC>MOL_PROPERTY
Conf_Id
SciTegic.value.IntegerValue
948

@<SCITEGIC>MOL_PROPERTY
Probability
SciTegic.value.DoubleValue
2.70

@<SCITEGIC>MOL_PROPERTY
G
SciTegic.value.DoubleValue
484.098

@<SCITEGIC>MOL_PROPERTY
E
SciTegic.value.DoubleValue
306.664

@<SCITEGIC>MOL_PROPERTY
-TS
SciTegic.value.DoubleValue
177.434

@<SCITEGIC>MOL_PROPERTY
U+W
SciTegic.value.DoubleValue
184.153

@<SCITEGIC>MOL_PROPERTY
U
SciTegic.value.DoubleValue
260.661

@<SCITEGIC>MOL_PROPERTY
W
SciTegic.value.DoubleValue
-76.508

@<SCITEGIC>MOL_PROPERTY
W(PB)
SciTegic.value.DoubleValue
-82.481

@<SCITEGIC>MOL_PROPERTY
W(SA)
SciTegic.value.DoubleValue
5.973

@<SCITEGIC>MOL_PROPERTY
Valence
SciTegic.value.DoubleValue
151.888

@<SCITEGIC>MOL_PROPERTY
Coulomb
SciTegic.value.DoubleValue
130.520

@<SCITEGIC>MOL_PROPERTY
VdW
SciTegic.value.DoubleValue
-21.747

@<SCITEGIC>MOL_PROPERTY
VdW6
SciTegic.value.DoubleValue
-178.782

@<SCITEGIC>MOL_PROPERTY
VdW12
SciTegic.value.DoubleValue
157.034

@<SCITEGIC>MOL_PROPERTY
Bond
SciTegic.value.DoubleValue
5.174

@<SCITEGIC>MOL_PROPERTY
Angle
SciTegic.value.DoubleValue
15.137

@<SCITEGIC>MOL_PROPERTY
Pdih
SciTegic.value.DoubleValue
131.565

@<SCITEGIC>MOL_PROPERTY
Idih
SciTegic.value.DoubleValue
0.013

@<SCITEGIC>MOL_PROPERTY
Tether
SciTegic.value.DoubleValue
0.000

@<TRIPOS>MOLECULE
CD_guest-6_fast_vm2_rndm.mol2 : feprocess host+ligand conformer 6
         139         144           2
SMALL
USER_CHARGES
 
@<TRIPOS>ATOM
       1    C1      16.102935   15.039046   21.507136 C.3        1 MOL1         0.2972
       2    H1      15.016298   14.897579   21.567786 H          1 MOL1         0.0751
       3    O1      16.462928   16.432041   21.462977 O.3        1 MOL1        -0.3740
       4    C2      16.785240   14.412542   22.745038 C.3        1 MOL1         0.1003
       5    H2      16.581180   13.334036   22.727158 H          1 MOL1         0.0783
       6    O2      16.251610   14.977631   23.953413 O.3        1 MOL1        -0.5519
       7    H3      15.967308   15.901302   23.740013 H          1 MOL1         0.3769
       8    C3      18.316879   14.611691   22.680890 C.3        1 MOL1         0.1053
       9    H4      18.526535   15.683264   22.802957 H          1 MOL1         0.0783
      10    O3      18.933001   13.878663   23.744825 O.3        1 MOL1        -0.5519
      11    H5      18.423716   14.124698   24.548998 H          1 MOL1         0.3769
      12    C4      18.898276   14.151445   21.319253 C.3        1 MOL1         0.1018
      13    H6      18.987796   13.057086   21.328109 H          1 MOL1         0.0783
      14    C5      18.054581   14.616770   20.096406 C.3        1 MOL1         0.1043
      15    H7      18.235229   15.691078   19.958327 H          1 MOL1         0.0783
      16    O4      16.638140   14.402400   20.329580 O.3        1 MOL1        -0.3740
      17    C6      18.445455   13.917774   18.772559 C.3        1 MOL1         0.0138
      18    H8      19.432609   14.286350   18.462211 H          1 MOL1         0.0794
      19    H9      17.728185   14.213155   17.995078 H          1 MOL1         0.0794
      20    O5      18.478494   12.491193   18.904287 O.3        1 MOL1        -0.5486
      21    H10     18.660544   12.114051   18.015976 H          1 MOL1         0.3769
      22    C7      14.885972   20.226856   20.746765 C.3        1 MOL1         0.2972
      23    H11     14.231988   21.066571   20.479413 H          1 MOL1         0.0751
      24    O6      16.252865   20.664626   20.899249 O.3        1 MOL1        -0.3740
      25    C8      14.377479   19.509107   22.033635 C.3        1 MOL1         0.1003
      26    H12     13.367251   19.142598   21.809635 H          1 MOL1         0.0783
      27    O7      14.301559   20.387756   23.165807 O.3        1 MOL1        -0.5519
      28    H13     15.235117   20.620265   23.402551 H          1 MOL1         0.3769
      29    C9      15.255840   18.280567   22.371675 C.3        1 MOL1         0.1053
      30    H14     16.255410   18.636427   22.652678 H          1 MOL1         0.0783
      31    O8      14.674237   17.555641   23.461095 O.3        1 MOL1        -0.5519
      32    H15     14.421138   18.239949   24.119929 H          1 MOL1         0.3769
      33    C10     15.405464   17.351464   21.145697 C.3        1 MOL1         0.1018
      34    H16     14.447878   16.843545   20.971248 H          1 MOL1         0.0783
      35    C11     15.812198   18.136206   19.870140 C.3        1 MOL1         0.1043
      36    H17     16.825505   18.526953   20.022029 H          1 MOL1         0.0783
      37    O9      14.887666   19.240839   19.687059 O.3        1 MOL1        -0.3740
      38    C12     15.857172   17.290645   18.570996 C.3        1 MOL1         0.0138
      39    H18     16.865110   16.868385   18.468800 H          1 MOL1         0.0794
      40    H19     15.705106   17.959662   17.713575 H          1 MOL1         0.0794
      41    O10     14.893184   16.231301   18.547480 O.3        1 MOL1        -0.5486
      42    H20     15.268736   15.493848   19.081900 H          1 MOL1         0.3769
      43    C13     18.753530   23.803237   21.928695 C.3        1 MOL1         0.2972
      44    H21     19.190937   24.736341   22.302290 H          1 MOL1         0.0751
      45    O11     19.681402   23.067411   21.102986 O.3        1 MOL1        -0.3740
      46    C14     18.303837   22.907613   23.114432 C.3        1 MOL1         0.1003
      47    H22     17.557529   23.476192   23.683593 H          1 MOL1         0.0783
      48    O12     19.406039   22.589661   23.981956 O.3        1 MOL1        -0.5519
      49    H23     19.576087   21.613077   23.909622 H          1 MOL1         0.3769
      50    C15     17.625185   21.619424   22.596023 C.3        1 MOL1         0.1053
      51    H24     18.388668   21.034328   22.072124 H          1 MOL1         0.0783
      52    O13     17.106310   20.863530   23.697141 O.3        1 MOL1        -0.5519
      53    H25     17.900779   20.403923   24.077699 H          1 MOL1         0.3769
      54    C16     16.505202   21.916358   21.571659 C.3        1 MOL1         0.1018
      55    H26     15.622224   22.296459   22.100374 H          1 MOL1         0.0783
      56    C17     16.956441   22.942115   20.495193 C.3        1 MOL1         0.1043
      57    H27     17.684374   22.447631   19.838341 H          1 MOL1         0.0783
      58    O14     17.585329   24.087668   21.126494 O.3        1 MOL1        -0.3740
      59    C18     15.799644   23.446136   19.599415 C.3        1 MOL1         0.0138
      60    H28     15.491899   22.626461   18.936237 H          1 MOL1         0.0794
      61    H29     16.178318   24.256399   18.962077 H          1 MOL1         0.0794
      62    O15     14.675946   23.898062   20.365759 O.3        1 MOL1        -0.5486
      63    H30     14.019374   24.273498   19.739191 H          1 MOL1         0.3769
      64    C19     23.709911   22.752183   20.519710 C.3        1 MOL1         0.2972
      65    H31     24.771974   22.799043   20.249985 H          1 MOL1         0.0751
      66    O16     23.333877   21.429320   20.959791 O.3        1 MOL1        -0.3740
      67    C20     23.361587   23.802010   21.602935 C.3        1 MOL1         0.1003
      68    H32     23.538991   24.788077   21.153875 H          1 MOL1         0.0783
      69    O17     24.195732   23.672211   22.764063 O.3        1 MOL1        -0.5519
      70    H33     23.935461   22.825351   23.206927 H          1 MOL1         0.3769
      71    C21     21.863741   23.725663   21.989128 C.3        1 MOL1         0.1053
      72    H34     21.700197   22.792424   22.545569 H          1 MOL1         0.0783
      73    O18     21.569467   24.854281   22.819959 O.3        1 MOL1        -0.5519
      74    H35     22.226732   24.821255   23.548397 H          1 MOL1         0.3769
      75    C22     20.922849   23.713291   20.745855 C.3        1 MOL1         0.1018
      76    H36     20.749120   24.747061   20.423194 H          1 MOL1         0.0783
      77    C23     21.473651   22.884128   19.547324 C.3        1 MOL1         0.1043
      78    H37     21.294672   21.823698   19.759368 H          1 MOL1         0.0783
      79    O19     22.898526   23.083398   19.375450 O.3        1 MOL1        -0.3740
      80    C24     20.760080   23.183222   18.206423 C.3        1 MOL1         0.0138
      81    H38     19.729496   22.808176   18.268321 H          1 MOL1         0.0794
      82    H39     21.263287   22.615191   17.412832 H          1 MOL1         0.0794
      83    O20     20.752564   24.579027   17.880426 O.3        1 MOL1        -0.5486
      84    H40     20.105864   25.019745   18.471785 H          1 MOL1         0.3769
      85    C25     24.524694   17.836054   22.560751 C.3        1 MOL1         0.2972
      86    H41     25.030360   16.987760   23.038196 H          1 MOL1         0.0751
      87    O21     23.298660   17.428479   21.926261 O.3        1 MOL1        -0.3740
      88    C26     24.216091   18.925444   23.617310 C.3        1 MOL1         0.1003
      89    H42     25.180110   19.269561   24.013328 H          1 MOL1         0.0783
      90    O22     23.434491   18.398501   24.700073 O.3        1 MOL1        -0.5519
      91    H43     22.543936   18.143793   24.327281 H          1 MOL1         0.3769
      92    C27     23.508714   20.139164   22.973320 C.3        1 MOL1         0.1053
      93    H44     22.511083   19.818428   22.648674 H          1 MOL1         0.0783
      94    O23     23.384387   21.178568   23.949201 O.3        1 MOL1        -0.5519
      95    H45     22.898038   20.764397   24.697421 H          1 MOL1         0.3769
      96    C28     24.280508   20.663297   21.733179 C.3        1 MOL1         0.1018
      97    H46     25.128528   21.270025   22.074011 H          1 MOL1         0.0783
      98    C29     24.779796   19.524524   20.798939 C.3        1 MOL1         0.1043
      99    H47     23.904214   19.150136   20.258724 H          1 MOL1         0.0783
     100    O24     25.368568   18.432672   21.552023 O.3        1 MOL1        -0.3740
     101    C30     25.802844   19.994166   19.736047 C.3        1 MOL1         0.0138
     102    H48     25.305873   20.694937   19.051682 H          1 MOL1         0.0794
     103    H49     26.107004   19.124522   19.138523 H          1 MOL1         0.0794
     104    O25     26.958432   20.610658   20.319506 O.3        1 MOL1        -0.5486
     105    H50     26.683499   21.451093   20.740366 H          1 MOL1         0.3769
     106    C31     21.283063   14.009346   20.735286 C.3        1 MOL1         0.2972
     107    H51     20.952142   13.055056   20.305543 H          1 MOL1         0.0751
     108    O26     20.175685   14.799386   21.204196 O.3        1 MOL1        -0.3740
     109    C32     22.246257   13.785615   21.926832 C.3        1 MOL1         0.1003
     110    H52     23.121195   13.248939   21.537575 H          1 MOL1         0.0783
     111    O27     21.628725   12.990133   22.951504 O.3        1 MOL1        -0.5519
     112    H53     20.765184   13.420868   23.177511 H          1 MOL1         0.3769
     113    C33     22.739373   15.136209   22.509008 C.3        1 MOL1         0.1053
     114    H54     21.892243   15.630413   23.006281 H          1 MOL1         0.0783
     115    O28     23.774169   14.859581   23.459086 O.3        1 MOL1        -0.5519
     116    H55     23.396045   14.181839   24.060978 H          1 MOL1         0.3769
     117    C34     23.267286   16.088084   21.397646 C.3        1 MOL1         0.1018
     118    H56     24.266716   15.751504   21.094325 H          1 MOL1         0.0783
     119    C35     22.338836   16.129793   20.149930 C.3        1 MOL1         0.1043
     120    H57     21.422322   16.664977   20.425087 H          1 MOL1         0.0783
     121    O29     21.997659   14.781705   19.747905 O.3        1 MOL1        -0.3740
     122    C36     22.932097   16.873106   18.925611 C.3        1 MOL1         0.0138
     123    H58     22.681849   17.937584   19.012641 H          1 MOL1         0.0794
     124    H59     22.430858   16.509307   18.018837 H          1 MOL1         0.0794
     125    O30     24.351642   16.713363   18.800606 O.3        1 MOL1        -0.5486
     126    H60     24.763673   17.105112   19.602424 H          1 MOL1         0.3769
     127    C1      20.044427   18.740481   23.329915 C.2        1 MOL1         0.6021
     128    O1      19.677507   19.751761   23.901761 O.co2      1 MOL1        -0.6904
     129    O2      20.832354   17.945002   23.801769 O.co2      1 MOL1        -0.6904
     130    C2      19.545116   18.499472   21.906965 C.3        1 MOL1        -0.2102
     131    H1      18.481358   18.755226   21.873628 H          1 MOL1         0.0687
     132    H2      19.620565   17.428793   21.692803 H          1 MOL1         0.0687
     133    C3      20.329780   19.310593   20.847164 C.3        1 MOL1        -0.1974
     134    H3      20.338693   20.368298   21.136950 H          1 MOL1         0.0689
     135    H4      21.375885   18.983834   20.840073 H          1 MOL1         0.0689
     136    C4      19.731359   19.161833   19.434501 C.3        1 MOL1        -0.2987
     137    H5      20.357562   19.676411   18.694838 H          1 MOL1         0.0700
     138    H6      19.659797   18.105277   19.146073 H          1 MOL1         0.0700
     139    H7      18.728174   19.603662   19.390466 H          1 MOL1         0.0700
@<TRIPOS>BOND
    1     1     2    1
    2     1     3    1
    3     1     4    1
    4     4     5    1
    5     4     6    1
    6     6     7    1
    7     4     8    1
    8     8     9    1
    9     8    10    1
   10    10    11    1
   11     8    12    1
   12    12    13    1
   13    12    14    1
   14    14    15    1
   15     1    16    1
   16    14    16    1
   17    14    17    1
   18    17    18    1
   19    17    19    1
   20    17    20    1
   21    20    21    1
   22    22    23    1
   23    22    24    1
   24    22    25    1
   25    25    26    1
   26    25    27    1
   27    27    28    1
   28    25    29    1
   29    29    30    1
   30    29    31    1
   31    31    32    1
   32     3    33    1
   33    29    33    1
   34    33    34    1
   35    33    35    1
   36    35    36    1
   37    22    37    1
   38    35    37    1
   39    35    38    1
   40    38    39    1
   41    38    40    1
   42    38    41    1
   43    41    42    1
   44    43    44    1
   45    43    45    1
   46    43    46    1
   47    46    47    1
   48    46    48    1
   49    48    49    1
   50    46    50    1
   51    50    51    1
   52    50    52    1
   53    52    53    1
   54    24    54    1
   55    50    54    1
   56    54    55    1
   57    54    56    1
   58    56    57    1
   59    43    58    1
   60    56    58    1
   61    56    59    1
   62    59    60    1
   63    59    61    1
   64    59    62    1
   65    62    63    1
   66    64    65    1
   67    64    66    1
   68    64    67    1
   69    67    68    1
   70    67    69    1
   71    69    70    1
   72    67    71    1
   73    71    72    1
   74    71    73    1
   75    73    74    1
   76    45    75    1
   77    71    75    1
   78    75    76    1
   79    75    77    1
   80    77    78    1
   81    64    79    1
   82    77    79    1
   83    77    80    1
   84    80    81    1
   85    80    82    1
   86    80    83    1
   87    83    84    1
   88    85    86    1
   89    85    87    1
   90    85    88    1
   91    88    89    1
   92    88    90    1
   93    90    91    1
   94    88    92    1
   95    92    93    1
   96    92    94    1
   97    94    95    1
   98    66    96    1
   99    92    96    1
  100    96    97    1
  101    96    98    1
  102    98    99    1
  103    85   100    1
  104    98   100    1
  105    98   101    1
  106   101   102    1
  107   101   103    1
  108   101   104    1
  109   104   105    1
  110   106   107    1
  111    12   108    1
  112   106   108    1
  113   106   109    1
  114   109   110    1
  115   109   111    1
  116   111   112    1
  117   109   113    1
  118   113   114    1
  119   113   115    1
  120   115   116    1
  121    87   117    1
  122   113   117    1
  123   117   118    1
  124   117   119    1
  125   119   120    1
  126   106   121    1
  127   119   121    1
  128   119   122    1
  129   122   123    1
  130   122   124    1
  131   122   125    1
  132   125   126    1
  133   127   128    1
  134   127   129    2
  135   127   130    1
  136   130   131    1
  137   130   132    1
  138   130   133    1
  139   133   134    1
  140   133   135    1
  141   133   136    1
  142   136   137    1
  143   136   138    1
  144   136   139    1
@<TRIPOS>SUBSTRUCTURE
       1 MOL1            1 RESIDUE      1      MOL     
       2 MOL1          139 RESIDUE      1      MOL     
@<SCITEGIC>MOL_PROPERTY
feprocess Rank
SciTegic.value.IntegerValue
6

@<SCITEGIC>MOL_PROPERTY
Conf_Id
SciTegic.value.IntegerValue
650

@<SCITEGIC>MOL_PROPERTY
Probability
SciTegic.value.DoubleValue
2.54

@<SCITEGIC>MOL_PROPERTY
G
SciTegic.value.DoubleValue
484.134

@<SCITEGIC>MOL_PROPERTY
E
SciTegic.value.DoubleValue
306.644

@<SCITEGIC>MOL_PROPERTY
-TS
SciTegic.value.DoubleValue
177.489

@<SCITEGIC>MOL_PROPERTY
U+W
SciTegic.value.DoubleValue
184.133

@<SCITEGIC>MOL_PROPERTY
U
SciTegic.value.DoubleValue
255.252

@<SCITEGIC>MOL_PROPERTY
W
SciTegic.value.DoubleValue
-71.119

@<SCITEGIC>MOL_PROPERTY
W(PB)
SciTegic.value.DoubleValue
-77.027

@<SCITEGIC>MOL_PROPERTY
W(SA)
SciTegic.value.DoubleValue
5.908

@<SCITEGIC>MOL_PROPERTY
Valence
SciTegic.value.DoubleValue
150.460

@<SCITEGIC>MOL_PROPERTY
Coulomb
SciTegic.value.DoubleValue
127.521

@<SCITEGIC>MOL_PROPERTY
VdW
SciTegic.value.DoubleValue
-22.729

@<SCITEGIC>MOL_PROPERTY
VdW6
SciTegic.value.DoubleValue
-179.451

@<SCITEGIC>MOL_PROPERTY
VdW12
SciTegic.value.DoubleValue
156.722

@<SCITEGIC>MOL_PROPERTY
Bond
SciTegic.value.DoubleValue
5.144

@<SCITEGIC>MOL_PROPERTY
Angle
SciTegic.value.DoubleValue
15.674

@<SCITEGIC>MOL_PROPERTY
Pdih
SciTegic.value.DoubleValue
129.634

@<SCITEGIC>MOL_PROPERTY
Idih
SciTegic.value.DoubleValue
0.008

@<SCITEGIC>MOL_PROPERTY
Tether
SciTegic.value.DoubleValue
0.000

@<TRIPOS>MOLECULE
CD_guest-6_fast_vm2_rndm.mol2 : feprocess host+ligand conformer 7
         139         144           2
SMALL
USER_CHARGES
 
@<TRIPOS>ATOM
       1    C1      16.417853   15.437803   22.103609 C.3        1 MOL1         0.2972
       2    H1      15.386213   15.346799   22.466038 H          1 MOL1         0.0751
       3    O1      16.682190   16.757715   21.589772 O.3        1 MOL1        -0.3740
       4    C2      17.410982   15.138471   23.254312 C.3        1 MOL1         0.1003
       5    H2      17.268403   14.088938   23.541511 H          1 MOL1         0.0783
       6    O2      17.133275   15.967404   24.393843 O.3        1 MOL1        -0.5519
       7    H3      17.882981   16.615146   24.480542 H          1 MOL1         0.3769
       8    C3      18.867342   15.300438   22.753234 C.3        1 MOL1         0.1053
       9    H4      19.012472   16.345882   22.452472 H          1 MOL1         0.0783
      10    O3      19.796477   14.971896   23.793560 O.3        1 MOL1        -0.5519
      11    H5      19.949448   15.827548   24.279876 H          1 MOL1         0.3769
      12    C4      19.119492   14.416524   21.505994 C.3        1 MOL1         0.1018
      13    H6      19.204752   13.368231   21.820559 H          1 MOL1         0.0783
      14    C5      17.997126   14.565991   20.438735 C.3        1 MOL1         0.1043
      15    H7      18.121090   15.552261   19.978270 H          1 MOL1         0.0783
      16    O4      16.677410   14.491840   21.042126 O.3        1 MOL1        -0.3740
      17    C6      18.078316   13.518356   19.303015 C.3        1 MOL1         0.0138
      18    H8      18.956796   13.743929   18.683421 H          1 MOL1         0.0794
      19    H9      17.192483   13.624618   18.662525 H          1 MOL1         0.0794
      20    O5      18.170651   12.180835   19.808681 O.3        1 MOL1        -0.5486
      21    H10     18.137658   11.568813   19.041270 H          1 MOL1         0.3769
      22    C7      14.842275   20.287204   20.546412 C.3        1 MOL1         0.2972
      23    H11     14.232670   21.106071   20.143007 H          1 MOL1         0.0751
      24    O6      16.062765   20.768043   21.139660 O.3        1 MOL1        -0.3740
      25    C8      14.071803   19.493116   21.628812 C.3        1 MOL1         0.1003
      26    H12     13.182959   19.066329   21.146199 H          1 MOL1         0.0783
      27    O7      13.656580   20.351778   22.703751 O.3        1 MOL1        -0.5519
      28    H13     14.463152   20.825366   23.030839 H          1 MOL1         0.3769
      29    C9      14.927640   18.320622   22.174138 C.3        1 MOL1         0.1053
      30    H14     15.744504   18.742542   22.776845 H          1 MOL1         0.0783
      31    O8      14.091014   17.498008   22.993882 O.3        1 MOL1        -0.5519
      32    H15     13.658421   18.114579   23.624173 H          1 MOL1         0.3769
      33    C10     15.562208   17.471845   21.035299 C.3        1 MOL1         0.1018
      34    H16     14.799774   16.788353   20.640845 H          1 MOL1         0.0783
      35    C11     16.139166   18.332084   19.873774 C.3        1 MOL1         0.1043
      36    H17     17.058864   18.814057   20.227875 H          1 MOL1         0.0783
      37    O9      15.186656   19.355446   19.498741 O.3        1 MOL1        -0.3740
      38    C12     16.534938   17.526591   18.608756 C.3        1 MOL1         0.0138
      39    H18     17.578158   17.204987   18.717937 H          1 MOL1         0.0794
      40    H19     16.504500   18.199541   17.741500 H          1 MOL1         0.0794
      41    O10     15.699098   16.385439   18.374904 O.3        1 MOL1        -0.5486
      42    H20     15.832960   15.764722   19.125680 H          1 MOL1         0.3769
      43    C13     18.378885   24.057673   21.865211 C.3        1 MOL1         0.2972
      44    H21     18.821083   25.045352   22.049548 H          1 MOL1         0.0751
      45    O11     19.391420   23.042091   21.725626 O.3        1 MOL1        -0.3740
      46    C14     17.461599   23.667896   23.047853 C.3        1 MOL1         0.1003
      47    H22     16.657056   24.412601   23.104684 H          1 MOL1         0.0783
      48    O12     18.206297   23.674290   24.276017 O.3        1 MOL1        -0.5519
      49    H23     19.151557   23.522388   24.032700 H          1 MOL1         0.3769
      50    C15     16.818017   22.282407   22.811764 C.3        1 MOL1         0.1053
      51    H24     17.613182   21.529668   22.875915 H          1 MOL1         0.0783
      52    O13     15.841118   22.029035   23.827006 O.3        1 MOL1        -0.5519
      53    H25     16.291147   22.252099   24.672176 H          1 MOL1         0.3769
      54    C16     16.158963   22.176511   21.412835 C.3        1 MOL1         0.1018
      55    H26     15.174345   22.661350   21.448797 H          1 MOL1         0.0783
      56    C17     17.024998   22.785528   20.273404 C.3        1 MOL1         0.1043
      57    H27     17.845497   22.083571   20.082071 H          1 MOL1         0.0783
      58    O14     17.582075   24.067275   20.663526 O.3        1 MOL1        -0.3740
      59    C18     16.261568   22.967676   18.939855 C.3        1 MOL1         0.0138
      60    H28     16.071235   21.975778   18.508136 H          1 MOL1         0.0794
      61    H29     16.907877   23.509722   18.236383 H          1 MOL1         0.0794
      62    O15     15.023320   23.666092   19.118599 O.3        1 MOL1        -0.5486
      63    H30     14.633733   23.814689   18.229373 H          1 MOL1         0.3769
      64    C19     23.468658   22.623718   20.894463 C.3        1 MOL1         0.2972
      65    H31     24.504070   22.791954   20.571697 H          1 MOL1         0.0751
      66    O16     23.232271   21.233807   21.193825 O.3        1 MOL1        -0.3740
      67    C20     23.114002   23.500299   22.129470 C.3        1 MOL1         0.1003
      68    H32     23.232144   24.547351   21.821601 H          1 MOL1         0.0783
      69    O17     23.986046   23.248421   23.241182 O.3        1 MOL1        -0.5519
      70    H33     23.852612   22.302468   23.504026 H          1 MOL1         0.3769
      71    C21     21.635277   23.294529   22.541371 C.3        1 MOL1         0.1053
      72    H34     21.517056   22.260553   22.891415 H          1 MOL1         0.0783
      73    O18     21.293461   24.206071   23.591422 O.3        1 MOL1        -0.5519
      74    H35     22.047267   24.167746   24.221128 H          1 MOL1         0.3769
      75    C22     20.694392   23.508301   21.330744 C.3        1 MOL1         0.1018
      76    H36     20.689471   24.576580   21.077075 H          1 MOL1         0.0783
      77    C23     21.155653   22.695606   20.089041 C.3        1 MOL1         0.1043
      78    H37     21.036615   21.627290   20.312106 H          1 MOL1         0.0783
      79    O19     22.554229   22.987581   19.835774 O.3        1 MOL1        -0.3740
      80    C24     20.356597   22.975879   18.789354 C.3        1 MOL1         0.0138
      81    H38     19.520112   22.268964   18.735023 H          1 MOL1         0.0794
      82    H39     21.004226   22.759315   17.929331 H          1 MOL1         0.0794
      83    O20     19.861254   24.317909   18.703144 O.3        1 MOL1        -0.5486
      84    H40     19.111676   24.392432   19.339274 H          1 MOL1         0.3769
      85    C25     24.927532   17.582082   22.006171 C.3        1 MOL1         0.2972
      86    H41     25.544498   16.713534   22.269756 H          1 MOL1         0.0751
      87    O21     23.669752   17.186963   21.422631 O.3        1 MOL1        -0.3740
      88    C26     24.671288   18.455612   23.259737 C.3        1 MOL1         0.1003
      89    H42     25.644401   18.849456   23.580007 H          1 MOL1         0.0783
      90    O22     24.106698   17.696662   24.338954 O.3        1 MOL1        -0.5519
      91    H43     23.143322   17.549055   24.126566 H          1 MOL1         0.3769
      92    C27     23.767705   19.654670   22.901425 C.3        1 MOL1         0.1053
      93    H44     22.789439   19.257267   22.603959 H          1 MOL1         0.0783
      94    O23     23.624238   20.500117   24.048260 O.3        1 MOL1        -0.5519
      95    H45     23.329253   19.894542   24.765072 H          1 MOL1         0.3769
      96    C28     24.335224   20.459142   21.705509 C.3        1 MOL1         0.1018
      97    H46     25.156880   21.093110   22.063615 H          1 MOL1         0.0783
      98    C29     24.828378   19.547231   20.542325 C.3        1 MOL1         0.1043
      99    H47     23.940292   19.162577   20.024840 H          1 MOL1         0.0783
     100    O24     25.602305   18.424050   21.045592 O.3        1 MOL1        -0.3740
     101    C30     25.677059   20.295756   19.487165 C.3        1 MOL1         0.0138
     102    H48     25.016278   20.966069   18.921056 H          1 MOL1         0.0794
     103    H49     26.080978   19.561004   18.777812 H          1 MOL1         0.0794
     104    O25     26.739909   21.050263   20.082786 O.3        1 MOL1        -0.5486
     105    H50     27.280962   21.428544   19.355536 H          1 MOL1         0.3769
     106    C31     21.331431   13.938357   20.516515 C.3        1 MOL1         0.2972
     107    H51     20.870094   13.003703   20.173021 H          1 MOL1         0.0751
     108    O26     20.332237   14.906310   20.898793 O.3        1 MOL1        -0.3740
     109    C32     22.310803   13.680027   21.691956 C.3        1 MOL1         0.1003
     110    H52     23.102344   13.026230   21.303254 H          1 MOL1         0.0783
     111    O27     21.669592   13.017170   22.792189 O.3        1 MOL1        -0.5519
     112    H53     21.013405   13.659443   23.164923 H          1 MOL1         0.3769
     113    C33     22.980359   14.994701   22.164414 C.3        1 MOL1         0.1053
     114    H54     22.219301   15.610053   22.665238 H          1 MOL1         0.0783
     115    O28     24.029226   14.663210   23.080604 O.3        1 MOL1        -0.5519
     116    H55     23.602712   14.128733   23.784401 H          1 MOL1         0.3769
     117    C34     23.560797   15.819702   20.982816 C.3        1 MOL1         0.1018
     118    H56     24.538200   15.405292   20.706385 H          1 MOL1         0.0783
     119    C35     22.642695   15.842963   19.727441 C.3        1 MOL1         0.1043
     120    H57     21.807396   16.523283   19.929017 H          1 MOL1         0.0783
     121    O29     22.116026   14.520563   19.454497 O.3        1 MOL1        -0.3740
     122    C36     23.340408   16.376307   18.451466 C.3        1 MOL1         0.0138
     123    H58     23.462622   17.462753   18.548736 H          1 MOL1         0.0794
     124    H59     22.675017   16.203282   17.595300 H          1 MOL1         0.0794
     125    O30     24.614985   15.766098   18.213258 O.3        1 MOL1        -0.5486
     126    H60     25.249514   16.147732   18.857424 H          1 MOL1         0.3769
     127    C1      20.233965   18.214487   24.136296 C.2        1 MOL1         0.6021
     128    O1      19.319415   17.665307   24.719622 O.co2      1 MOL1        -0.6904
     129    O2      21.347716   17.733461   24.061966 O.co2      1 MOL1        -0.6904
     130    C2      19.942732   19.528912   23.412215 C.3        1 MOL1        -0.2102
     131    H1      20.868759   20.106228   23.345786 H          1 MOL1         0.0687
     132    H2      19.260269   20.106313   24.046440 H          1 MOL1         0.0687
     133    C3      19.314204   19.355748   22.005244 C.3        1 MOL1        -0.1974
     134    H3      18.394242   18.765923   22.101050 H          1 MOL1         0.0689
     135    H4      19.024005   20.336124   21.609994 H          1 MOL1         0.0689
     136    C4      20.266554   18.680903   20.998582 C.3        1 MOL1        -0.2987
     137    H5      20.579316   17.696622   21.366773 H          1 MOL1         0.0700
     138    H6      19.774647   18.542959   20.027965 H          1 MOL1         0.0700
     139    H7      21.169030   19.284714   20.844685 H          1 MOL1         0.0700
@<TRIPOS>BOND
    1     1     2    1
    2     1     3    1
    3     1     4    1
    4     4     5    1
    5     4     6    1
    6     6     7    1
    7     4     8    1
    8     8     9    1
    9     8    10    1
   10    10    11    1
   11     8    12    1
   12    12    13    1
   13    12    14    1
   14    14    15    1
   15     1    16    1
   16    14    16    1
   17    14    17    1
   18    17    18    1
   19    17    19    1
   20    17    20    1
   21    20    21    1
   22    22    23    1
   23    22    24    1
   24    22    25    1
   25    25    26    1
   26    25    27    1
   27    27    28    1
   28    25    29    1
   29    29    30    1
   30    29    31    1
   31    31    32    1
   32     3    33    1
   33    29    33    1
   34    33    34    1
   35    33    35    1
   36    35    36    1
   37    22    37    1
   38    35    37    1
   39    35    38    1
   40    38    39    1
   41    38    40    1
   42    38    41    1
   43    41    42    1
   44    43    44    1
   45    43    45    1
   46    43    46    1
   47    46    47    1
   48    46    48    1
   49    48    49    1
   50    46    50    1
   51    50    51    1
   52    50    52    1
   53    52    53    1
   54    24    54    1
   55    50    54    1
   56    54    55    1
   57    54    56    1
   58    56    57    1
   59    43    58    1
   60    56    58    1
   61    56    59    1
   62    59    60    1
   63    59    61    1
   64    59    62    1
   65    62    63    1
   66    64    65    1
   67    64    66    1
   68    64    67    1
   69    67    68    1
   70    67    69    1
   71    69    70    1
   72    67    71    1
   73    71    72    1
   74    71    73    1
   75    73    74    1
   76    45    75    1
   77    71    75    1
   78    75    76    1
   79    75    77    1
   80    77    78    1
   81    64    79    1
   82    77    79    1
   83    77    80    1
   84    80    81    1
   85    80    82    1
   86    80    83    1
   87    83    84    1
   88    85    86    1
   89    85    87    1
   90    85    88    1
   91    88    89    1
   92    88    90    1
   93    90    91    1
   94    88    92    1
   95    92    93    1
   96    92    94    1
   97    94    95    1
   98    66    96    1
   99    92    96    1
  100    96    97    1
  101    96    98    1
  102    98    99    1
  103    85   100    1
  104    98   100    1
  105    98   101    1
  106   101   102    1
  107   101   103    1
  108   101   104    1
  109   104   105    1
  110   106   107    1
  111    12   108    1
  112   106   108    1
  113   106   109    1
  114   109   110    1
  115   109   111    1
  116   111   112    1
  117   109   113    1
  118   113   114    1
  119   113   115    1
  120   115   116    1
  121    87   117    1
  122   113   117    1
  123   117   118    1
  124   117   119    1
  125   119   120    1
  126   106   121    1
  127   119   121    1
  128   119   122    1
  129   122   123    1
  130   122   124    1
  131   122   125    1
  132   125   126    1
  133   127   128    1
  134   127   129    2
  135   127   130    1
  136   130   131    1
  137   130   132    1
  138   130   133    1
  139   133   134    1
  140   133   135    1
  141   133   136    1
  142   136   137    1
  143   136   138    1
  144   136   139    1
@<TRIPOS>SUBSTRUCTURE
       1 MOL1            1 RESIDUE      1      MOL     
       2 MOL1          139 RESIDUE      1      MOL     
@<SCITEGIC>MOL_PROPERTY
feprocess Rank
SciTegic.value.IntegerValue
7

@<SCITEGIC>MOL_PROPERTY
Conf_Id
SciTegic.value.IntegerValue
111

@<SCITEGIC>MOL_PROPERTY
Probability
SciTegic.value.DoubleValue
2.40

@<SCITEGIC>MOL_PROPERTY
G
SciTegic.value.DoubleValue
484.168

@<SCITEGIC>MOL_PROPERTY
E
SciTegic.value.DoubleValue
307.194

@<SCITEGIC>MOL_PROPERTY
-TS
SciTegic.value.DoubleValue
176.974

@<SCITEGIC>MOL_PROPERTY
U+W
SciTegic.value.DoubleValue
184.683

@<SCITEGIC>MOL_PROPERTY
U
SciTegic.value.DoubleValue
256.986

@<SCITEGIC>MOL_PROPERTY
W
SciTegic.value.DoubleValue
-72.303

@<SCITEGIC>MOL_PROPERTY
W(PB)
SciTegic.value.DoubleValue
-78.299

@<SCITEGIC>MOL_PROPERTY
W(SA)
SciTegic.value.DoubleValue
5.996

@<SCITEGIC>MOL_PROPERTY
Valence
SciTegic.value.DoubleValue
150.743

@<SCITEGIC>MOL_PROPERTY
Coulomb
SciTegic.value.DoubleValue
127.820

@<SCITEGIC>MOL_PROPERTY
VdW
SciTegic.value.DoubleValue
-21.578

@<SCITEGIC>MOL_PROPERTY
VdW6
SciTegic.value.DoubleValue
-177.691

@<SCITEGIC>MOL_PROPERTY
VdW12
SciTegic.value.DoubleValue
156.113

@<SCITEGIC>MOL_PROPERTY
Bond
SciTegic.value.DoubleValue
5.136

@<SCITEGIC>MOL_PROPERTY
Angle
SciTegic.value.DoubleValue
15.131

@<SCITEGIC>MOL_PROPERTY
Pdih
SciTegic.value.DoubleValue
130.470

@<SCITEGIC>MOL_PROPERTY
Idih
SciTegic.value.DoubleValue
0.007

@<SCITEGIC>MOL_PROPERTY
Tether
SciTegic.value.DoubleValue
0.000

@<TRIPOS>MOLECULE
CD_guest-6_fast_vm2_rndm.mol2 : feprocess host+ligand conformer 8
         139         144           2
SMALL
USER_CHARGES
 
@<TRIPOS>ATOM
       1    C1      16.138244   15.258126   21.664689 C.3        1 MOL1         0.2972
       2    H1      15.068079   15.115029   21.862052 H          1 MOL1         0.0751
       3    O1      16.404164   16.548819   21.078206 O.3        1 MOL1        -0.3740
       4    C2      16.957031   15.101393   22.973220 C.3        1 MOL1         0.1003
       5    H2      16.804436   14.073332   23.326822 H          1 MOL1         0.0783
       6    O2      16.524524   16.014146   23.994618 O.3        1 MOL1        -0.5519
       7    H3      15.738198   16.497809   23.642907 H          1 MOL1         0.3769
       8    C3      18.465785   15.291387   22.701648 C.3        1 MOL1         0.1053
       9    H4      18.621722   16.340673   22.423158 H          1 MOL1         0.0783
      10    O3      19.195748   14.996177   23.896803 O.3        1 MOL1        -0.5519
      11    H5      18.719694   15.488568   24.602618 H          1 MOL1         0.3769
      12    C4      18.962548   14.397078   21.536458 C.3        1 MOL1         0.1018
      13    H6      19.087246   13.372271   21.910235 H          1 MOL1         0.0783
      14    C5      17.997967   14.405632   20.314051 C.3        1 MOL1         0.1043
      15    H7      18.109720   15.371277   19.803391 H          1 MOL1         0.0783
      16    O4      16.619513   14.255713   20.744965 O.3        1 MOL1        -0.3740
      17    C6      18.306976   13.304058   19.271996 C.3        1 MOL1         0.0138
      18    H8      19.240485   13.565365   18.755549 H          1 MOL1         0.0794
      19    H9      17.508010   13.301843   18.518467 H          1 MOL1         0.0794
      20    O5      18.429385   12.008312   19.872089 O.3        1 MOL1        -0.5486
      21    H10     18.541575   11.353993   19.148227 H          1 MOL1         0.3769
      22    C7      14.791544   20.278061   20.502409 C.3        1 MOL1         0.2972
      23    H11     14.225099   21.182233   20.244940 H          1 MOL1         0.0751
      24    O6      16.152642   20.593335   20.874670 O.3        1 MOL1        -0.3740
      25    C8      14.100528   19.485782   21.641769 C.3        1 MOL1         0.1003
      26    H12     13.137596   19.134705   21.248116 H          1 MOL1         0.0783
      27    O7      13.852118   20.299180   22.796998 O.3        1 MOL1        -0.5519
      28    H13     14.736710   20.570070   23.150778 H          1 MOL1         0.3769
      29    C9      14.940820   18.240671   22.014887 C.3        1 MOL1         0.1053
      30    H14     15.889098   18.585288   22.451598 H          1 MOL1         0.0783
      31    O8      14.214721   17.465453   22.974632 O.3        1 MOL1        -0.5519
      32    H15     13.811725   18.126416   23.582756 H          1 MOL1         0.3769
      33    C10     15.267054   17.377678   20.764128 C.3        1 MOL1         0.1018
      34    H16     14.387641   16.773074   20.509765 H          1 MOL1         0.0783
      35    C11     15.680563   18.219727   19.520039 C.3        1 MOL1         0.1043
      36    H17     16.711167   18.560273   19.661106 H          1 MOL1         0.0783
      37    O9      14.831374   19.384511   19.369900 O.3        1 MOL1        -0.3740
      38    C12     15.666248   17.415607   18.196913 C.3        1 MOL1         0.0138
      39    H18     16.488059   16.687215   18.222054 H          1 MOL1         0.0794
      40    H19     15.872319   18.107442   17.369516 H          1 MOL1         0.0794
      41    O10     14.423516   16.738217   17.971093 O.3        1 MOL1        -0.5486
      42    H20     14.404351   15.950433   18.555487 H          1 MOL1         0.3769
      43    C13     18.614150   23.682681   22.203662 C.3        1 MOL1         0.2972
      44    H21     19.022678   24.622557   22.596803 H          1 MOL1         0.0751
      45    O11     19.659161   22.817537   21.728131 O.3        1 MOL1        -0.3740
      46    C14     17.807493   22.955654   23.308764 C.3        1 MOL1         0.1003
      47    H22     16.961744   23.607748   23.562416 H          1 MOL1         0.0783
      48    O12     18.588075   22.748395   24.495797 O.3        1 MOL1        -0.5519
      49    H23     19.341696   22.133296   24.271402 H          1 MOL1         0.3769
      50    C15     17.227044   21.623696   22.782114 C.3        1 MOL1         0.1053
      51    H24     18.060691   20.954617   22.530132 H          1 MOL1         0.0783
      52    O13     16.422831   21.035900   23.809309 O.3        1 MOL1        -0.5519
      53    H25     16.980171   21.084940   24.618557 H          1 MOL1         0.3769
      54    C16     16.385546   21.872152   21.502864 C.3        1 MOL1         0.1018
      55    H26     15.446825   22.365655   21.787697 H          1 MOL1         0.0783
      56    C17     17.148523   22.747733   20.468017 C.3        1 MOL1         0.1043
      57    H27     17.958963   22.132169   20.060684 H          1 MOL1         0.0783
      58    O14     17.718896   23.929492   21.095458 O.3        1 MOL1        -0.3740
      59    C18     16.269451   23.200798   19.277821 C.3        1 MOL1         0.0138
      60    H28     16.042525   22.322327   18.658547 H          1 MOL1         0.0794
      61    H29     16.848840   23.896610   18.656260 H          1 MOL1         0.0794
      62    O15     15.050500   23.816348   19.712534 O.3        1 MOL1        -0.5486
      63    H30     14.582884   24.147288   18.914865 H          1 MOL1         0.3769
      64    C19     23.648798   22.735265   20.680411 C.3        1 MOL1         0.2972
      65    H31     24.665395   22.899254   20.300748 H          1 MOL1         0.0751
      66    O16     23.442943   21.359517   21.059759 O.3        1 MOL1        -0.3740
      67    C20     23.335994   23.668199   21.880069 C.3        1 MOL1         0.1003
      68    H32     23.395035   24.697511   21.503097 H          1 MOL1         0.0783
      69    O17     24.289346   23.515061   22.942449 O.3        1 MOL1        -0.5519
      70    H33     24.177415   22.597072   23.297415 H          1 MOL1         0.3769
      71    C21     21.893401   23.441840   22.399818 C.3        1 MOL1         0.1053
      72    H34     21.848399   22.452514   22.875847 H          1 MOL1         0.0783
      73    O18     21.586227   24.463682   23.354726 O.3        1 MOL1        -0.5519
      74    H35     22.299637   24.415154   24.026954 H          1 MOL1         0.3769
      75    C22     20.850525   23.470413   21.249050 C.3        1 MOL1         0.1018
      76    H36     20.661260   24.517939   20.982013 H          1 MOL1         0.0783
      77    C23     21.308533   22.694711   19.979922 C.3        1 MOL1         0.1043
      78    H37     21.258571   21.620846   20.197079 H          1 MOL1         0.0783
      79    O19     22.677427   23.047988   19.657064 O.3        1 MOL1        -0.3740
      80    C24     20.420968   22.923309   18.727730 C.3        1 MOL1         0.0138
      81    H38     19.645132   22.147912   18.709521 H          1 MOL1         0.0794
      82    H39     21.035474   22.771083   17.830425 H          1 MOL1         0.0794
      83    O20     19.807550   24.218737   18.688854 O.3        1 MOL1        -0.5486
      84    H40     19.173637   24.265822   19.441306 H          1 MOL1         0.3769
      85    C25     25.015162   17.739862   22.050599 C.3        1 MOL1         0.2972
      86    H41     25.588795   16.848016   22.333496 H          1 MOL1         0.0751
      87    O21     23.699399   17.400504   21.566189 O.3        1 MOL1        -0.3740
      88    C26     24.858103   18.682101   23.266186 C.3        1 MOL1         0.1003
      89    H42     25.858995   19.033128   23.548186 H          1 MOL1         0.0783
      90    O22     24.278973   17.965793   24.370266 O.3        1 MOL1        -0.5519
      91    H43     23.396181   18.385128   24.560928 H          1 MOL1         0.3769
      92    C27     24.008214   19.912718   22.864637 C.3        1 MOL1         0.1053
      93    H44     23.005425   19.552196   22.617675 H          1 MOL1         0.0783
      94    O23     23.911284   20.837506   23.954091 O.3        1 MOL1        -0.5519
      95    H45     23.141781   20.513929   24.494313 H          1 MOL1         0.3769
      96    C28     24.555067   20.615410   21.594749 C.3        1 MOL1         0.1018
      97    H46     25.398152   21.261081   21.872925 H          1 MOL1         0.0783
      98    C29     24.974860   19.616430   20.474753 C.3        1 MOL1         0.1043
      99    H47     24.055966   19.253211   19.997299 H          1 MOL1         0.0783
     100    O24     25.695506   18.477752   21.014250 O.3        1 MOL1        -0.3740
     101    C30     25.834272   20.262336   19.362354 C.3        1 MOL1         0.0138
     102    H48     25.198082   20.945206   18.783277 H          1 MOL1         0.0794
     103    H49     26.172536   19.472830   18.677829 H          1 MOL1         0.0794
     104    O25     26.957175   20.976710   19.893301 O.3        1 MOL1        -0.5486
     105    H50     27.495501   21.292603   19.134881 H          1 MOL1         0.3769
     106    C31     21.302282   14.063772   20.826110 C.3        1 MOL1         0.2972
     107    H51     20.934348   13.077371   20.516267 H          1 MOL1         0.0751
     108    O26     20.211293   14.967741   21.095740 O.3        1 MOL1        -0.3740
     109    C32     22.205284   13.951298   22.087405 C.3        1 MOL1         0.1003
     110    H52     23.047238   13.299911   21.820538 H          1 MOL1         0.0783
     111    O27     21.489505   13.350235   23.178055 O.3        1 MOL1        -0.5519
     112    H53     20.777312   13.985300   23.440511 H          1 MOL1         0.3769
     113    C33     22.791624   15.336305   22.481994 C.3        1 MOL1         0.1053
     114    H54     21.966694   15.973722   22.828990 H          1 MOL1         0.0783
     115    O28     23.765683   15.184313   23.522412 O.3        1 MOL1        -0.5519
     116    H55     23.927656   16.087266   23.889869 H          1 MOL1         0.3769
     117    C34     23.456027   16.018434   21.255768 C.3        1 MOL1         0.1018
     118    H56     24.386569   15.488369   21.013955 H          1 MOL1         0.0783
     119    C35     22.533200   16.007814   20.010360 C.3        1 MOL1         0.1043
     120    H57     21.663948   16.644502   20.220273 H          1 MOL1         0.0783
     121    O29     22.093991   14.649250   19.767457 O.3        1 MOL1        -0.3740
     122    C36     23.193779   16.570238   18.724682 C.3        1 MOL1         0.0138
     123    H58     23.037552   17.656644   18.706422 H          1 MOL1         0.0794
     124    H59     22.670023   16.158727   17.851667 H          1 MOL1         0.0794
     125    O30     24.596928   16.289311   18.639139 O.3        1 MOL1        -0.5486
     126    H60     25.041611   16.823560   19.335341 H          1 MOL1         0.3769
     127    C1      20.830110   19.602893   24.204048 C.2        1 MOL1         0.6021
     128    O1      20.530545   20.775578   24.305559 O.co2      1 MOL1        -0.6904
     129    O2      21.770037   19.104822   24.794581 O.co2      1 MOL1        -0.6904
     130    C2      20.078330   18.753519   23.181839 C.3        1 MOL1        -0.2102
     131    H1      19.013502   18.813249   23.435592 H          1 MOL1         0.0687
     132    H2      20.381116   17.707459   23.303084 H          1 MOL1         0.0687
     133    C3      20.306458   19.209420   21.717534 C.3        1 MOL1        -0.1974
     134    H3      20.201330   20.298126   21.668565 H          1 MOL1         0.0689
     135    H4      21.327811   18.972327   21.397487 H          1 MOL1         0.0689
     136    C4      19.301231   18.571303   20.745065 C.3        1 MOL1        -0.2987
     137    H5      18.280041   18.742817   21.102828 H          1 MOL1         0.0700
     138    H6      19.396098   19.009016   19.743551 H          1 MOL1         0.0700
     139    H7      19.460652   17.491104   20.661354 H          1 MOL1         0.0700
@<TRIPOS>BOND
    1     1     2    1
    2     1     3    1
    3     1     4    1
    4     4     5    1
    5     4     6    1
    6     6     7    1
    7     4     8    1
    8     8     9    1
    9     8    10    1
   10    10    11    1
   11     8    12    1
   12    12    13    1
   13    12    14    1
   14    14    15    1
   15     1    16    1
   16    14    16    1
   17    14    17    1
   18    17    18    1
   19    17    19    1
   20    17    20    1
   21    20    21    1
   22    22    23    1
   23    22    24    1
   24    22    25    1
   25    25    26    1
   26    25    27    1
   27    27    28    1
   28    25    29    1
   29    29    30    1
   30    29    31    1
   31    31    32    1
   32     3    33    1
   33    29    33    1
   34    33    34    1
   35    33    35    1
   36    35    36    1
   37    22    37    1
   38    35    37    1
   39    35    38    1
   40    38    39    1
   41    38    40    1
   42    38    41    1
   43    41    42    1
   44    43    44    1
   45    43    45    1
   46    43    46    1
   47    46    47    1
   48    46    48    1
   49    48    49    1
   50    46    50    1
   51    50    51    1
   52    50    52    1
   53    52    53    1
   54    24    54    1
   55    50    54    1
   56    54    55    1
   57    54    56    1
   58    56    57    1
   59    43    58    1
   60    56    58    1
   61    56    59    1
   62    59    60    1
   63    59    61    1
   64    59    62    1
   65    62    63    1
   66    64    65    1
   67    64    66    1
   68    64    67    1
   69    67    68    1
   70    67    69    1
   71    69    70    1
   72    67    71    1
   73    71    72    1
   74    71    73    1
   75    73    74    1
   76    45    75    1
   77    71    75    1
   78    75    76    1
   79    75    77    1
   80    77    78    1
   81    64    79    1
   82    77    79    1
   83    77    80    1
   84    80    81    1
   85    80    82    1
   86    80    83    1
   87    83    84    1
   88    85    86    1
   89    85    87    1
   90    85    88    1
   91    88    89    1
   92    88    90    1
   93    90    91    1
   94    88    92    1
   95    92    93    1
   96    92    94    1
   97    94    95    1
   98    66    96    1
   99    92    96    1
  100    96    97    1
  101    96    98    1
  102    98    99    1
  103    85   100    1
  104    98   100    1
  105    98   101    1
  106   101   102    1
  107   101   103    1
  108   101   104    1
  109   104   105    1
  110   106   107    1
  111    12   108    1
  112   106   108    1
  113   106   109    1
  114   109   110    1
  115   109   111    1
  116   111   112    1
  117   109   113    1
  118   113   114    1
  119   113   115    1
  120   115   116    1
  121    87   117    1
  122   113   117    1
  123   117   118    1
  124   117   119    1
  125   119   120    1
  126   106   121    1
  127   119   121    1
  128   119   122    1
  129   122   123    1
  130   122   124    1
  131   122   125    1
  132   125   126    1
  133   127   128    1
  134   127   129    2
  135   127   130    1
  136   130   131    1
  137   130   132    1
  138   130   133    1
  139   133   134    1
  140   133   135    1
  141   133   136    1
  142   136   137    1
  143   136   138    1
  144   136   139    1
@<TRIPOS>SUBSTRUCTURE
       1 MOL1            1 RESIDUE      1      MOL     
       2 MOL1          139 RESIDUE      1      MOL     
@<SCITEGIC>MOL_PROPERTY
feprocess Rank
SciTegic.value.IntegerValue
8

@<SCITEGIC>MOL_PROPERTY
Conf_Id
SciTegic.value.IntegerValue
925

@<SCITEGIC>MOL_PROPERTY
Probability
SciTegic.value.DoubleValue
1.90

@<SCITEGIC>MOL_PROPERTY
G
SciTegic.value.DoubleValue
484.305

@<SCITEGIC>MOL_PROPERTY
E
SciTegic.value.DoubleValue
306.026

@<SCITEGIC>MOL_PROPERTY
-TS
SciTegic.value.DoubleValue
178.279

@<SCITEGIC>MOL_PROPERTY
U+W
SciTegic.value.DoubleValue
183.515

@<SCITEGIC>MOL_PROPERTY
U
SciTegic.value.DoubleValue
256.493

@<SCITEGIC>MOL_PROPERTY
W
SciTegic.value.DoubleValue
-72.979

@<SCITEGIC>MOL_PROPERTY
W(PB)
SciTegic.value.DoubleValue
-78.964

@<SCITEGIC>MOL_PROPERTY
W(SA)
SciTegic.value.DoubleValue
5.985

@<SCITEGIC>MOL_PROPERTY
Valence
SciTegic.value.DoubleValue
151.641

@<SCITEGIC>MOL_PROPERTY
Coulomb
SciTegic.value.DoubleValue
124.083

@<SCITEGIC>MOL_PROPERTY
VdW
SciTegic.value.DoubleValue
-19.231

@<SCITEGIC>MOL_PROPERTY
VdW6
SciTegic.value.DoubleValue
-178.295

@<SCITEGIC>MOL_PROPERTY
VdW12
SciTegic.value.DoubleValue
159.064

@<SCITEGIC>MOL_PROPERTY
Bond
SciTegic.value.DoubleValue
5.424

@<SCITEGIC>MOL_PROPERTY
Angle
SciTegic.value.DoubleValue
15.384

@<SCITEGIC>MOL_PROPERTY
Pdih
SciTegic.value.DoubleValue
130.807

@<SCITEGIC>MOL_PROPERTY
Idih
SciTegic.value.DoubleValue
0.026

@<SCITEGIC>MOL_PROPERTY
Tether
SciTegic.value.DoubleValue
0.000

@<TRIPOS>MOLECULE
CD_guest-6_fast_vm2_rndm.mol2 : feprocess host+ligand conformer 9
         139         144           2
SMALL
USER_CHARGES
 
@<TRIPOS>ATOM
       1    C1      16.213780   15.266905   20.272272 C.3        1 MOL1         0.2972
       2    H1      15.227635   15.136028   19.808715 H          1 MOL1         0.0751
       3    O1      16.396524   16.614305   20.752659 O.3        1 MOL1        -0.3740
       4    C2      16.434592   14.256043   21.428243 C.3        1 MOL1         0.1003
       5    H2      16.407842   13.254140   20.980375 H          1 MOL1         0.0783
       6    O2      15.400954   14.339858   22.420671 O.3        1 MOL1        -0.5519
       7    H3      15.489109   15.228309   22.849788 H          1 MOL1         0.3769
       8    C3      17.832484   14.444291   22.071112 C.3        1 MOL1         0.1053
       9    H4      17.841210   15.402202   22.609849 H          1 MOL1         0.0783
      10    O3      18.064873   13.364140   22.981906 O.3        1 MOL1        -0.5519
      11    H5      17.296037   13.367791   23.592008 H          1 MOL1         0.3769
      12    C4      18.960217   14.482032   21.003245 C.3        1 MOL1         0.1018
      13    H6      19.172540   13.451990   20.689750 H          1 MOL1         0.0783
      14    C5      18.599657   15.333645   19.751242 C.3        1 MOL1         0.1043
      15    H7      18.635376   16.392377   20.034466 H          1 MOL1         0.0783
      16    O4      17.257718   15.010973   19.305912 O.3        1 MOL1        -0.3740
      17    C6      19.580384   15.174818   18.559336 C.3        1 MOL1         0.0138
      18    H8      20.361437   15.939652   18.652612 H          1 MOL1         0.0794
      19    H9      19.039183   15.392418   17.628914 H          1 MOL1         0.0794
      20    O5      20.185151   13.876938   18.484250 O.3        1 MOL1        -0.5486
      21    H10     20.755549   13.772766   19.280082 H          1 MOL1         0.3769
      22    C7      14.804970   20.180506   21.912752 C.3        1 MOL1         0.2972
      23    H11     14.223181   21.055398   22.230451 H          1 MOL1         0.0751
      24    O6      16.160042   20.543044   21.572420 O.3        1 MOL1        -0.3740
      25    C8      14.821442   19.120043   23.040232 C.3        1 MOL1         0.1003
      26    H12     13.793923   18.752410   23.156533 H          1 MOL1         0.0783
      27    O7      15.245767   19.697205   24.284537 O.3        1 MOL1        -0.5519
      28    H13     16.214321   19.497658   24.388993 H          1 MOL1         0.3769
      29    C9      15.710967   17.927921   22.616994 C.3        1 MOL1         0.1053
      30    H14     16.726720   18.306759   22.469778 H          1 MOL1         0.0783
      31    O8      15.736854   16.924927   23.638402 O.3        1 MOL1        -0.5519
      32    H15     16.428765   17.238991   24.277241 H          1 MOL1         0.3769
      33    C10     15.255023   17.332641   21.260994 C.3        1 MOL1         0.1018
      34    H16     14.384387   16.683248   21.420502 H          1 MOL1         0.0783
      35    C11     14.941288   18.426849   20.196620 C.3        1 MOL1         0.1043
      36    H17     15.905934   18.791454   19.827848 H          1 MOL1         0.0783
      37    O9      14.209504   19.552530   20.755664 O.3        1 MOL1        -0.3740
      38    C12     14.163270   17.889839   18.972351 C.3        1 MOL1         0.0138
      39    H18     14.827604   17.228385   18.400019 H          1 MOL1         0.0794
      40    H19     13.905043   18.735468   18.320699 H          1 MOL1         0.0794
      41    O10     12.981268   17.177641   19.357180 O.3        1 MOL1        -0.5486
      42    H20     12.500577   16.931598   18.536711 H          1 MOL1         0.3769
      43    C13     18.553325   23.834488   20.700579 C.3        1 MOL1         0.2972
      44    H21     18.956943   24.790267   20.342994 H          1 MOL1         0.0751
      45    O11     19.604102   22.949245   21.133425 O.3        1 MOL1        -0.3740
      46    C14     17.551320   24.053025   21.865606 C.3        1 MOL1         0.1003
      47    H22     16.749716   24.694441   21.476909 H          1 MOL1         0.0783
      48    O12     18.170242   24.711996   22.981822 O.3        1 MOL1        -0.5519
      49    H23     18.909711   24.128571   23.289593 H          1 MOL1         0.3769
      50    C15     16.905716   22.719021   22.320396 C.3        1 MOL1         0.1053
      51    H24     17.673397   22.118200   22.828512 H          1 MOL1         0.0783
      52    O13     15.836926   23.020842   23.223077 O.3        1 MOL1        -0.5519
      53    H25     16.227348   23.613982   23.901070 H          1 MOL1         0.3769
      54    C16     16.365737   21.895426   21.120230 C.3        1 MOL1         0.1018
      55    H26     15.431885   22.354660   20.770888 H          1 MOL1         0.0783
      56    C17     17.375865   21.832173   19.940766 C.3        1 MOL1         0.1043
      57    H27     18.227639   21.213911   20.251646 H          1 MOL1         0.0783
      58    O14     17.836599   23.171484   19.636653 O.3        1 MOL1        -0.3740
      59    C18     16.817621   21.197429   18.639910 C.3        1 MOL1         0.0138
      60    H28     17.057017   20.127081   18.647740 H          1 MOL1         0.0794
      61    H29     17.352360   21.628395   17.782982 H          1 MOL1         0.0794
      62    O15     15.404310   21.378830   18.477028 O.3        1 MOL1        -0.5486
      63    H30     14.958045   20.890542   19.207012 H          1 MOL1         0.3769
      64    C19     23.630580   22.704258   21.978922 C.3        1 MOL1         0.2972
      65    H31     24.685413   22.860890   22.238723 H          1 MOL1         0.0751
      66    O16     23.394397   21.371907   21.481814 O.3        1 MOL1        -0.3740
      67    C20     22.729414   22.954331   23.215314 C.3        1 MOL1         0.1003
      68    H32     22.859424   24.005500   23.504004 H          1 MOL1         0.0783
      69    O17     23.101862   22.117326   24.321651 O.3        1 MOL1        -0.5519
      70    H33     23.776095   21.474951   23.989567 H          1 MOL1         0.3769
      71    C21     21.240432   22.741373   22.860534 C.3        1 MOL1         0.1053
      72    H34     21.095448   21.673686   22.650896 H          1 MOL1         0.0783
      73    O18     20.430831   23.129807   23.975596 O.3        1 MOL1        -0.5519
      74    H35     20.851222   22.693536   24.750219 H          1 MOL1         0.3769
      75    C22     20.827741   23.548033   21.603026 C.3        1 MOL1         0.1018
      76    H36     20.687603   24.598082   21.891745 H          1 MOL1         0.0783
      77    C23     21.867634   23.446744   20.448016 C.3        1 MOL1         0.1043
      78    H37     21.784767   22.444847   20.006715 H          1 MOL1         0.0783
      79    O19     23.216064   23.631070   20.953953 O.3        1 MOL1        -0.3740
      80    C24     21.631939   24.464767   19.306600 C.3        1 MOL1         0.0138
      81    H38     20.735877   24.161367   18.748543 H          1 MOL1         0.0794
      82    H39     22.480727   24.413051   18.611567 H          1 MOL1         0.0794
      83    O20     21.470430   25.801719   19.796934 O.3        1 MOL1        -0.5486
      84    H40     21.412784   26.399394   19.019672 H          1 MOL1         0.3769
      85    C25     25.067138   17.667215   20.921705 C.3        1 MOL1         0.2972
      86    H41     25.662572   16.774920   20.689376 H          1 MOL1         0.0751
      87    O21     23.678321   17.333628   21.148472 O.3        1 MOL1        -0.3740
      88    C26     25.638214   18.422825   22.149885 C.3        1 MOL1         0.1003
      89    H42     26.629815   18.797003   21.863304 H          1 MOL1         0.0783
      90    O22     25.785699   17.569964   23.293688 O.3        1 MOL1        -0.5519
      91    H43     24.874994   17.279211   23.552180 H          1 MOL1         0.3769
      92    C27     24.748785   19.645350   22.481070 C.3        1 MOL1         0.1053
      93    H44     23.762517   19.277188   22.797660 H          1 MOL1         0.0783
      94    O23     25.350702   20.392855   23.542387 O.3        1 MOL1        -0.5519
      95    H45     25.680334   19.716304   24.176407 H          1 MOL1         0.3769
      96    C28     24.552872   20.552190   21.236415 C.3        1 MOL1         0.1018
      97    H46     25.456616   21.157458   21.092591 H          1 MOL1         0.0783
      98    C29     24.261640   19.756385   19.929302 C.3        1 MOL1         0.1043
      99    H47     23.224532   19.408578   19.959583 H          1 MOL1         0.0783
     100    O24     25.128863   18.599703   19.821038 O.3        1 MOL1        -0.3740
     101    C30     24.396157   20.607658   18.642801 C.3        1 MOL1         0.0138
     102    H48     23.560108   21.318961   18.605820 H          1 MOL1         0.0794
     103    H49     24.293228   19.942297   17.775394 H          1 MOL1         0.0794
     104    O25     25.639242   21.317185   18.571605 O.3        1 MOL1        -0.5486
     105    H50     25.569881   22.095847   19.164567 H          1 MOL1         0.3769
     106    C31     21.104419   14.211275   22.139110 C.3        1 MOL1         0.2972
     107    H51     20.658446   13.260223   22.457409 H          1 MOL1         0.0751
     108    O26     20.110459   15.103585   21.607347 O.3        1 MOL1        -0.3740
     109    C32     21.812561   14.889624   23.338259 C.3        1 MOL1         0.1003
     110    H52     22.631825   14.223722   23.638676 H          1 MOL1         0.0783
     111    O27     20.931780   15.054513   24.460209 O.3        1 MOL1        -0.5519
     112    H53     20.208501   15.691720   24.200832 H          1 MOL1         0.3769
     113    C33     22.438553   16.237919   22.915853 C.3        1 MOL1         0.1053
     114    H54     21.631136   16.918625   22.614958 H          1 MOL1         0.0783
     115    O28     23.144930   16.784321   24.033555 O.3        1 MOL1        -0.5519
     116    H55     22.517842   16.700821   24.787130 H          1 MOL1         0.3769
     117    C34     23.391301   16.034088   21.708147 C.3        1 MOL1         0.1018
     118    H56     24.301392   15.528010   22.056665 H          1 MOL1         0.0783
     119    C35     22.723185   15.199822   20.577522 C.3        1 MOL1         0.1043
     120    H57     21.954621   15.833616   20.119969 H          1 MOL1         0.0783
     121    O29     22.094524   13.999887   21.106894 O.3        1 MOL1        -0.3740
     122    C36     23.706089   14.784746   19.456790 C.3        1 MOL1         0.0138
     123    H58     23.990861   15.683663   18.893252 H          1 MOL1         0.0794
     124    H59     23.183960   14.115189   18.760173 H          1 MOL1         0.0794
     125    O30     24.878745   14.146875   19.978099 O.3        1 MOL1        -0.5486
     126    H60     25.417198   13.843681   19.214803 H          1 MOL1         0.3769
     127    C1      18.785589   18.256480   24.145614 C.2        1 MOL1         0.6021
     128    O1      17.831899   18.762791   24.704719 O.co2      1 MOL1        -0.6904
     129    O2      19.039743   17.070093   24.210110 O.co2      1 MOL1        -0.6904
     130    C2      19.618279   19.122616   23.203782 C.3        1 MOL1        -0.2102
     131    H1      20.663179   19.033426   23.522930 H          1 MOL1         0.0687
     132    H2      19.326584   20.171045   23.337618 H          1 MOL1         0.0687
     133    C3      19.474870   18.716380   21.715208 C.3        1 MOL1        -0.1974
     134    H3      19.565494   17.628096   21.637452 H          1 MOL1         0.0689
     135    H4      18.478167   18.980808   21.342636 H          1 MOL1         0.0689
     136    C4      20.551260   19.367391   20.832288 C.3        1 MOL1        -0.2987
     137    H5      21.543881   19.139040   21.234702 H          1 MOL1         0.0700
     138    H6      20.496824   18.987353   19.804583 H          1 MOL1         0.0700
     139    H7      20.434816   20.455600   20.802493 H          1 MOL1         0.0700
@<TRIPOS>BOND
    1     1     2    1
    2     1     3    1
    3     1     4    1
    4     4     5    1
    5     4     6    1
    6     6     7    1
    7     4     8    1
    8     8     9    1
    9     8    10    1
   10    10    11    1
   11     8    12    1
   12    12    13    1
   13    12    14    1
   14    14    15    1
   15     1    16    1
   16    14    16    1
   17    14    17    1
   18    17    18    1
   19    17    19    1
   20    17    20    1
   21    20    21    1
   22    22    23    1
   23    22    24    1
   24    22    25    1
   25    25    26    1
   26    25    27    1
   27    27    28    1
   28    25    29    1
   29    29    30    1
   30    29    31    1
   31    31    32    1
   32     3    33    1
   33    29    33    1
   34    33    34    1
   35    33    35    1
   36    35    36    1
   37    22    37    1
   38    35    37    1
   39    35    38    1
   40    38    39    1
   41    38    40    1
   42    38    41    1
   43    41    42    1
   44    43    44    1
   45    43    45    1
   46    43    46    1
   47    46    47    1
   48    46    48    1
   49    48    49    1
   50    46    50    1
   51    50    51    1
   52    50    52    1
   53    52    53    1
   54    24    54    1
   55    50    54    1
   56    54    55    1
   57    54    56    1
   58    56    57    1
   59    43    58    1
   60    56    58    1
   61    56    59    1
   62    59    60    1
   63    59    61    1
   64    59    62    1
   65    62    63    1
   66    64    65    1
   67    64    66    1
   68    64    67    1
   69    67    68    1
   70    67    69    1
   71    69    70    1
   72    67    71    1
   73    71    72    1
   74    71    73    1
   75    73    74    1
   76    45    75    1
   77    71    75    1
   78    75    76    1
   79    75    77    1
   80    77    78    1
   81    64    79    1
   82    77    79    1
   83    77    80    1
   84    80    81    1
   85    80    82    1
   86    80    83    1
   87    83    84    1
   88    85    86    1
   89    85    87    1
   90    85    88    1
   91    88    89    1
   92    88    90    1
   93    90    91    1
   94    88    92    1
   95    92    93    1
   96    92    94    1
   97    94    95    1
   98    66    96    1
   99    92    96    1
  100    96    97    1
  101    96    98    1
  102    98    99    1
  103    85   100    1
  104    98   100    1
  105    98   101    1
  106   101   102    1
  107   101   103    1
  108   101   104    1
  109   104   105    1
  110   106   107    1
  111    12   108    1
  112   106   108    1
  113   106   109    1
  114   109   110    1
  115   109   111    1
  116   111   112    1
  117   109   113    1
  118   113   114    1
  119   113   115    1
  120   115   116    1
  121    87   117    1
  122   113   117    1
  123   117   118    1
  124   117   119    1
  125   119   120    1
  126   106   121    1
  127   119   121    1
  128   119   122    1
  129   122   123    1
  130   122   124    1
  131   122   125    1
  132   125   126    1
  133   127   128    1
  134   127   129    2
  135   127   130    1
  136   130   131    1
  137   130   132    1
  138   130   133    1
  139   133   134    1
  140   133   135    1
  141   133   136    1
  142   136   137    1
  143   136   138    1
  144   136   139    1
@<TRIPOS>SUBSTRUCTURE
       1 MOL1            1 RESIDUE      1      MOL     
       2 MOL1          139 RESIDUE      1      MOL     
@<SCITEGIC>MOL_PROPERTY
feprocess Rank
SciTegic.value.IntegerValue
9

@<SCITEGIC>MOL_PROPERTY
Conf_Id
SciTegic.value.IntegerValue
21

@<SCITEGIC>MOL_PROPERTY
Probability
SciTegic.value.DoubleValue
1.37

@<SCITEGIC>MOL_PROPERTY
G
SciTegic.value.DoubleValue
484.501

@<SCITEGIC>MOL_PROPERTY
E
SciTegic.value.DoubleValue
307.351

@<SCITEGIC>MOL_PROPERTY
-TS
SciTegic.value.DoubleValue
177.150

@<SCITEGIC>MOL_PROPERTY
U+W
SciTegic.value.DoubleValue
184.840

@<SCITEGIC>MOL_PROPERTY
U
SciTegic.value.DoubleValue
259.234

@<SCITEGIC>MOL_PROPERTY
W
SciTegic.value.DoubleValue
-74.393

@<SCITEGIC>MOL_PROPERTY
W(PB)
SciTegic.value.DoubleValue
-80.368

@<SCITEGIC>MOL_PROPERTY
W(SA)
SciTegic.value.DoubleValue
5.975

@<SCITEGIC>MOL_PROPERTY
Valence
SciTegic.value.DoubleValue
151.741

@<SCITEGIC>MOL_PROPERTY
Coulomb
SciTegic.value.DoubleValue
127.789

@<SCITEGIC>MOL_PROPERTY
VdW
SciTegic.value.DoubleValue
-20.297

@<SCITEGIC>MOL_PROPERTY
VdW6
SciTegic.value.DoubleValue
-177.259

@<SCITEGIC>MOL_PROPERTY
VdW12
SciTegic.value.DoubleValue
156.962

@<SCITEGIC>MOL_PROPERTY
Bond
SciTegic.value.DoubleValue
5.291

@<SCITEGIC>MOL_PROPERTY
Angle
SciTegic.value.DoubleValue
15.722

@<SCITEGIC>MOL_PROPERTY
Pdih
SciTegic.value.DoubleValue
130.699

@<SCITEGIC>MOL_PROPERTY
Idih
SciTegic.value.DoubleValue
0.029

@<SCITEGIC>MOL_PROPERTY
Tether
SciTegic.value.DoubleValue
0.000

@<TRIPOS>MOLECULE
CD_guest-6_fast_vm2_rndm.mol2 : feprocess host+ligand conformer 10
         139         144           2
SMALL
USER_CHARGES
 
@<TRIPOS>ATOM
       1    C1      16.205215   15.414459   21.601684 C.3        1 MOL1         0.2972
       2    H1      15.144200   15.268989   21.840684 H          1 MOL1         0.0751
       3    O1      16.422693   16.643494   20.877753 O.3        1 MOL1        -0.3740
       4    C2      17.064368   15.417295   22.896697 C.3        1 MOL1         0.1003
       5    H2      16.938741   14.435192   23.370233 H          1 MOL1         0.0783
       6    O2      16.628495   16.432741   23.813920 O.3        1 MOL1        -0.5519
       7    H3      15.715598   16.695484   23.551281 H          1 MOL1         0.3769
       8    C3      18.564586   15.589666   22.551019 C.3        1 MOL1         0.1053
       9    H4      18.696544   16.587670   22.116470 H          1 MOL1         0.0783
      10    O3      19.369768   15.473727   23.730288 O.3        1 MOL1        -0.5519
      11    H5      19.471554   16.409756   24.057604 H          1 MOL1         0.3769
      12    C4      19.022677   14.547359   21.499544 C.3        1 MOL1         0.1018
      13    H6      19.103601   13.567100   21.986564 H          1 MOL1         0.0783
      14    C5      18.043159   14.452386   20.296448 C.3        1 MOL1         0.1043
      15    H7      18.141268   15.372198   19.704542 H          1 MOL1         0.0783
      16    O4      16.677564   14.332407   20.771348 O.3        1 MOL1        -0.3740
      17    C6      18.337659   13.264422   19.349274 C.3        1 MOL1         0.0138
      18    H8      19.262760   13.480587   18.797992 H          1 MOL1         0.0794
      19    H9      17.527159   13.196571   18.611304 H          1 MOL1         0.0794
      20    O5      18.472246   12.025437   20.057338 O.3        1 MOL1        -0.5486
      21    H10     18.572540   11.310882   19.391064 H          1 MOL1         0.3769
      22    C7      14.723918   20.365427   20.420165 C.3        1 MOL1         0.2972
      23    H11     14.142343   21.264209   20.178152 H          1 MOL1         0.0751
      24    O6      16.063437   20.698193   20.841514 O.3        1 MOL1        -0.3740
      25    C8      14.020919   19.510439   21.505481 C.3        1 MOL1         0.1003
      26    H12     13.077768   19.156236   21.069029 H          1 MOL1         0.0783
      27    O7      13.721420   20.267279   22.687318 O.3        1 MOL1        -0.5519
      28    H13     14.589523   20.517916   23.093251 H          1 MOL1         0.3769
      29    C9      14.875709   18.267996   21.854917 C.3        1 MOL1         0.1053
      30    H14     15.798103   18.614498   22.342389 H          1 MOL1         0.0783
      31    O8      14.123083   17.444622   22.753728 O.3        1 MOL1        -0.5519
      32    H15     13.668687   18.076647   23.356746 H          1 MOL1         0.3769
      33    C10     15.274302   17.465833   20.581937 C.3        1 MOL1         0.1018
      34    H16     14.420878   16.854693   20.263108 H          1 MOL1         0.0783
      35    C11     15.721008   18.378618   19.402548 C.3        1 MOL1         0.1043
      36    H17     16.730120   18.745725   19.624527 H          1 MOL1         0.0783
      37    O9      14.833128   19.516181   19.258765 O.3        1 MOL1        -0.3740
      38    C12     15.813256   17.639643   18.045225 C.3        1 MOL1         0.0138
      39    H18     16.664604   16.946418   18.082714 H          1 MOL1         0.0794
      40    H19     16.032415   18.378447   17.263052 H          1 MOL1         0.0794
      41    O10     14.615449   16.922353   17.721277 O.3        1 MOL1        -0.5486
      42    H20     14.588392   16.120507   18.285865 H          1 MOL1         0.3769
      43    C13     18.568211   23.570050   22.387943 C.3        1 MOL1         0.2972
      44    H21     19.042193   24.443838   22.851071 H          1 MOL1         0.0751
      45    O11     19.537952   22.711315   21.761878 O.3        1 MOL1        -0.3740
      46    C14     17.800535   22.757292   23.459735 C.3        1 MOL1         0.1003
      47    H22     17.022886   23.415433   23.867985 H          1 MOL1         0.0783
      48    O12     18.671631   22.346802   24.524603 O.3        1 MOL1        -0.5519
      49    H23     19.323960   21.699303   24.132933 H          1 MOL1         0.3769
      50    C15     17.105484   21.527331   22.833916 C.3        1 MOL1         0.1053
      51    H24     17.885430   20.825368   22.512539 H          1 MOL1         0.0783
      52    O13     16.281178   20.905916   23.825409 O.3        1 MOL1        -0.5519
      53    H25     16.880224   20.755647   24.591032 H          1 MOL1         0.3769
      54    C16     16.255560   21.912146   21.594388 C.3        1 MOL1         0.1018
      55    H26     15.305820   22.346591   21.932815 H          1 MOL1         0.0783
      56    C17     16.984091   22.901131   20.640792 C.3        1 MOL1         0.1043
      57    H27     17.755153   22.330985   20.111648 H          1 MOL1         0.0783
      58    O14     17.618861   23.977684   21.378471 O.3        1 MOL1        -0.3740
      59    C18     16.058219   23.517732   19.565255 C.3        1 MOL1         0.0138
      60    H28     15.785052   22.730918   18.849104 H          1 MOL1         0.0794
      61    H29     16.621882   24.280418   19.011378 H          1 MOL1         0.0794
      62    O15     14.873803   24.088671   20.134854 O.3        1 MOL1        -0.5486
      63    H30     14.375513   24.526391   19.410448 H          1 MOL1         0.3769
      64    C19     23.535165   22.621020   20.701179 C.3        1 MOL1         0.2972
      65    H31     24.541174   22.783063   20.293172 H          1 MOL1         0.0751
      66    O16     23.376993   21.287804   21.219162 O.3        1 MOL1        -0.3740
      67    C20     23.215394   23.627169   21.834709 C.3        1 MOL1         0.1003
      68    H32     23.252595   24.630913   21.391757 H          1 MOL1         0.0783
      69    O17     24.183092   23.551320   22.893440 O.3        1 MOL1        -0.5519
      70    H33     24.188183   22.615208   23.218706 H          1 MOL1         0.3769
      71    C21     21.783239   23.407706   22.388040 C.3        1 MOL1         0.1053
      72    H34     21.762249   22.450370   22.928858 H          1 MOL1         0.0783
      73    O18     21.483774   24.485176   23.282185 O.3        1 MOL1        -0.5519
      74    H35     22.247939   24.528738   23.897666 H          1 MOL1         0.3769
      75    C22     20.726835   23.339836   21.247455 C.3        1 MOL1         0.1018
      76    H36     20.522919   24.358444   20.894265 H          1 MOL1         0.0783
      77    C23     21.189137   22.459918   20.051146 C.3        1 MOL1         0.1043
      78    H37     21.169730   21.411896   20.374711 H          1 MOL1         0.0783
      79    O19     22.541265   22.814935   19.672437 O.3        1 MOL1        -0.3740
      80    C24     20.280702   22.546989   18.797949 C.3        1 MOL1         0.0138
      81    H38     19.465948   21.820945   18.911394 H          1 MOL1         0.0794
      82    H39     20.861732   22.230279   17.921670 H          1 MOL1         0.0794
      83    O20     19.738495   23.856783   18.583067 O.3        1 MOL1        -0.5486
      84    H40     19.168511   24.067863   19.354848 H          1 MOL1         0.3769
      85    C25     25.143890   17.697049   21.975637 C.3        1 MOL1         0.2972
      86    H41     25.780241   16.825287   22.175097 H          1 MOL1         0.0751
      87    O21     23.770873   17.321651   21.759779 O.3        1 MOL1        -0.3740
      88    C26     25.189846   18.667079   23.177799 C.3        1 MOL1         0.1003
      89    H42     26.223324   19.023379   23.278276 H          1 MOL1         0.0783
      90    O22     24.801076   17.989256   24.383150 O.3        1 MOL1        -0.5519
      91    H43     24.171551   17.273510   24.119590 H          1 MOL1         0.3769
      92    C27     24.282917   19.892879   22.924102 C.3        1 MOL1         0.1053
      93    H44     23.238878   19.551295   22.939046 H          1 MOL1         0.0783
      94    O23     24.485918   20.851048   23.967780 O.3        1 MOL1        -0.5519
      95    H45     24.392266   20.339050   24.801830 H          1 MOL1         0.3769
      96    C28     24.564568   20.547106   21.545319 C.3        1 MOL1         0.1018
      97    H46     25.446452   21.195122   21.635121 H          1 MOL1         0.0783
      98    C29     24.760574   19.518765   20.392513 C.3        1 MOL1         0.1043
      99    H47     23.768562   19.131197   20.126818 H          1 MOL1         0.0783
     100    O24     25.600410   18.411472   20.810013 O.3        1 MOL1        -0.3740
     101    C30     25.362458   20.135055   19.107355 C.3        1 MOL1         0.0138
     102    H48     24.607613   20.786818   18.646897 H          1 MOL1         0.0794
     103    H49     25.571938   19.325540   18.395226 H          1 MOL1         0.0794
     104    O25     26.554134   20.884414   19.374735 O.3        1 MOL1        -0.5486
     105    H50     26.921680   21.177885   18.512548 H          1 MOL1         0.3769
     106    C31     21.360589   14.041531   20.885396 C.3        1 MOL1         0.2972
     107    H51     20.978371   13.055608   20.592061 H          1 MOL1         0.0751
     108    O26     20.290955   15.005891   20.986660 O.3        1 MOL1        -0.3740
     109    C32     22.149572   13.958908   22.224711 C.3        1 MOL1         0.1003
     110    H52     22.995856   13.281589   22.051161 H          1 MOL1         0.0783
     111    O27     21.357201   13.431239   23.298734 O.3        1 MOL1        -0.5519
     112    H53     20.644476   14.095980   23.478293 H          1 MOL1         0.3769
     113    C33     22.727492   15.342363   22.608447 C.3        1 MOL1         0.1053
     114    H54     21.891158   16.017642   22.835420 H          1 MOL1         0.0783
     115    O28     23.570351   15.210575   23.758546 O.3        1 MOL1        -0.5519
     116    H55     23.062089   14.652116   24.387783 H          1 MOL1         0.3769
     117    C34     23.536758   15.942338   21.433768 C.3        1 MOL1         0.1018
     118    H56     24.471851   15.376146   21.331775 H          1 MOL1         0.0783
     119    C35     22.759224   15.886107   20.089332 C.3        1 MOL1         0.1043
     120    H57     21.902842   16.567424   20.154008 H          1 MOL1         0.0783
     121    O29     22.280409   14.532575   19.882461 O.3        1 MOL1        -0.3740
     122    C36     23.575233   16.327157   18.846011 C.3        1 MOL1         0.0138
     123    H58     23.429989   17.405174   18.701685 H          1 MOL1         0.0794
     124    H59     23.156751   15.831204   17.960102 H          1 MOL1         0.0794
     125    O30     24.975876   16.044839   18.952548 O.3        1 MOL1        -0.5486
     126    H60     25.361891   16.729623   19.546924 H          1 MOL1         0.3769
     127    C1      20.252741   19.120867   23.202041 C.2        1 MOL1         0.6021
     128    O1      19.993575   18.207164   23.962293 O.co2      1 MOL1        -0.6904
     129    O2      20.287096   20.291123   23.530679 O.co2      1 MOL1        -0.6904
     130    C2      20.555115   18.770728   21.747089 C.3        1 MOL1        -0.2102
     131    H1      20.779010   17.701439   21.705312 H          1 MOL1         0.0687
     132    H2      21.464989   19.302092   21.451422 H          1 MOL1         0.0687
     133    C3      19.402143   19.102196   20.769184 C.3        1 MOL1        -0.1974
     134    H3      18.478722   18.622395   21.117726 H          1 MOL1         0.0689
     135    H4      19.214765   20.182268   20.777659 H          1 MOL1         0.0689
     136    C4      19.723940   18.642383   19.332813 C.3        1 MOL1        -0.2987
     137    H5      18.921712   18.932912   18.643272 H          1 MOL1         0.0700
     138    H6      20.658338   19.095098   18.976952 H          1 MOL1         0.0700
     139    H7      19.830833   17.550728   19.289266 H          1 MOL1         0.0700
@<TRIPOS>BOND
    1     1     2    1
    2     1     3    1
    3     1     4    1
    4     4     5    1
    5     4     6    1
    6     6     7    1
    7     4     8    1
    8     8     9    1
    9     8    10    1
   10    10    11    1
   11     8    12    1
   12    12    13    1
   13    12    14    1
   14    14    15    1
   15     1    16    1
   16    14    16    1
   17    14    17    1
   18    17    18    1
   19    17    19    1
   20    17    20    1
   21    20    21    1
   22    22    23    1
   23    22    24    1
   24    22    25    1
   25    25    26    1
   26    25    27    1
   27    27    28    1
   28    25    29    1
   29    29    30    1
   30    29    31    1
   31    31    32    1
   32     3    33    1
   33    29    33    1
   34    33    34    1
   35    33    35    1
   36    35    36    1
   37    22    37    1
   38    35    37    1
   39    35    38    1
   40    38    39    1
   41    38    40    1
   42    38    41    1
   43    41    42    1
   44    43    44    1
   45    43    45    1
   46    43    46    1
   47    46    47    1
   48    46    48    1
   49    48    49    1
   50    46    50    1
   51    50    51    1
   52    50    52    1
   53    52    53    1
   54    24    54    1
   55    50    54    1
   56    54    55    1
   57    54    56    1
   58    56    57    1
   59    43    58    1
   60    56    58    1
   61    56    59    1
   62    59    60    1
   63    59    61    1
   64    59    62    1
   65    62    63    1
   66    64    65    1
   67    64    66    1
   68    64    67    1
   69    67    68    1
   70    67    69    1
   71    69    70    1
   72    67    71    1
   73    71    72    1
   74    71    73    1
   75    73    74    1
   76    45    75    1
   77    71    75    1
   78    75    76    1
   79    75    77    1
   80    77    78    1
   81    64    79    1
   82    77    79    1
   83    77    80    1
   84    80    81    1
   85    80    82    1
   86    80    83    1
   87    83    84    1
   88    85    86    1
   89    85    87    1
   90    85    88    1
   91    88    89    1
   92    88    90    1
   93    90    91    1
   94    88    92    1
   95    92    93    1
   96    92    94    1
   97    94    95    1
   98    66    96    1
   99    92    96    1
  100    96    97    1
  101    96    98    1
  102    98    99    1
  103    85   100    1
  104    98   100    1
  105    98   101    1
  106   101   102    1
  107   101   103    1
  108   101   104    1
  109   104   105    1
  110   106   107    1
  111    12   108    1
  112   106   108    1
  113   106   109    1
  114   109   110    1
  115   109   111    1
  116   111   112    1
  117   109   113    1
  118   113   114    1
  119   113   115    1
  120   115   116    1
  121    87   117    1
  122   113   117    1
  123   117   118    1
  124   117   119    1
  125   119   120    1
  126   106   121    1
  127   119   121    1
  128   119   122    1
  129   122   123    1
  130   122   124    1
  131   122   125    1
  132   125   126    1
  133   127   128    1
  134   127   129    2
  135   127   130    1
  136   130   131    1
  137   130   132    1
  138   130   133    1
  139   133   134    1
  140   133   135    1
  141   133   136    1
  142   136   137    1
  143   136   138    1
  144   136   139    1
@<TRIPOS>SUBSTRUCTURE
       1 MOL1            1 RESIDUE      1      MOL     
       2 MOL1          139 RESIDUE      1      MOL     
@<SCITEGIC>MOL_PROPERTY
feprocess Rank
SciTegic.value.IntegerValue
10

@<SCITEGIC>MOL_PROPERTY
Conf_Id
SciTegic.value.IntegerValue
750

@<SCITEGIC>MOL_PROPERTY
Probability
SciTegic.value.DoubleValue
0.95

@<SCITEGIC>MOL_PROPERTY
G
SciTegic.value.DoubleValue
484.722

@<SCITEGIC>MOL_PROPERTY
E
SciTegic.value.DoubleValue
307.372

@<SCITEGIC>MOL_PROPERTY
-TS
SciTegic.value.DoubleValue
177.350

@<SCITEGIC>MOL_PROPERTY
U+W
SciTegic.value.DoubleValue
184.861

@<SCITEGIC>MOL_PROPERTY
U
SciTegic.value.DoubleValue
261.608

@<SCITEGIC>MOL_PROPERTY
W
SciTegic.value.DoubleValue
-76.748

@<SCITEGIC>MOL_PROPERTY
W(PB)
SciTegic.value.DoubleValue
-82.679

@<SCITEGIC>MOL_PROPERTY
W(SA)
SciTegic.value.DoubleValue
5.932

@<SCITEGIC>MOL_PROPERTY
Valence
SciTegic.value.DoubleValue
149.356

@<SCITEGIC>MOL_PROPERTY
Coulomb
SciTegic.value.DoubleValue
134.980

@<SCITEGIC>MOL_PROPERTY
VdW
SciTegic.value.DoubleValue
-22.728

@<SCITEGIC>MOL_PROPERTY
VdW6
SciTegic.value.DoubleValue
-178.694

@<SCITEGIC>MOL_PROPERTY
VdW12
SciTegic.value.DoubleValue
155.966

@<SCITEGIC>MOL_PROPERTY
Bond
SciTegic.value.DoubleValue
5.095

@<SCITEGIC>MOL_PROPERTY
Angle
SciTegic.value.DoubleValue
15.012

@<SCITEGIC>MOL_PROPERTY
Pdih
SciTegic.value.DoubleValue
129.249

@<SCITEGIC>MOL_PROPERTY
Idih
SciTegic.value.DoubleValue
0.000

@<SCITEGIC>MOL_PROPERTY
Tether
SciTegic.value.DoubleValue
0.000

@<TRIPOS>MOLECULE
CD_guest-6_fast_vm2_rndm.mol2 : feprocess host+ligand conformer 11
         139         144           2
SMALL
USER_CHARGES
 
@<TRIPOS>ATOM
       1    C1      16.294620   15.362466   21.949581 C.3        1 MOL1         0.2972
       2    H1      15.277853   15.264716   22.349823 H          1 MOL1         0.0751
       3    O1      16.437119   16.556604   21.149431 O.3        1 MOL1        -0.3740
       4    C2      17.326966   15.363684   23.110667 C.3        1 MOL1         0.1003
       5    H2      17.212115   14.409932   23.640866 H          1 MOL1         0.0783
       6    O2      17.090116   16.438599   24.035549 O.3        1 MOL1        -0.5519
       7    H3      17.676795   17.198329   23.773081 H          1 MOL1         0.3769
       8    C3      18.769237   15.431006   22.565335 C.3        1 MOL1         0.1053
       9    H4      18.890230   16.418905   22.113676 H          1 MOL1         0.0783
      10    O3      19.714006   15.260946   23.629832 O.3        1 MOL1        -0.5519
      11    H5      20.033929   16.180144   23.844016 H          1 MOL1         0.3769
      12    C4      19.047077   14.400744   21.445598 C.3        1 MOL1         0.1018
      13    H6      19.225298   13.415580   21.892551 H          1 MOL1         0.0783
      14    C5      17.887973   14.306865   20.414262 C.3        1 MOL1         0.1043
      15    H7      17.916661   15.209100   19.789077 H          1 MOL1         0.0783
      16    O4      16.607815   14.239484   21.096059 O.3        1 MOL1        -0.3740
      17    C6      18.006010   13.092651   19.462398 C.3        1 MOL1         0.0138
      18    H8      18.844838   13.270097   18.776034 H          1 MOL1         0.0794
      19    H9      17.093502   13.035603   18.853937 H          1 MOL1         0.0794
      20    O5      18.210114   11.863653   20.170650 O.3        1 MOL1        -0.5486
      21    H10     18.202490   11.134905   19.512213 H          1 MOL1         0.3769
      22    C7      14.705896   20.220519   20.590056 C.3        1 MOL1         0.2972
      23    H11     14.103843   21.108376   20.359336 H          1 MOL1         0.0751
      24    O6      16.094873   20.567418   20.776975 O.3        1 MOL1        -0.3740
      25    C8      14.148833   19.481006   21.834940 C.3        1 MOL1         0.1003
      26    H12     13.128762   19.166296   21.578866 H          1 MOL1         0.0783
      27    O7      14.088334   20.330405   22.991180 O.3        1 MOL1        -0.5519
      28    H13     15.026670   20.512533   23.252507 H          1 MOL1         0.3769
      29    C9      14.964484   18.204247   22.152944 C.3        1 MOL1         0.1053
      30    H14     15.936563   18.510553   22.562661 H          1 MOL1         0.0783
      31    O8      14.233451   17.446434   23.123747 O.3        1 MOL1        -0.5519
      32    H15     14.120651   18.044705   23.893194 H          1 MOL1         0.3769
      33    C10     15.238948   17.324251   20.900779 C.3        1 MOL1         0.1018
      34    H16     14.376148   16.667834   20.734069 H          1 MOL1         0.0783
      35    C11     15.516827   18.137099   19.602398 C.3        1 MOL1         0.1043
      36    H17     16.550113   18.497805   19.638948 H          1 MOL1         0.0783
      37    O9      14.630569   19.279044   19.499709 O.3        1 MOL1        -0.3740
      38    C12     15.400344   17.294569   18.308695 C.3        1 MOL1         0.0138
      39    H18     16.227347   16.571966   18.287542 H          1 MOL1         0.0794
      40    H19     15.533338   17.963307   17.448002 H          1 MOL1         0.0794
      41    O10     14.148189   16.604654   18.203867 O.3        1 MOL1        -0.5486
      42    H20     14.168026   15.853720   18.834723 H          1 MOL1         0.3769
      43    C13     18.619275   23.684306   21.907295 C.3        1 MOL1         0.2972
      44    H21     19.026664   24.625161   22.297275 H          1 MOL1         0.0751
      45    O11     19.603913   22.958408   21.141747 O.3        1 MOL1        -0.3740
      46    C14     18.117994   22.785392   23.071224 C.3        1 MOL1         0.1003
      47    H22     17.342923   23.348233   23.606810 H          1 MOL1         0.0783
      48    O12     19.187584   22.479775   23.980985 O.3        1 MOL1        -0.5519
      49    H23     19.864008   23.190249   23.886249 H          1 MOL1         0.3769
      50    C15     17.472394   21.489505   22.518653 C.3        1 MOL1         0.1053
      51    H24     18.257977   20.911904   22.022192 H          1 MOL1         0.0783
      52    O13     16.908564   20.709875   23.580358 O.3        1 MOL1        -0.5519
      53    H25     17.605820   20.029483   23.787048 H          1 MOL1         0.3769
      54    C16     16.389501   21.805968   21.457294 C.3        1 MOL1         0.1018
      55    H26     15.508183   22.222496   21.961304 H          1 MOL1         0.0783
      56    C17     16.901598   22.811614   20.390288 C.3        1 MOL1         0.1043
      57    H27     17.660787   22.305309   19.780021 H          1 MOL1         0.0783
      58    O14     17.498911   23.961311   21.040340 O.3        1 MOL1        -0.3740
      59    C18     15.796615   23.313040   19.429721 C.3        1 MOL1         0.0138
      60    H28     15.513237   22.486248   18.764430 H          1 MOL1         0.0794
      61    H29     16.215776   24.109027   18.799809 H          1 MOL1         0.0794
      62    O15     14.641408   23.789297   20.132180 O.3        1 MOL1        -0.5486
      63    H30     14.022742   24.164646   19.468210 H          1 MOL1         0.3769
      64    C19     23.736893   22.767954   20.824808 C.3        1 MOL1         0.2972
      65    H31     24.805804   22.915694   20.624167 H          1 MOL1         0.0751
      66    O16     23.439976   21.388595   21.123630 O.3        1 MOL1        -0.3740
      67    C20     23.243424   23.681460   21.976804 C.3        1 MOL1         0.1003
      68    H32     23.348524   24.716805   21.626735 H          1 MOL1         0.0783
      69    O17     24.023481   23.526202   23.171151 O.3        1 MOL1        -0.5519
      70    H33     23.875482   22.602178   23.494969 H          1 MOL1         0.3769
      71    C21     21.741377   23.431770   22.260277 C.3        1 MOL1         0.1053
      72    H34     21.626547   22.404059   22.632915 H          1 MOL1         0.0783
      73    O18     21.312575   24.365995   23.258071 O.3        1 MOL1        -0.5519
      74    H35     22.068331   24.431005   23.885924 H          1 MOL1         0.3769
      75    C22     20.895770   23.576850   20.960389 C.3        1 MOL1         0.1018
      76    H36     20.791281   24.642553   20.721520 H          1 MOL1         0.0783
      77    C23     21.538993   22.841549   19.749028 C.3        1 MOL1         0.1043
      78    H37     21.404051   21.762002   19.898209 H          1 MOL1         0.0783
      79    O19     22.958069   23.132799   19.665745 O.3        1 MOL1        -0.3740
      80    C24     20.880387   23.190964   18.391479 C.3        1 MOL1         0.0138
      81    H38     19.878533   22.742089   18.362137 H          1 MOL1         0.0794
      82    H39     21.467592   22.722943   17.590362 H          1 MOL1         0.0794
      83    O20     20.783875   24.603572   18.169582 O.3        1 MOL1        -0.5486
      84    H40     20.067974   24.944883   18.747170 H          1 MOL1         0.3769
      85    C25     24.720074   17.721453   22.355174 C.3        1 MOL1         0.2972
      86    H41     25.222871   16.825859   22.740038 H          1 MOL1         0.0751
      87    O21     23.527346   17.388803   21.617350 O.3        1 MOL1        -0.3740
      88    C26     24.354945   18.665991   23.527194 C.3        1 MOL1         0.1003
      89    H42     25.297618   18.954474   24.009704 H          1 MOL1         0.0783
      90    O22     23.516689   18.012876   24.494182 O.3        1 MOL1        -0.5519
      91    H43     22.630699   17.851442   24.065825 H          1 MOL1         0.3769
      92    C27     23.668302   19.951428   23.019004 C.3        1 MOL1         0.1053
      93    H44     22.673371   19.671379   22.663828 H          1 MOL1         0.0783
      94    O23     23.535117   20.867901   24.109431 O.3        1 MOL1        -0.5519
      95    H45     23.138576   20.337445   24.836911 H          1 MOL1         0.3769
      96    C28     24.425900   20.617161   21.838887 C.3        1 MOL1         0.1018
      97    H46     25.233507   21.242837   22.240791 H          1 MOL1         0.0783
      98    C29     24.998381   19.598811   20.809442 C.3        1 MOL1         0.1043
      99    H47     24.163233   19.252209   20.188391 H          1 MOL1         0.0783
     100    O24     25.594434   18.453456   21.470821 O.3        1 MOL1        -0.3740
     101    C30     26.044002   20.215668   19.850249 C.3        1 MOL1         0.0138
     102    H48     25.527762   20.909456   19.173014 H          1 MOL1         0.0794
     103    H49     26.469382   19.413311   19.232619 H          1 MOL1         0.0794
     104    O25     27.083253   20.907045   20.554079 O.3        1 MOL1        -0.5486
     105    H50     27.744989   21.204592   19.891971 H          1 MOL1         0.3769
     106    C31     21.317859   14.053215   20.470972 C.3        1 MOL1         0.2972
     107    H51     20.971858   13.093521   20.066854 H          1 MOL1         0.0751
     108    O26     20.201772   14.921976   20.754309 O.3        1 MOL1        -0.3740
     109    C32     22.221949   13.835786   21.720347 C.3        1 MOL1         0.1003
     110    H52     23.060996   13.213175   21.383480 H          1 MOL1         0.0783
     111    O27     21.545539   13.144889   22.781638 O.3        1 MOL1        -0.5519
     112    H53     20.875101   13.778848   23.141691 H          1 MOL1         0.3769
     113    C33     22.820470   15.160721   22.254824 C.3        1 MOL1         0.1053
     114    H54     22.017106   15.741358   22.722393 H          1 MOL1         0.0783
     115    O28     23.821312   14.834489   23.225470 O.3        1 MOL1        -0.5519
     116    H55     23.379187   14.234436   23.864344 H          1 MOL1         0.3769
     117    C34     23.430308   16.035912   21.128744 C.3        1 MOL1         0.1018
     118    H56     24.414641   15.634025   20.857372 H          1 MOL1         0.0783
     119    C35     22.529454   16.088154   19.864780 C.3        1 MOL1         0.1043
     120    H57     21.638439   16.681824   20.107382 H          1 MOL1         0.0783
     121    O29     22.129535   14.742608   19.493011 O.3        1 MOL1        -0.3740
     122    C36     23.191456   16.776742   18.644716 C.3        1 MOL1         0.0138
     123    H58     23.098796   17.863275   18.770120 H          1 MOL1         0.0794
     124    H59     22.623457   16.510934   17.743320 H          1 MOL1         0.0794
     125    O30     24.571523   16.426365   18.480674 O.3        1 MOL1        -0.5486
     126    H60     25.064968   16.821922   19.231948 H          1 MOL1         0.3769
     127    C1      19.987780   18.531150   22.995986 C.2        1 MOL1         0.6021
     128    O1      18.853134   18.615763   23.434446 O.co2      1 MOL1        -0.6904
     129    O2      20.856376   17.864889   23.529568 O.co2      1 MOL1        -0.6904
     130    C2      20.289021   19.115671   21.612755 C.3        1 MOL1        -0.2102
     131    H1      21.282130   18.780983   21.299191 H          1 MOL1         0.0687
     132    H2      20.339341   20.204395   21.721462 H          1 MOL1         0.0687
     133    C3      19.271159   18.721516   20.515193 C.3        1 MOL1        -0.1974
     134    H3      19.341093   17.645245   20.313623 H          1 MOL1         0.0689
     135    H4      18.256763   18.909905   20.884536 H          1 MOL1         0.0689
     136    C4      19.500941   19.504921   19.208419 C.3        1 MOL1        -0.2987
     137    H5      20.518397   19.346684   18.828527 H          1 MOL1         0.0700
     138    H6      18.791885   19.182566   18.435486 H          1 MOL1         0.0700
     139    H7      19.354460   20.578678   19.374221 H          1 MOL1         0.0700
@<TRIPOS>BOND
    1     1     2    1
    2     1     3    1
    3     1     4    1
    4     4     5    1
    5     4     6    1
    6     6     7    1
    7     4     8    1
    8     8     9    1
    9     8    10    1
   10    10    11    1
   11     8    12    1
   12    12    13    1
   13    12    14    1
   14    14    15    1
   15     1    16    1
   16    14    16    1
   17    14    17    1
   18    17    18    1
   19    17    19    1
   20    17    20    1
   21    20    21    1
   22    22    23    1
   23    22    24    1
   24    22    25    1
   25    25    26    1
   26    25    27    1
   27    27    28    1
   28    25    29    1
   29    29    30    1
   30    29    31    1
   31    31    32    1
   32     3    33    1
   33    29    33    1
   34    33    34    1
   35    33    35    1
   36    35    36    1
   37    22    37    1
   38    35    37    1
   39    35    38    1
   40    38    39    1
   41    38    40    1
   42    38    41    1
   43    41    42    1
   44    43    44    1
   45    43    45    1
   46    43    46    1
   47    46    47    1
   48    46    48    1
   49    48    49    1
   50    46    50    1
   51    50    51    1
   52    50    52    1
   53    52    53    1
   54    24    54    1
   55    50    54    1
   56    54    55    1
   57    54    56    1
   58    56    57    1
   59    43    58    1
   60    56    58    1
   61    56    59    1
   62    59    60    1
   63    59    61    1
   64    59    62    1
   65    62    63    1
   66    64    65    1
   67    64    66    1
   68    64    67    1
   69    67    68    1
   70    67    69    1
   71    69    70    1
   72    67    71    1
   73    71    72    1
   74    71    73    1
   75    73    74    1
   76    45    75    1
   77    71    75    1
   78    75    76    1
   79    75    77    1
   80    77    78    1
   81    64    79    1
   82    77    79    1
   83    77    80    1
   84    80    81    1
   85    80    82    1
   86    80    83    1
   87    83    84    1
   88    85    86    1
   89    85    87    1
   90    85    88    1
   91    88    89    1
   92    88    90    1
   93    90    91    1
   94    88    92    1
   95    92    93    1
   96    92    94    1
   97    94    95    1
   98    66    96    1
   99    92    96    1
  100    96    97    1
  101    96    98    1
  102    98    99    1
  103    85   100    1
  104    98   100    1
  105    98   101    1
  106   101   102    1
  107   101   103    1
  108   101   104    1
  109   104   105    1
  110   106   107    1
  111    12   108    1
  112   106   108    1
  113   106   109    1
  114   109   110    1
  115   109   111    1
  116   111   112    1
  117   109   113    1
  118   113   114    1
  119   113   115    1
  120   115   116    1
  121    87   117    1
  122   113   117    1
  123   117   118    1
  124   117   119    1
  125   119   120    1
  126   106   121    1
  127   119   121    1
  128   119   122    1
  129   122   123    1
  130   122   124    1
  131   122   125    1
  132   125   126    1
  133   127   128    1
  134   127   129    2
  135   127   130    1
  136   130   131    1
  137   130   132    1
  138   130   133    1
  139   133   134    1
  140   133   135    1
  141   133   136    1
  142   136   137    1
  143   136   138    1
  144   136   139    1
@<TRIPOS>SUBSTRUCTURE
       1 MOL1            1 RESIDUE      1      MOL     
       2 MOL1          139 RESIDUE      1      MOL     
@<SCITEGIC>MOL_PROPERTY
feprocess Rank
SciTegic.value.IntegerValue
11

@<SCITEGIC>MOL_PROPERTY
Conf_Id
SciTegic.value.IntegerValue
589

@<SCITEGIC>MOL_PROPERTY
Probability
SciTegic.value.DoubleValue
0.85

@<SCITEGIC>MOL_PROPERTY
G
SciTegic.value.DoubleValue
484.787

@<SCITEGIC>MOL_PROPERTY
E
SciTegic.value.DoubleValue
305.248

@<SCITEGIC>MOL_PROPERTY
-TS
SciTegic.value.DoubleValue
179.538

@<SCITEGIC>MOL_PROPERTY
U+W
SciTegic.value.DoubleValue
182.737

@<SCITEGIC>MOL_PROPERTY
U
SciTegic.value.DoubleValue
255.655

@<SCITEGIC>MOL_PROPERTY
W
SciTegic.value.DoubleValue
-72.918

@<SCITEGIC>MOL_PROPERTY
W(PB)
SciTegic.value.DoubleValue
-78.887

@<SCITEGIC>MOL_PROPERTY
W(SA)
SciTegic.value.DoubleValue
5.969

@<SCITEGIC>MOL_PROPERTY
Valence
SciTegic.value.DoubleValue
150.356

@<SCITEGIC>MOL_PROPERTY
Coulomb
SciTegic.value.DoubleValue
125.755

@<SCITEGIC>MOL_PROPERTY
VdW
SciTegic.value.DoubleValue
-20.455

@<SCITEGIC>MOL_PROPERTY
VdW6
SciTegic.value.DoubleValue
-181.957

@<SCITEGIC>MOL_PROPERTY
VdW12
SciTegic.value.DoubleValue
161.501

@<SCITEGIC>MOL_PROPERTY
Bond
SciTegic.value.DoubleValue
5.496

@<SCITEGIC>MOL_PROPERTY
Angle
SciTegic.value.DoubleValue
17.238

@<SCITEGIC>MOL_PROPERTY
Pdih
SciTegic.value.DoubleValue
127.566

@<SCITEGIC>MOL_PROPERTY
Idih
SciTegic.value.DoubleValue
0.056

@<SCITEGIC>MOL_PROPERTY
Tether
SciTegic.value.DoubleValue
0.000

@<TRIPOS>MOLECULE
CD_guest-6_fast_vm2_rndm.mol2 : feprocess host+ligand conformer 12
         139         144           2
SMALL
USER_CHARGES
 
@<TRIPOS>ATOM
       1    C1      16.474965   15.293761   22.285506 C.3        1 MOL1         0.2972
       2    H1      15.451290   15.277542   22.680389 H          1 MOL1         0.0751
       3    O1      16.811996   16.590150   21.756983 O.3        1 MOL1        -0.3740
       4    C2      17.475736   14.918368   23.406447 C.3        1 MOL1         0.1003
       5    H2      17.226223   13.900883   23.733720 H          1 MOL1         0.0783
       6    O2      17.363982   15.813346   24.524013 O.3        1 MOL1        -0.5519
       7    H3      17.648949   16.715800   24.205745 H          1 MOL1         0.3769
       8    C3      18.929446   14.910236   22.886080 C.3        1 MOL1         0.1053
       9    H4      19.214886   15.949571   22.703857 H          1 MOL1         0.0783
      10    O3      19.788542   14.358727   23.889014 O.3        1 MOL1        -0.5519
      11    H5      19.564434   14.849514   24.711375 H          1 MOL1         0.3769
      12    C4      19.099332   14.135822   21.553785 C.3        1 MOL1         0.1018
      13    H6      19.241683   13.069676   21.773796 H          1 MOL1         0.0783
      14    C5      17.921563   14.330688   20.556086 C.3        1 MOL1         0.1043
      15    H7      18.068051   15.306603   20.083465 H          1 MOL1         0.0783
      16    O4      16.632430   14.328237   21.223608 O.3        1 MOL1        -0.3740
      17    C6      17.893959   13.281436   19.419382 C.3        1 MOL1         0.0138
      18    H8      18.750687   13.463216   18.756529 H          1 MOL1         0.0794
      19    H9      16.984019   13.432252   18.823082 H          1 MOL1         0.0794
      20    O5      17.943369   11.940734   19.921813 O.3        1 MOL1        -0.5486
      21    H10     17.845292   11.331587   19.157521 H          1 MOL1         0.3769
      22    C7      15.005318   20.164341   20.609811 C.3        1 MOL1         0.2972
      23    H11     14.353196   20.933946   20.179466 H          1 MOL1         0.0751
      24    O6      16.246370   20.722024   21.082291 O.3        1 MOL1        -0.3740
      25    C8      14.303539   19.435704   21.783871 C.3        1 MOL1         0.1003
      26    H12     13.395137   18.974758   21.374641 H          1 MOL1         0.0783
      27    O7      13.926891   20.356727   22.819175 O.3        1 MOL1        -0.5519
      28    H13     14.747501   20.837721   23.097783 H          1 MOL1         0.3769
      29    C9      15.189042   18.297544   22.354905 C.3        1 MOL1         0.1053
      30    H14     16.053311   18.748268   22.864127 H          1 MOL1         0.0783
      31    O8      14.403676   17.543466   23.284658 O.3        1 MOL1        -0.5519
      32    H15     14.024494   18.207507   23.900697 H          1 MOL1         0.3769
      33    C10     15.720738   17.369159   21.227729 C.3        1 MOL1         0.1018
      34    H16     14.898471   16.728503   20.884132 H          1 MOL1         0.0783
      35    C11     16.282495   18.170011   20.018820 C.3        1 MOL1         0.1043
      36    H17     17.207315   18.665979   20.337149 H          1 MOL1         0.0783
      37    O9      15.317991   19.170454   19.612472 O.3        1 MOL1        -0.3740
      38    C12     16.641234   17.308442   18.780970 C.3        1 MOL1         0.0138
      39    H18     17.684943   16.985163   18.876207 H          1 MOL1         0.0794
      40    H19     16.593416   17.943580   17.886391 H          1 MOL1         0.0794
      41    O10     15.788009   16.167062   18.619626 O.3        1 MOL1        -0.5486
      42    H20     15.905433   15.597175   19.412783 H          1 MOL1         0.3769
      43    C13     18.412601   24.192078   21.595084 C.3        1 MOL1         0.2972
      44    H21     18.779812   25.219052   21.715794 H          1 MOL1         0.0751
      45    O11     19.490499   23.245532   21.472357 O.3        1 MOL1        -0.3740
      46    C14     17.547395   23.790779   22.814067 C.3        1 MOL1         0.1003
      47    H22     16.681570   24.465269   22.837563 H          1 MOL1         0.0783
      48    O12     18.283081   23.932263   24.039350 O.3        1 MOL1        -0.5519
      49    H23     19.240375   23.800135   23.824106 H          1 MOL1         0.3769
      50    C15     17.017572   22.346289   22.658950 C.3        1 MOL1         0.1053
      51    H24     17.871972   21.657238   22.716501 H          1 MOL1         0.0783
      52    O13     16.101899   22.071022   23.723544 O.3        1 MOL1        -0.5519
      53    H25     16.571964   22.357392   24.538502 H          1 MOL1         0.3769
      54    C16     16.312495   22.144946   21.292388 C.3        1 MOL1         0.1018
      55    H26     15.315389   22.600310   21.345660 H          1 MOL1         0.0783
      56    C17     17.118491   22.744500   20.101624 C.3        1 MOL1         0.1043
      57    H27     17.985208   22.094435   19.922513 H          1 MOL1         0.0783
      58    O14     17.588220   24.080974   20.417411 O.3        1 MOL1        -0.3740
      59    C18     16.321563   22.810718   18.776131 C.3        1 MOL1         0.0138
      60    H28     16.102136   21.787288   18.442813 H          1 MOL1         0.0794
      61    H29     16.963368   23.266853   18.010796 H          1 MOL1         0.0794
      62    O15     15.105990   23.561252   18.900277 O.3        1 MOL1        -0.5486
      63    H30     14.493880   23.066060   19.481607 H          1 MOL1         0.3769
      64    C19     23.592646   22.837638   21.027278 C.3        1 MOL1         0.2972
      65    H31     24.666394   22.974305   20.846100 H          1 MOL1         0.0751
      66    O16     23.250294   21.435382   21.092445 O.3        1 MOL1        -0.3740
      67    C20     23.141749   23.580879   22.317412 C.3        1 MOL1         0.1003
      68    H32     23.325820   24.649432   22.145677 H          1 MOL1         0.0783
      69    O17     23.882916   23.173739   23.476759 O.3        1 MOL1        -0.5519
      70    H33     23.612391   22.240240   23.668190 H          1 MOL1         0.3769
      71    C21     21.622438   23.399209   22.552309 C.3        1 MOL1         0.1053
      72    H34     21.426869   22.340095   22.765372 H          1 MOL1         0.0783
      73    O18     21.212842   24.202458   23.663557 O.3        1 MOL1        -0.5519
      74    H35     21.899505   24.057741   24.352328 H          1 MOL1         0.3769
      75    C22     20.810836   23.789208   21.293896 C.3        1 MOL1         0.1018
      76    H36     20.803895   24.883180   21.206187 H          1 MOL1         0.0783
      77    C23     21.398054   23.171262   19.995143 C.3        1 MOL1         0.1043
      78    H37     21.219434   22.091060   20.021896 H          1 MOL1         0.0783
      79    O19     22.828851   23.409700   19.939884 O.3        1 MOL1        -0.3740
      80    C24     20.741315   23.691919   18.692348 C.3        1 MOL1         0.0138
      81    H38     19.783721   23.172249   18.555319 H          1 MOL1         0.0794
      82    H39     21.382168   23.414277   17.845024 H          1 MOL1         0.0794
      83    O20     20.520204   25.107151   18.701516 O.3        1 MOL1        -0.5486
      84    H40     19.677379   25.263922   19.180882 H          1 MOL1         0.3769
      85    C25     24.564078   17.622899   22.073903 C.3        1 MOL1         0.2972
      86    H41     25.123728   16.755751   22.441676 H          1 MOL1         0.0751
      87    O21     23.452269   17.233441   21.238713 O.3        1 MOL1        -0.3740
      88    C26     24.023297   18.453347   23.266718 C.3        1 MOL1         0.1003
      89    H42     24.890342   18.782349   23.853442 H          1 MOL1         0.0783
      90    O22     23.168705   17.656898   24.105489 O.3        1 MOL1        -0.5519
      91    H43     22.255811   18.044563   24.057029 H          1 MOL1         0.3769
      92    C27     23.285929   19.714691   22.758332 C.3        1 MOL1         0.1053
      93    H44     22.405519   19.382973   22.199688 H          1 MOL1         0.0783
      94    O23     22.873068   20.517774   23.869887 O.3        1 MOL1        -0.5519
      95    H45     22.036107   20.087749   24.191348 H          1 MOL1         0.3769
      96    C28     24.152701   20.538246   21.774888 C.3        1 MOL1         0.1018
      97    H46     24.930897   21.072052   22.335153 H          1 MOL1         0.0783
      98    C29     24.803147   19.637153   20.688077 C.3        1 MOL1         0.1043
      99    H47     24.009159   19.297895   20.009810 H          1 MOL1         0.0783
     100    O24     25.430999   18.479605   21.297100 O.3        1 MOL1        -0.3740
     101    C30     25.857675   20.374764   19.828785 C.3        1 MOL1         0.0138
     102    H48     25.336495   21.090765   19.179000 H          1 MOL1         0.0794
     103    H49     26.352467   19.642553   19.176759 H          1 MOL1         0.0794
     104    O25     26.825736   21.063228   20.630818 O.3        1 MOL1        -0.5486
     105    H50     27.500291   21.440812   20.024985 H          1 MOL1         0.3769
     106    C31     21.263891   13.847647   20.390087 C.3        1 MOL1         0.2972
     107    H51     20.832070   12.903416   20.034370 H          1 MOL1         0.0751
     108    O26     20.252063   14.725909   20.919346 O.3        1 MOL1        -0.3740
     109    C32     22.354533   13.601934   21.462057 C.3        1 MOL1         0.1003
     110    H52     23.156338   13.035112   20.970911 H          1 MOL1         0.0783
     111    O27     21.858551   12.828939   22.566006 O.3        1 MOL1        -0.5519
     112    H53     21.154190   13.368608   23.005858 H          1 MOL1         0.3769
     113    C33     22.962577   14.938324   21.959045 C.3        1 MOL1         0.1053
     114    H54     22.199741   15.468629   22.546676 H          1 MOL1         0.0783
     115    O28     24.086497   14.617297   22.785580 O.3        1 MOL1        -0.5519
     116    H55     23.752652   13.958594   23.433124 H          1 MOL1         0.3769
     117    C34     23.398075   15.864310   20.781591 C.3        1 MOL1         0.1018
     118    H56     24.377099   15.533625   20.413681 H          1 MOL1         0.0783
     119    C35     22.379740   15.877356   19.603990 C.3        1 MOL1         0.1043
     120    H57     21.520782   16.490906   19.905608 H          1 MOL1         0.0783
     121    O29     21.915305   14.537244   19.303206 O.3        1 MOL1        -0.3740
     122    C36     22.938162   16.515047   18.308038 C.3        1 MOL1         0.0138
     123    H58     23.049031   17.595545   18.470243 H          1 MOL1         0.0794
     124    H59     22.196191   16.383326   17.509413 H          1 MOL1         0.0794
     125    O30     24.194431   15.952612   17.908566 O.3        1 MOL1        -0.5486
     126    H60     24.877062   16.276567   18.534126 H          1 MOL1         0.3769
     127    C1      19.645192   18.552361   23.294110 C.2        1 MOL1         0.6021
     128    O1      18.553951   18.256685   23.741928 O.co2      1 MOL1        -0.6904
     129    O2      20.600724   18.866190   23.981358 O.co2      1 MOL1        -0.6904
     130    C2      19.873131   18.393849   21.791296 C.3        1 MOL1        -0.2102
     131    H1      19.114932   17.714669   21.392284 H          1 MOL1         0.0687
     132    H2      20.839276   17.899512   21.651277 H          1 MOL1         0.0687
     133    C3      19.826995   19.725385   21.007885 C.3        1 MOL1        -0.1974
     134    H3      18.834322   20.174775   21.121625 H          1 MOL1         0.0689
     135    H4      20.541650   20.434843   21.442591 H          1 MOL1         0.0689
     136    C4      20.136878   19.510199   19.512211 C.3        1 MOL1        -0.2987
     137    H5      20.017038   20.444237   18.950275 H          1 MOL1         0.0700
     138    H6      21.168379   19.160266   19.377635 H          1 MOL1         0.0700
     139    H7      19.461412   18.765505   19.073695 H          1 MOL1         0.0700
@<TRIPOS>BOND
    1     1     2    1
    2     1     3    1
    3     1     4    1
    4     4     5    1
    5     4     6    1
    6     6     7    1
    7     4     8    1
    8     8     9    1
    9     8    10    1
   10    10    11    1
   11     8    12    1
   12    12    13    1
   13    12    14    1
   14    14    15    1
   15     1    16    1
   16    14    16    1
   17    14    17    1
   18    17    18    1
   19    17    19    1
   20    17    20    1
   21    20    21    1
   22    22    23    1
   23    22    24    1
   24    22    25    1
   25    25    26    1
   26    25    27    1
   27    27    28    1
   28    25    29    1
   29    29    30    1
   30    29    31    1
   31    31    32    1
   32     3    33    1
   33    29    33    1
   34    33    34    1
   35    33    35    1
   36    35    36    1
   37    22    37    1
   38    35    37    1
   39    35    38    1
   40    38    39    1
   41    38    40    1
   42    38    41    1
   43    41    42    1
   44    43    44    1
   45    43    45    1
   46    43    46    1
   47    46    47    1
   48    46    48    1
   49    48    49    1
   50    46    50    1
   51    50    51    1
   52    50    52    1
   53    52    53    1
   54    24    54    1
   55    50    54    1
   56    54    55    1
   57    54    56    1
   58    56    57    1
   59    43    58    1
   60    56    58    1
   61    56    59    1
   62    59    60    1
   63    59    61    1
   64    59    62    1
   65    62    63    1
   66    64    65    1
   67    64    66    1
   68    64    67    1
   69    67    68    1
   70    67    69    1
   71    69    70    1
   72    67    71    1
   73    71    72    1
   74    71    73    1
   75    73    74    1
   76    45    75    1
   77    71    75    1
   78    75    76    1
   79    75    77    1
   80    77    78    1
   81    64    79    1
   82    77    79    1
   83    77    80    1
   84    80    81    1
   85    80    82    1
   86    80    83    1
   87    83    84    1
   88    85    86    1
   89    85    87    1
   90    85    88    1
   91    88    89    1
   92    88    90    1
   93    90    91    1
   94    88    92    1
   95    92    93    1
   96    92    94    1
   97    94    95    1
   98    66    96    1
   99    92    96    1
  100    96    97    1
  101    96    98    1
  102    98    99    1
  103    85   100    1
  104    98   100    1
  105    98   101    1
  106   101   102    1
  107   101   103    1
  108   101   104    1
  109   104   105    1
  110   106   107    1
  111    12   108    1
  112   106   108    1
  113   106   109    1
  114   109   110    1
  115   109   111    1
  116   111   112    1
  117   109   113    1
  118   113   114    1
  119   113   115    1
  120   115   116    1
  121    87   117    1
  122   113   117    1
  123   117   118    1
  124   117   119    1
  125   119   120    1
  126   106   121    1
  127   119   121    1
  128   119   122    1
  129   122   123    1
  130   122   124    1
  131   122   125    1
  132   125   126    1
  133   127   128    1
  134   127   129    2
  135   127   130    1
  136   130   131    1
  137   130   132    1
  138   130   133    1
  139   133   134    1
  140   133   135    1
  141   133   136    1
  142   136   137    1
  143   136   138    1
  144   136   139    1
@<TRIPOS>SUBSTRUCTURE
       1 MOL1            1 RESIDUE      1      MOL     
       2 MOL1          139 RESIDUE      1      MOL     
@<SCITEGIC>MOL_PROPERTY
feprocess Rank
SciTegic.value.IntegerValue
12

@<SCITEGIC>MOL_PROPERTY
Conf_Id
SciTegic.value.IntegerValue
666

@<SCITEGIC>MOL_PROPERTY
Probability
SciTegic.value.DoubleValue
0.75

@<SCITEGIC>MOL_PROPERTY
G
SciTegic.value.DoubleValue
484.864

@<SCITEGIC>MOL_PROPERTY
E
SciTegic.value.DoubleValue
307.645

@<SCITEGIC>MOL_PROPERTY
-TS
SciTegic.value.DoubleValue
177.219

@<SCITEGIC>MOL_PROPERTY
U+W
SciTegic.value.DoubleValue
185.134

@<SCITEGIC>MOL_PROPERTY
U
SciTegic.value.DoubleValue
258.772

@<SCITEGIC>MOL_PROPERTY
W
SciTegic.value.DoubleValue
-73.638

@<SCITEGIC>MOL_PROPERTY
W(PB)
SciTegic.value.DoubleValue
-79.629

@<SCITEGIC>MOL_PROPERTY
W(SA)
SciTegic.value.DoubleValue
5.991

@<SCITEGIC>MOL_PROPERTY
Valence
SciTegic.value.DoubleValue
151.125

@<SCITEGIC>MOL_PROPERTY
Coulomb
SciTegic.value.DoubleValue
129.681

@<SCITEGIC>MOL_PROPERTY
VdW
SciTegic.value.DoubleValue
-22.034

@<SCITEGIC>MOL_PROPERTY
VdW6
SciTegic.value.DoubleValue
-177.764

@<SCITEGIC>MOL_PROPERTY
VdW12
SciTegic.value.DoubleValue
155.730

@<SCITEGIC>MOL_PROPERTY
Bond
SciTegic.value.DoubleValue
5.140

@<SCITEGIC>MOL_PROPERTY
Angle
SciTegic.value.DoubleValue
15.844

@<SCITEGIC>MOL_PROPERTY
Pdih
SciTegic.value.DoubleValue
130.116

@<SCITEGIC>MOL_PROPERTY
Idih
SciTegic.value.DoubleValue
0.025

@<SCITEGIC>MOL_PROPERTY
Tether
SciTegic.value.DoubleValue
0.000

@<TRIPOS>MOLECULE
CD_guest-6_fast_vm2_rndm.mol2 : feprocess host+ligand conformer 13
         139         144           2
SMALL
USER_CHARGES
 
@<TRIPOS>ATOM
       1    C1      16.055192   15.178726   20.648174 C.3        1 MOL1         0.2972
       2    H1      14.979780   15.087955   20.448650 H          1 MOL1         0.0751
       3    O1      16.406372   16.519283   21.046963 O.3        1 MOL1        -0.3740
       4    C2      16.521232   14.160053   21.723141 C.3        1 MOL1         0.1003
       5    H2      16.364238   13.158490   21.301770 H          1 MOL1         0.0783
       6    O2      15.765876   14.265481   22.938633 O.3        1 MOL1        -0.5519
       7    H3      15.966704   15.153746   23.327079 H          1 MOL1         0.3769
       8    C3      18.036460   14.323310   21.996924 C.3        1 MOL1         0.1053
       9    H4      18.204775   15.312458   22.446309 H          1 MOL1         0.0783
      10    O3      18.468802   13.300048   22.899413 O.3        1 MOL1        -0.5519
      11    H5      17.783499   13.271679   23.603823 H          1 MOL1         0.3769
      12    C4      18.853074   14.240329   20.681898 C.3        1 MOL1         0.1018
      13    H6      18.897453   13.188954   20.370326 H          1 MOL1         0.0783
      14    C5      18.242952   15.104233   19.540192 C.3        1 MOL1         0.1043
      15    H7      18.425753   16.160216   19.774750 H          1 MOL1         0.0783
      16    O4      16.810477   14.881673   19.452751 O.3        1 MOL1        -0.3740
      17    C6      18.871698   14.844477   18.149562 C.3        1 MOL1         0.0138
      18    H8      19.890547   15.254974   18.141112 H          1 MOL1         0.0794
      19    H9      18.293757   15.402514   17.401035 H          1 MOL1         0.0794
      20    O5      18.902053   13.453384   17.806369 O.3        1 MOL1        -0.5486
      21    H10     19.717003   13.068776   18.191708 H          1 MOL1         0.3769
      22    C7      15.343499   20.144912   22.567289 C.3        1 MOL1         0.2972
      23    H11     14.894354   21.030257   23.033183 H          1 MOL1         0.0751
      24    O6      16.537778   20.483131   21.836483 O.3        1 MOL1        -0.3740
      25    C8      15.697115   19.103905   23.657162 C.3        1 MOL1         0.1003
      26    H12     14.762100   18.839969   24.167727 H          1 MOL1         0.0783
      27    O7      16.621090   19.649271   24.612410 O.3        1 MOL1        -0.5519
      28    H13     17.479798   19.807411   24.127740 H          1 MOL1         0.3769
      29    C9      16.288033   17.817247   23.041264 C.3        1 MOL1         0.1053
      30    H14     17.284445   18.064193   22.667396 H          1 MOL1         0.0783
      31    O8      16.403155   16.822400   24.062972 O.3        1 MOL1        -0.5519
      32    H15     16.873186   17.272850   24.800494 H          1 MOL1         0.3769
      33    C10     15.468060   17.273097   21.842934 C.3        1 MOL1         0.1018
      34    H16     14.643347   16.653777   22.219088 H          1 MOL1         0.0783
      35    C11     14.924069   18.389371   20.906083 C.3        1 MOL1         0.1043
      36    H17     15.763322   18.726208   20.289770 H          1 MOL1         0.0783
      37    O9      14.414117   19.523631   21.653098 O.3        1 MOL1        -0.3740
      38    C12     13.823379   17.897510   19.936536 C.3        1 MOL1         0.0138
      39    H18     14.282925   17.221920   19.202436 H          1 MOL1         0.0794
      40    H19     13.430560   18.761002   19.383076 H          1 MOL1         0.0794
      41    O10     12.762952   17.221077   20.622569 O.3        1 MOL1        -0.5486
      42    H20     12.070368   17.003473   19.960903 H          1 MOL1         0.3769
      43    C13     18.553706   23.837262   20.406960 C.3        1 MOL1         0.2972
      44    H21     18.843496   24.773057   19.911990 H          1 MOL1         0.0751
      45    O11     19.700219   23.103617   20.878287 O.3        1 MOL1        -0.3740
      46    C14     17.633123   24.114951   21.621187 C.3        1 MOL1         0.1003
      47    H22     16.737490   24.619712   21.236233 H          1 MOL1         0.0783
      48    O12     18.275520   24.975659   22.575412 O.3        1 MOL1        -0.5519
      49    H23     19.190273   24.624381   22.723574 H          1 MOL1         0.3769
      50    C15     17.174801   22.794625   22.294488 C.3        1 MOL1         0.1053
      51    H24     18.046951   22.319371   22.766844 H          1 MOL1         0.0783
      52    O13     16.193483   23.121721   23.284098 O.3        1 MOL1        -0.5519
      53    H25     16.596069   23.844724   23.813647 H          1 MOL1         0.3769
      54    C16     16.587500   21.800727   21.252542 C.3        1 MOL1         0.1018
      55    H26     15.588107   22.146896   20.960189 H          1 MOL1         0.0783
      56    C17     17.482023   21.681589   19.986844 C.3        1 MOL1         0.1043
      57    H27     18.404125   21.160898   20.271641 H          1 MOL1         0.0783
      58    O14     17.816324   22.999880   19.491952 O.3        1 MOL1        -0.3740
      59    C18     16.843216   20.872606   18.829266 C.3        1 MOL1         0.0138
      60    H28     17.043152   19.808021   19.001213 H          1 MOL1         0.0794
      61    H29     17.351334   21.140015   17.893212 H          1 MOL1         0.0794
      62    O15     15.431243   21.087763   18.702385 O.3        1 MOL1        -0.5486
      63    H30     15.010632   20.774474   19.532907 H          1 MOL1         0.3769
      64    C19     23.783610   22.859931   20.944097 C.3        1 MOL1         0.2972
      65    H31     24.875253   22.954889   20.881468 H          1 MOL1         0.0751
      66    O16     23.384531   21.487029   21.159937 O.3        1 MOL1        -0.3740
      67    C20     23.198514   23.777777   22.048910 C.3        1 MOL1         0.1003
      68    H32     23.365094   24.813293   21.724131 H          1 MOL1         0.0783
      69    O17     23.845642   23.593113   23.315580 O.3        1 MOL1        -0.5519
      70    H33     23.609312   22.683053   23.624501 H          1 MOL1         0.3769
      71    C21     21.670114   23.559985   22.157530 C.3        1 MOL1         0.1053
      72    H34     21.485379   22.528933   22.490535 H          1 MOL1         0.0783
      73    O18     21.125626   24.480227   23.109254 O.3        1 MOL1        -0.5519
      74    H35     21.733287   24.441165   23.881027 H          1 MOL1         0.3769
      75    C22     20.980123   23.757282   20.782760 C.3        1 MOL1         0.1018
      76    H36     20.878376   24.835970   20.605542 H          1 MOL1         0.0783
      77    C23     21.746030   23.094004   19.597458 C.3        1 MOL1         0.1043
      78    H37     21.552247   22.016045   19.624274 H          1 MOL1         0.0783
      79    O19     23.177991   23.304947   19.711282 O.3        1 MOL1        -0.3740
      80    C24     21.279394   23.595822   18.210447 C.3        1 MOL1         0.0138
      81    H38     20.265582   23.214724   18.026726 H          1 MOL1         0.0794
      82    H39     21.934538   23.162409   17.442995 H          1 MOL1         0.0794
      83    O20     21.285086   25.026499   18.121707 O.3        1 MOL1        -0.5486
      84    H40     21.038004   25.268414   17.202452 H          1 MOL1         0.3769
      85    C25     24.416339   17.784806   22.684517 C.3        1 MOL1         0.2972
      86    H41     24.885666   16.922174   23.172869 H          1 MOL1         0.0751
      87    O21     23.286523   17.390786   21.884347 O.3        1 MOL1        -0.3740
      88    C26     23.946074   18.802924   23.751922 C.3        1 MOL1         0.1003
      89    H42     24.840293   19.130876   24.297264 H          1 MOL1         0.0783
      90    O22     23.029989   18.202974   24.680674 O.3        1 MOL1        -0.5519
      91    H43     22.182881   18.029643   24.181702 H          1 MOL1         0.3769
      92    C27     23.306181   20.047219   23.095346 C.3        1 MOL1         0.1053
      93    H44     22.369334   19.737861   22.619144 H          1 MOL1         0.0783
      94    O23     23.025541   21.004114   24.120469 O.3        1 MOL1        -0.5519
      95    H45     22.481710   20.512849   24.777108 H          1 MOL1         0.3769
      96    C28     24.220125   20.660011   21.999716 C.3        1 MOL1         0.1018
      97    H46     25.020530   21.235957   22.482361 H          1 MOL1         0.0783
      98    C29     24.834779   19.579173   21.063829 C.3        1 MOL1         0.1043
      99    H47     24.034742   19.217869   20.407245 H          1 MOL1         0.0783
     100    O24     25.360071   18.458918   21.823277 O.3        1 MOL1        -0.3740
     101    C30     25.957987   20.126321   20.151200 C.3        1 MOL1         0.0138
     102    H48     25.505686   20.797075   19.408108 H          1 MOL1         0.0794
     103    H49     26.405505   19.286436   19.603057 H          1 MOL1         0.0794
     104    O25     26.962292   20.830239   20.892645 O.3        1 MOL1        -0.5486
     105    H50     27.673320   21.084240   20.264512 H          1 MOL1         0.3769
     106    C31     21.300212   13.971202   20.634813 C.3        1 MOL1         0.2972
     107    H51     21.007962   12.999045   20.219190 H          1 MOL1         0.0751
     108    O26     20.155646   14.774652   20.982314 O.3        1 MOL1        -0.3740
     109    C32     22.147852   13.775138   21.914457 C.3        1 MOL1         0.1003
     110    H52     23.046275   13.214946   21.624316 H          1 MOL1         0.0783
     111    O27     21.424656   13.017793   22.898129 O.3        1 MOL1        -0.5519
     112    H53     20.486166   13.334946   22.883691 H          1 MOL1         0.3769
     113    C33     22.610231   15.133952   22.499013 C.3        1 MOL1         0.1053
     114    H54     21.730427   15.663051   22.893036 H          1 MOL1         0.0783
     115    O28     23.539420   14.866291   23.554544 O.3        1 MOL1        -0.5519
     116    H55     23.085942   14.216442   24.134942 H          1 MOL1         0.3769
     117    C34     23.267400   16.030065   21.411289 C.3        1 MOL1         0.1018
     118    H56     24.281116   15.660702   21.211698 H          1 MOL1         0.0783
     119    C35     22.455254   16.050647   20.085702 C.3        1 MOL1         0.1043
     120    H57     21.533732   16.615056   20.265223 H          1 MOL1         0.0783
     121    O29     22.107003   14.702198   19.687908 O.3        1 MOL1        -0.3740
     122    C36     23.182944   16.747810   18.907933 C.3        1 MOL1         0.0138
     123    H58     23.045872   17.831573   19.008427 H          1 MOL1         0.0794
     124    H59     22.693468   16.452519   17.970465 H          1 MOL1         0.0794
     125    O30     24.582224   16.443201   18.851754 O.3        1 MOL1        -0.5486
     126    H60     25.001977   16.850843   19.640426 H          1 MOL1         0.3769
     127    C1      19.792478   18.818345   22.789781 C.2        1 MOL1         0.6021
     128    O1      19.146570   19.702583   23.320232 O.co2      1 MOL1        -0.6904
     129    O2      20.560069   18.087952   23.386536 O.co2      1 MOL1        -0.6904
     130    C2      19.584741   18.568646   21.296882 C.3        1 MOL1        -0.2102
     131    H1      18.566146   18.870678   21.033895 H          1 MOL1         0.0687
     132    H2      19.652772   17.489823   21.131409 H          1 MOL1         0.0687
     133    C3      20.598406   19.318637   20.402955 C.3        1 MOL1        -0.1974
     134    H3      20.548885   20.388256   20.637546 H          1 MOL1         0.0689
     135    H4      21.614135   18.992551   20.649269 H          1 MOL1         0.0689
     136    C4      20.337582   19.089489   18.900317 C.3        1 MOL1        -0.2987
     137    H5      21.093804   19.606143   18.295624 H          1 MOL1         0.0700
     138    H6      20.372726   18.021476   18.652087 H          1 MOL1         0.0700
     139    H7      19.353955   19.472399   18.608170 H          1 MOL1         0.0700
@<TRIPOS>BOND
    1     1     2    1
    2     1     3    1
    3     1     4    1
    4     4     5    1
    5     4     6    1
    6     6     7    1
    7     4     8    1
    8     8     9    1
    9     8    10    1
   10    10    11    1
   11     8    12    1
   12    12    13    1
   13    12    14    1
   14    14    15    1
   15     1    16    1
   16    14    16    1
   17    14    17    1
   18    17    18    1
   19    17    19    1
   20    17    20    1
   21    20    21    1
   22    22    23    1
   23    22    24    1
   24    22    25    1
   25    25    26    1
   26    25    27    1
   27    27    28    1
   28    25    29    1
   29    29    30    1
   30    29    31    1
   31    31    32    1
   32     3    33    1
   33    29    33    1
   34    33    34    1
   35    33    35    1
   36    35    36    1
   37    22    37    1
   38    35    37    1
   39    35    38    1
   40    38    39    1
   41    38    40    1
   42    38    41    1
   43    41    42    1
   44    43    44    1
   45    43    45    1
   46    43    46    1
   47    46    47    1
   48    46    48    1
   49    48    49    1
   50    46    50    1
   51    50    51    1
   52    50    52    1
   53    52    53    1
   54    24    54    1
   55    50    54    1
   56    54    55    1
   57    54    56    1
   58    56    57    1
   59    43    58    1
   60    56    58    1
   61    56    59    1
   62    59    60    1
   63    59    61    1
   64    59    62    1
   65    62    63    1
   66    64    65    1
   67    64    66    1
   68    64    67    1
   69    67    68    1
   70    67    69    1
   71    69    70    1
   72    67    71    1
   73    71    72    1
   74    71    73    1
   75    73    74    1
   76    45    75    1
   77    71    75    1
   78    75    76    1
   79    75    77    1
   80    77    78    1
   81    64    79    1
   82    77    79    1
   83    77    80    1
   84    80    81    1
   85    80    82    1
   86    80    83    1
   87    83    84    1
   88    85    86    1
   89    85    87    1
   90    85    88    1
   91    88    89    1
   92    88    90    1
   93    90    91    1
   94    88    92    1
   95    92    93    1
   96    92    94    1
   97    94    95    1
   98    66    96    1
   99    92    96    1
  100    96    97    1
  101    96    98    1
  102    98    99    1
  103    85   100    1
  104    98   100    1
  105    98   101    1
  106   101   102    1
  107   101   103    1
  108   101   104    1
  109   104   105    1
  110   106   107    1
  111    12   108    1
  112   106   108    1
  113   106   109    1
  114   109   110    1
  115   109   111    1
  116   111   112    1
  117   109   113    1
  118   113   114    1
  119   113   115    1
  120   115   116    1
  121    87   117    1
  122   113   117    1
  123   117   118    1
  124   117   119    1
  125   119   120    1
  126   106   121    1
  127   119   121    1
  128   119   122    1
  129   122   123    1
  130   122   124    1
  131   122   125    1
  132   125   126    1
  133   127   128    1
  134   127   129    2
  135   127   130    1
  136   130   131    1
  137   130   132    1
  138   130   133    1
  139   133   134    1
  140   133   135    1
  141   133   136    1
  142   136   137    1
  143   136   138    1
  144   136   139    1
@<TRIPOS>SUBSTRUCTURE
       1 MOL1            1 RESIDUE      1      MOL     
       2 MOL1          139 RESIDUE      1      MOL     
@<SCITEGIC>MOL_PROPERTY
feprocess Rank
SciTegic.value.IntegerValue
13

@<SCITEGIC>MOL_PROPERTY
Conf_Id
SciTegic.value.IntegerValue
402

@<SCITEGIC>MOL_PROPERTY
Probability
SciTegic.value.DoubleValue
0.28

@<SCITEGIC>MOL_PROPERTY
G
SciTegic.value.DoubleValue
485.442

@<SCITEGIC>MOL_PROPERTY
E
SciTegic.value.DoubleValue
308.282

@<SCITEGIC>MOL_PROPERTY
-TS
SciTegic.value.DoubleValue
177.161

@<SCITEGIC>MOL_PROPERTY
U+W
SciTegic.value.DoubleValue
185.770

@<SCITEGIC>MOL_PROPERTY
U
SciTegic.value.DoubleValue
258.920

@<SCITEGIC>MOL_PROPERTY
W
SciTegic.value.DoubleValue
-73.149

@<SCITEGIC>MOL_PROPERTY
W(PB)
SciTegic.value.DoubleValue
-79.078

@<SCITEGIC>MOL_PROPERTY
W(SA)
SciTegic.value.DoubleValue
5.929

@<SCITEGIC>MOL_PROPERTY
Valence
SciTegic.value.DoubleValue
149.315

@<SCITEGIC>MOL_PROPERTY
Coulomb
SciTegic.value.DoubleValue
133.074

@<SCITEGIC>MOL_PROPERTY
VdW
SciTegic.value.DoubleValue
-23.469

@<SCITEGIC>MOL_PROPERTY
VdW6
SciTegic.value.DoubleValue
-177.919

@<SCITEGIC>MOL_PROPERTY
VdW12
SciTegic.value.DoubleValue
154.449

@<SCITEGIC>MOL_PROPERTY
Bond
SciTegic.value.DoubleValue
5.056

@<SCITEGIC>MOL_PROPERTY
Angle
SciTegic.value.DoubleValue
15.526

@<SCITEGIC>MOL_PROPERTY
Pdih
SciTegic.value.DoubleValue
128.729

@<SCITEGIC>MOL_PROPERTY
Idih
SciTegic.value.DoubleValue
0.005

@<SCITEGIC>MOL_PROPERTY
Tether
SciTegic.value.DoubleValue
0.000

@<TRIPOS>MOLECULE
CD_guest-6_fast_vm2_rndm.mol2 : feprocess host+ligand conformer 14
         139         144           2
SMALL
USER_CHARGES
 
@<TRIPOS>ATOM
       1    C1      16.131863   15.163792   21.758379 C.3        1 MOL1         0.2972
       2    H1      15.048196   15.022868   21.861624 H          1 MOL1         0.0751
       3    O1      16.465441   16.561153   21.642359 O.3        1 MOL1        -0.3740
       4    C2      16.856515   14.543473   22.980527 C.3        1 MOL1         0.1003
       5    H2      16.660711   13.463818   22.952022 H          1 MOL1         0.0783
       6    O2      16.351872   15.065148   24.217709 O.3        1 MOL1        -0.5519
       7    H3      16.667746   16.009240   24.287191 H          1 MOL1         0.3769
       8    C3      18.384211   14.747912   22.873206 C.3        1 MOL1         0.1053
       9    H4      18.593092   15.824302   22.930953 H          1 MOL1         0.0783
      10    O3      19.038433   14.070435   23.951647 O.3        1 MOL1        -0.5519
      11    H5      18.572116   14.380124   24.760300 H          1 MOL1         0.3769
      12    C4      18.917737   14.217999   21.520747 C.3        1 MOL1         0.1018
      13    H6      18.968441   13.122118   21.568729 H          1 MOL1         0.0783
      14    C5      18.049586   14.668348   20.311888 C.3        1 MOL1         0.1043
      15    H7      18.255600   15.733290   20.157558 H          1 MOL1         0.0783
      16    O4      16.630756   14.494915   20.578930 O.3        1 MOL1        -0.3740
      17    C6      18.394614   13.934373   18.993824 C.3        1 MOL1         0.0138
      18    H8      19.380645   14.276110   18.651317 H          1 MOL1         0.0794
      19    H9      17.665339   14.225744   18.226115 H          1 MOL1         0.0794
      20    O5      18.403438   12.510956   19.157750 O.3        1 MOL1        -0.5486
      21    H10     18.555871   12.110152   18.274232 H          1 MOL1         0.3769
      22    C7      14.942544   20.262891   20.543691 C.3        1 MOL1         0.2972
      23    H11     14.381153   21.104626   20.118296 H          1 MOL1         0.0751
      24    O6      16.169335   20.698027   21.158900 O.3        1 MOL1        -0.3740
      25    C8      14.099799   19.511601   21.603923 C.3        1 MOL1         0.1003
      26    H12     13.199178   19.143068   21.095974 H          1 MOL1         0.0783
      27    O7      13.706796   20.390748   22.669886 O.3        1 MOL1        -0.5519
      28    H13     14.532354   20.806112   23.025301 H          1 MOL1         0.3769
      29    C9      14.862751   18.282444   22.162104 C.3        1 MOL1         0.1053
      30    H14     15.691039   18.644576   22.786598 H          1 MOL1         0.0783
      31    O8      13.956348   17.503951   22.950689 O.3        1 MOL1        -0.5519
      32    H15     13.610015   18.120141   23.631632 H          1 MOL1         0.3769
      33    C10     15.461052   17.399794   21.032633 C.3        1 MOL1         0.1018
      34    H16     14.646879   16.809034   20.593395 H          1 MOL1         0.0783
      35    C11     16.148134   18.231847   19.909306 C.3        1 MOL1         0.1043
      36    H17     17.079974   18.648429   20.309803 H          1 MOL1         0.0783
      37    O9      15.274353   19.314676   19.508917 O.3        1 MOL1        -0.3740
      38    C12     16.527174   17.435436   18.632301 C.3        1 MOL1         0.0138
      39    H18     17.565796   17.097951   18.723966 H          1 MOL1         0.0794
      40    H19     16.502438   18.121442   17.775038 H          1 MOL1         0.0794
      41    O10     15.670442   16.314418   18.380773 O.3        1 MOL1        -0.5486
      42    H20     15.851204   15.644288   19.081308 H          1 MOL1         0.3769
      43    C13     18.478521   24.036215   21.893322 C.3        1 MOL1         0.2972
      44    H21     18.875691   25.043035   22.076841 H          1 MOL1         0.0751
      45    O11     19.540372   23.067740   21.774318 O.3        1 MOL1        -0.3740
      46    C14     17.568769   23.614912   23.072863 C.3        1 MOL1         0.1003
      47    H22     16.739207   24.331005   23.131901 H          1 MOL1         0.0783
      48    O12     18.325615   23.660723   24.292663 O.3        1 MOL1        -0.5519
      49    H23     19.242622   23.388551   24.059451 H          1 MOL1         0.3769
      50    C15     16.969497   22.207668   22.826866 C.3        1 MOL1         0.1053
      51    H24     17.791880   21.482118   22.870398 H          1 MOL1         0.0783
      52    O13     15.994715   21.887471   23.826574 O.3        1 MOL1        -0.5519
      53    H25     16.405752   21.151030   24.358019 H          1 MOL1         0.3769
      54    C16     16.305966   22.105667   21.430901 C.3        1 MOL1         0.1018
      55    H26     15.333931   22.615478   21.466393 H          1 MOL1         0.0783
      56    C17     17.187760   22.702243   20.298891 C.3        1 MOL1         0.1043
      57    H27     18.027137   22.012961   20.146384 H          1 MOL1         0.0783
      58    O14     17.702946   24.004635   20.677616 O.3        1 MOL1        -0.3740
      59    C18     16.455132   22.844013   18.943023 C.3        1 MOL1         0.0138
      60    H28     16.294984   21.840801   18.525526 H          1 MOL1         0.0794
      61    H29     17.108392   23.385358   18.245525 H          1 MOL1         0.0794
      62    O15     15.199646   23.521506   19.077026 O.3        1 MOL1        -0.5486
      63    H30     14.831338   23.647916   18.175479 H          1 MOL1         0.3769
      64    C19     23.597052   22.732322   20.924609 C.3        1 MOL1         0.2972
      65    H31     24.633056   22.876125   20.591564 H          1 MOL1         0.0751
      66    O16     23.352462   21.375736   21.344062 O.3        1 MOL1        -0.3740
      67    C20     23.249324   23.673215   22.106828 C.3        1 MOL1         0.1003
      68    H32     23.351467   24.704353   21.744321 H          1 MOL1         0.0783
      69    O17     24.140882   23.477870   23.215441 O.3        1 MOL1        -0.5519
      70    H33     24.135595   22.510921   23.432562 H          1 MOL1         0.3769
      71    C21     21.778366   23.465453   22.546093 C.3        1 MOL1         0.1053
      72    H34     21.682826   22.453230   22.963355 H          1 MOL1         0.0783
      73    O18     21.437814   24.433645   23.543176 O.3        1 MOL1        -0.5519
      74    H35     22.196050   24.436430   24.168659 H          1 MOL1         0.3769
      75    C22     20.812239   23.585738   21.339492 C.3        1 MOL1         0.1018
      76    H36     20.749635   24.643527   21.052256 H          1 MOL1         0.0783
      77    C23     21.284584   22.752381   20.112613 C.3        1 MOL1         0.1043
      78    H37     21.174882   21.688625   20.353141 H          1 MOL1         0.0783
      79    O19     22.681036   23.038364   19.849865 O.3        1 MOL1        -0.3740
      80    C24     20.483891   22.996658   18.806213 C.3        1 MOL1         0.0138
      81    H38     19.662766   22.271583   18.759221 H          1 MOL1         0.0794
      82    H39     21.138669   22.781156   17.951320 H          1 MOL1         0.0794
      83    O20     19.959986   24.325923   18.696954 O.3        1 MOL1        -0.5486
      84    H40     19.206970   24.394521   19.329792 H          1 MOL1         0.3769
      85    C25     25.037603   17.655833   21.837182 C.3        1 MOL1         0.2972
      86    H41     25.678809   16.773876   21.964319 H          1 MOL1         0.0751
      87    O21     23.657997   17.289526   21.657704 O.3        1 MOL1        -0.3740
      88    C26     25.129098   18.561961   23.087130 C.3        1 MOL1         0.1003
      89    H42     26.168330   18.904868   23.174076 H          1 MOL1         0.0783
      90    O22     24.769923   17.826817   24.268205 O.3        1 MOL1        -0.5519
      91    H43     24.268597   17.030313   23.965835 H          1 MOL1         0.3769
      92    C27     24.223880   19.805171   22.925058 C.3        1 MOL1         0.1053
      93    H44     23.179330   19.467102   22.923248 H          1 MOL1         0.0783
      94    O23     24.438092   20.689811   24.029067 O.3        1 MOL1        -0.5519
      95    H45     24.412460   20.109377   24.822688 H          1 MOL1         0.3769
      96    C28     24.500306   20.541762   21.589036 C.3        1 MOL1         0.1018
      97    H46     25.423267   21.127244   21.694665 H          1 MOL1         0.0783
      98    C29     24.609236   19.574884   20.374912 C.3        1 MOL1         0.1043
      99    H47     23.595254   19.225067   20.145153 H          1 MOL1         0.0783
     100    O24     25.444194   18.429118   20.689031 O.3        1 MOL1        -0.3740
     101    C30     25.160357   20.248147   19.095469 C.3        1 MOL1         0.0138
     102    H48     24.400781   20.943197   18.712606 H          1 MOL1         0.0794
     103    H49     25.311027   19.475884   18.329128 H          1 MOL1         0.0794
     104    O25     26.383720   20.952745   19.341431 O.3        1 MOL1        -0.5486
     105    H50     26.711346   21.290582   18.479416 H          1 MOL1         0.3769
     106    C31     21.271359   13.963873   20.863764 C.3        1 MOL1         0.2972
     107    H51     20.888751   12.993516   20.521780 H          1 MOL1         0.0751
     108    O26     20.215404   14.815871   21.346757 O.3        1 MOL1        -0.3740
     109    C32     22.296816   13.787076   22.015438 C.3        1 MOL1         0.1003
     110    H52     23.127211   13.184518   21.625082 H          1 MOL1         0.0783
     111    O27     21.710002   13.106786   23.136228 O.3        1 MOL1        -0.5519
     112    H53     20.855059   13.562762   23.345509 H          1 MOL1         0.3769
     113    C33     22.867075   15.160266   22.452673 C.3        1 MOL1         0.1053
     114    H54     22.051578   15.746238   22.899743 H          1 MOL1         0.0783
     115    O28     23.908530   14.967056   23.415564 O.3        1 MOL1        -0.5519
     116    H55     23.558882   14.290110   24.037360 H          1 MOL1         0.3769
     117    C34     23.410161   15.940833   21.230279 C.3        1 MOL1         0.1018
     118    H56     24.323678   15.448585   20.871302 H          1 MOL1         0.0783
     119    C35     22.375877   15.998433   20.073556 C.3        1 MOL1         0.1043
     120    H57     21.516446   16.595698   20.403615 H          1 MOL1         0.0783
     121    O29     21.934963   14.650720   19.777727 O.3        1 MOL1        -0.3740
     122    C36     22.901582   16.654792   18.769905 C.3        1 MOL1         0.0138
     123    H58     22.676237   17.727868   18.808755 H          1 MOL1         0.0794
     124    H59     22.339254   16.245299   17.920214 H          1 MOL1         0.0794
     125    O30     24.308059   16.468083   18.565388 O.3        1 MOL1        -0.5486
     126    H60     24.775789   17.019401   19.235201 H          1 MOL1         0.3769
     127    C1      17.937912   18.645632   24.445781 C.2        1 MOL1         0.6021
     128    O1      17.600506   17.494494   24.637598 O.co2      1 MOL1        -0.6904
     129    O2      17.261083   19.607959   24.752517 O.co2      1 MOL1        -0.6904
     130    C2      19.284918   18.895816   23.774325 C.3        1 MOL1        -0.2102
     131    H1      19.990728   18.140654   24.140320 H          1 MOL1         0.0687
     132    H2      19.654617   19.873001   24.107650 H          1 MOL1         0.0687
     133    C3      19.219222   18.853286   22.228485 C.3        1 MOL1        -0.1974
     134    H3      18.854467   17.871833   21.900523 H          1 MOL1         0.0689
     135    H4      18.499605   19.598637   21.871916 H          1 MOL1         0.0689
     136    C4      20.596076   19.129119   21.601297 C.3        1 MOL1        -0.2987
     137    H5      21.314909   18.364801   21.914588 H          1 MOL1         0.0700
     138    H6      20.538720   19.123679   20.505816 H          1 MOL1         0.0700
     139    H7      20.976575   20.104772   21.925769 H          1 MOL1         0.0700
@<TRIPOS>BOND
    1     1     2    1
    2     1     3    1
    3     1     4    1
    4     4     5    1
    5     4     6    1
    6     6     7    1
    7     4     8    1
    8     8     9    1
    9     8    10    1
   10    10    11    1
   11     8    12    1
   12    12    13    1
   13    12    14    1
   14    14    15    1
   15     1    16    1
   16    14    16    1
   17    14    17    1
   18    17    18    1
   19    17    19    1
   20    17    20    1
   21    20    21    1
   22    22    23    1
   23    22    24    1
   24    22    25    1
   25    25    26    1
   26    25    27    1
   27    27    28    1
   28    25    29    1
   29    29    30    1
   30    29    31    1
   31    31    32    1
   32     3    33    1
   33    29    33    1
   34    33    34    1
   35    33    35    1
   36    35    36    1
   37    22    37    1
   38    35    37    1
   39    35    38    1
   40    38    39    1
   41    38    40    1
   42    38    41    1
   43    41    42    1
   44    43    44    1
   45    43    45    1
   46    43    46    1
   47    46    47    1
   48    46    48    1
   49    48    49    1
   50    46    50    1
   51    50    51    1
   52    50    52    1
   53    52    53    1
   54    24    54    1
   55    50    54    1
   56    54    55    1
   57    54    56    1
   58    56    57    1
   59    43    58    1
   60    56    58    1
   61    56    59    1
   62    59    60    1
   63    59    61    1
   64    59    62    1
   65    62    63    1
   66    64    65    1
   67    64    66    1
   68    64    67    1
   69    67    68    1
   70    67    69    1
   71    69    70    1
   72    67    71    1
   73    71    72    1
   74    71    73    1
   75    73    74    1
   76    45    75    1
   77    71    75    1
   78    75    76    1
   79    75    77    1
   80    77    78    1
   81    64    79    1
   82    77    79    1
   83    77    80    1
   84    80    81    1
   85    80    82    1
   86    80    83    1
   87    83    84    1
   88    85    86    1
   89    85    87    1
   90    85    88    1
   91    88    89    1
   92    88    90    1
   93    90    91    1
   94    88    92    1
   95    92    93    1
   96    92    94    1
   97    94    95    1
   98    66    96    1
   99    92    96    1
  100    96    97    1
  101    96    98    1
  102    98    99    1
  103    85   100    1
  104    98   100    1
  105    98   101    1
  106   101   102    1
  107   101   103    1
  108   101   104    1
  109   104   105    1
  110   106   107    1
  111    12   108    1
  112   106   108    1
  113   106   109    1
  114   109   110    1
  115   109   111    1
  116   111   112    1
  117   109   113    1
  118   113   114    1
  119   113   115    1
  120   115   116    1
  121    87   117    1
  122   113   117    1
  123   117   118    1
  124   117   119    1
  125   119   120    1
  126   106   121    1
  127   119   121    1
  128   119   122    1
  129   122   123    1
  130   122   124    1
  131   122   125    1
  132   125   126    1
  133   127   128    1
  134   127   129    2
  135   127   130    1
  136   130   131    1
  137   130   132    1
  138   130   133    1
  139   133   134    1
  140   133   135    1
  141   133   136    1
  142   136   137    1
  143   136   138    1
  144   136   139    1
@<TRIPOS>SUBSTRUCTURE
       1 MOL1            1 RESIDUE      1      MOL     
       2 MOL1          139 RESIDUE      1      MOL     
@<SCITEGIC>MOL_PROPERTY
feprocess Rank
SciTegic.value.IntegerValue
14

@<SCITEGIC>MOL_PROPERTY
Conf_Id
SciTegic.value.IntegerValue
502

@<SCITEGIC>MOL_PROPERTY
Probability
SciTegic.value.DoubleValue
0.26

@<SCITEGIC>MOL_PROPERTY
G
SciTegic.value.DoubleValue
485.482

@<SCITEGIC>MOL_PROPERTY
E
SciTegic.value.DoubleValue
309.985

@<SCITEGIC>MOL_PROPERTY
-TS
SciTegic.value.DoubleValue
175.497

@<SCITEGIC>MOL_PROPERTY
U+W
SciTegic.value.DoubleValue
187.474

@<SCITEGIC>MOL_PROPERTY
U
SciTegic.value.DoubleValue
264.518

@<SCITEGIC>MOL_PROPERTY
W
SciTegic.value.DoubleValue
-77.044

@<SCITEGIC>MOL_PROPERTY
W(PB)
SciTegic.value.DoubleValue
-82.979

@<SCITEGIC>MOL_PROPERTY
W(SA)
SciTegic.value.DoubleValue
5.934

@<SCITEGIC>MOL_PROPERTY
Valence
SciTegic.value.DoubleValue
152.543

@<SCITEGIC>MOL_PROPERTY
Coulomb
SciTegic.value.DoubleValue
133.024

@<SCITEGIC>MOL_PROPERTY
VdW
SciTegic.value.DoubleValue
-21.049

@<SCITEGIC>MOL_PROPERTY
VdW6
SciTegic.value.DoubleValue
-172.835

@<SCITEGIC>MOL_PROPERTY
VdW12
SciTegic.value.DoubleValue
151.786

@<SCITEGIC>MOL_PROPERTY
Bond
SciTegic.value.DoubleValue
4.940

@<SCITEGIC>MOL_PROPERTY
Angle
SciTegic.value.DoubleValue
13.312

@<SCITEGIC>MOL_PROPERTY
Pdih
SciTegic.value.DoubleValue
134.292

@<SCITEGIC>MOL_PROPERTY
Idih
SciTegic.value.DoubleValue
0.000

@<SCITEGIC>MOL_PROPERTY
Tether
SciTegic.value.DoubleValue
0.000

@<TRIPOS>MOLECULE
CD_guest-6_fast_vm2_rndm.mol2 : feprocess host+ligand conformer 15
         139         144           2
SMALL
USER_CHARGES
 
@<TRIPOS>ATOM
       1    C1      16.364654   15.344020   20.527849 C.3        1 MOL1         0.2972
       2    H1      15.336892   15.221945   20.162976 H          1 MOL1         0.0751
       3    O1      16.638008   16.719450   20.865883 O.3        1 MOL1        -0.3740
       4    C2      16.641549   14.416082   21.747128 C.3        1 MOL1         0.1003
       5    H2      16.504653   13.384970   21.396206 H          1 MOL1         0.0783
       6    O2      15.734766   14.650362   22.834556 O.3        1 MOL1        -0.5519
       7    H3      15.929293   15.560057   23.176291 H          1 MOL1         0.3769
       8    C3      18.107173   14.557729   22.224921 C.3        1 MOL1         0.1053
       9    H4      18.246032   15.572636   22.622198 H          1 MOL1         0.0783
      10    O3      18.376639   13.593235   23.248446 O.3        1 MOL1        -0.5519
      11    H5      17.605601   13.640851   23.856386 H          1 MOL1         0.3769
      12    C4      19.086700   14.355901   21.044151 C.3        1 MOL1         0.1018
      13    H6      19.074266   13.295881   20.758383 H          1 MOL1         0.0783
      14    C5      18.702009   15.217270   19.810454 C.3        1 MOL1         0.1043
      15    H7      18.841133   16.274855   20.068982 H          1 MOL1         0.0783
      16    O4      17.306404   14.976065   19.492623 O.3        1 MOL1        -0.3740
      17    C6      19.559969   14.956143   18.544754 C.3        1 MOL1         0.0138
      18    H8      20.422192   15.634522   18.565753 H          1 MOL1         0.0794
      19    H9      18.967712   15.224968   17.659968 H          1 MOL1         0.0794
      20    O5      20.020522   13.603569   18.436795 O.3        1 MOL1        -0.5486
      21    H10     20.770532   13.504180   19.068522 H          1 MOL1         0.3769
      22    C7      15.041411   20.350002   21.957235 C.3        1 MOL1         0.2972
      23    H11     14.439971   21.199676   22.304002 H          1 MOL1         0.0751
      24    O6      16.258826   20.784213   21.320525 O.3        1 MOL1        -0.3740
      25    C8      15.383297   19.421935   23.149988 C.3        1 MOL1         0.1003
      26    H12     14.431101   19.025151   23.524313 H          1 MOL1         0.0783
      27    O7      16.019595   20.149888   24.213330 O.3        1 MOL1        -0.5519
      28    H13     16.992363   20.223515   24.011476 H          1 MOL1         0.3769
      29    C9      16.237528   18.220721   22.679073 C.3        1 MOL1         0.1053
      30    H14     17.212383   18.604296   22.351232 H          1 MOL1         0.0783
      31    O8      16.419171   17.294323   23.756434 O.3        1 MOL1        -0.5519
      32    H15     17.124207   17.704026   24.330046 H          1 MOL1         0.3769
      33    C10     15.584754   17.493048   21.475745 C.3        1 MOL1         0.1018
      34    H16     14.765085   16.863147   21.844310 H          1 MOL1         0.0783
      35    C11     15.049676   18.469934   20.389298 C.3        1 MOL1         0.1043
      36    H17     15.916807   18.878197   19.855468 H          1 MOL1         0.0783
      37    O9      14.308124   19.561524   20.995137 O.3        1 MOL1        -0.3740
      38    C12     14.147093   17.789258   19.332657 C.3        1 MOL1         0.0138
      39    H18     14.775677   17.149970   18.698218 H          1 MOL1         0.0794
      40    H19     13.717244   18.566695   18.686905 H          1 MOL1         0.0794
      41    O10     13.106274   17.006665   19.930865 O.3        1 MOL1        -0.5486
      42    H20     12.529077   16.675715   19.208391 H          1 MOL1         0.3769
      43    C13     18.469724   24.097414   20.431734 C.3        1 MOL1         0.2972
      44    H21     18.927550   25.036479   20.095677 H          1 MOL1         0.0751
      45    O11     19.469078   23.143568   20.846494 O.3        1 MOL1        -0.3740
      46    C14     17.448563   24.346010   21.572367 C.3        1 MOL1         0.1003
      47    H22     16.650650   24.969953   21.149071 H          1 MOL1         0.0783
      48    O12     18.035134   25.044315   22.681223 O.3        1 MOL1        -0.5519
      49    H23     18.688855   24.423213   23.091314 H          1 MOL1         0.3769
      50    C15     16.804329   23.018834   22.044066 C.3        1 MOL1         0.1053
      51    H24     17.566445   22.436716   22.580291 H          1 MOL1         0.0783
      52    O13     15.718428   23.332187   22.923162 O.3        1 MOL1        -0.5519
      53    H25     16.103824   23.906072   23.619930 H          1 MOL1         0.3769
      54    C16     16.292565   22.149052   20.861439 C.3        1 MOL1         0.1018
      55    H26     15.295625   22.499545   20.567253 H          1 MOL1         0.0783
      56    C17     17.228887   22.158494   19.617741 C.3        1 MOL1         0.1043
      57    H27     18.080862   21.500811   19.829884 H          1 MOL1         0.0783
      58    O14     17.723621   23.495432   19.353938 O.3        1 MOL1        -0.3740
      59    C18     16.566463   21.610534   18.329209 C.3        1 MOL1         0.0138
      60    H28     16.470874   20.521227   18.420840 H          1 MOL1         0.0794
      61    H29     17.241847   21.802820   17.485042 H          1 MOL1         0.0794
      62    O15     15.281430   22.189617   18.069795 O.3        1 MOL1        -0.5486
      63    H30     14.647702   21.804283   18.712351 H          1 MOL1         0.3769
      64    C19     23.298524   22.591664   22.237300 C.3        1 MOL1         0.2972
      65    H31     24.315743   22.666640   22.642621 H          1 MOL1         0.0751
      66    O16     23.040537   21.287947   21.680297 O.3        1 MOL1        -0.3740
      67    C20     22.256943   22.848074   23.353201 C.3        1 MOL1         0.1003
      68    H32     22.400891   23.874339   23.714256 H          1 MOL1         0.0783
      69    O17     22.466525   21.931366   24.440915 O.3        1 MOL1        -0.5519
      70    H33     23.210155   21.338190   24.179073 H          1 MOL1         0.3769
      71    C21     20.822100   22.738910   22.776095 C.3        1 MOL1         0.1053
      72    H34     20.659840   21.702582   22.457571 H          1 MOL1         0.0783
      73    O18     19.848410   23.079267   23.769175 O.3        1 MOL1        -0.5519
      74    H35     19.486514   22.199463   24.066164 H          1 MOL1         0.3769
      75    C22     20.640970   23.636069   21.524481 C.3        1 MOL1         0.1018
      76    H36     20.531564   24.680549   21.843643 H          1 MOL1         0.0783
      77    C23     21.817258   23.505444   20.514962 C.3        1 MOL1         0.1043
      78    H37     21.726056   22.528990   20.022560 H          1 MOL1         0.0783
      79    O19     23.095163   23.570521   21.197387 O.3        1 MOL1        -0.3740
      80    C24     21.799153   24.579458   19.401206 C.3        1 MOL1         0.0138
      81    H38     20.957388   24.368038   18.728031 H          1 MOL1         0.0794
      82    H39     22.720112   24.486814   18.810052 H          1 MOL1         0.0794
      83    O20     21.677093   25.905898   19.929810 O.3        1 MOL1        -0.5486
      84    H40     21.751091   26.534232   19.178582 H          1 MOL1         0.3769
      85    C25     25.017084   17.646011   21.170725 C.3        1 MOL1         0.2972
      86    H41     25.748096   16.866284   20.924217 H          1 MOL1         0.0751
      87    O21     23.727021   17.093819   21.489773 O.3        1 MOL1        -0.3740
      88    C26     25.484760   18.479646   22.392216 C.3        1 MOL1         0.1003
      89    H42     26.436373   18.954165   22.119433 H          1 MOL1         0.0783
      90    O22     25.691602   17.645662   23.543099 O.3        1 MOL1        -0.5519
      91    H43     24.898507   17.058175   23.632332 H          1 MOL1         0.3769
      92    C27     24.465874   19.603494   22.709261 C.3        1 MOL1         0.1053
      93    H44     23.524523   19.135734   23.028537 H          1 MOL1         0.0783
      94    O23     24.981969   20.422541   23.763093 O.3        1 MOL1        -0.5519
      95    H45     25.374285   19.789844   24.406700 H          1 MOL1         0.3769
      96    C28     24.183448   20.451422   21.440845 C.3        1 MOL1         0.1018
      97    H46     25.073819   21.046378   21.199309 H          1 MOL1         0.0783
      98    C29     23.821426   19.557620   20.225125 C.3        1 MOL1         0.1043
      99    H47     22.860227   19.068827   20.431536 H          1 MOL1         0.0783
     100    O24     24.847768   18.548469   20.054381 O.3        1 MOL1        -0.3740
     101    C30     23.646754   20.338805   18.897744 C.3        1 MOL1         0.0138
     102    H48     22.624329   20.737582   18.866082 H          1 MOL1         0.0794
     103    H49     23.741531   19.634769   18.060455 H          1 MOL1         0.0794
     104    O25     24.583679   21.413432   18.750904 O.3        1 MOL1        -0.5486
     105    H50     24.351863   22.093334   19.421781 H          1 MOL1         0.3769
     106    C31     21.377090   13.744709   21.619406 C.3        1 MOL1         0.2972
     107    H51     20.926307   12.744354   21.648218 H          1 MOL1         0.0751
     108    O26     20.382337   14.778554   21.499444 O.3        1 MOL1        -0.3740
     109    C32     22.177331   13.998854   22.917438 C.3        1 MOL1         0.1003
     110    H52     22.991335   13.263408   22.957470 H          1 MOL1         0.0783
     111    O27     21.333800   13.838631   24.068985 O.3        1 MOL1        -0.5519
     112    H53     20.408345   14.030103   23.776281 H          1 MOL1         0.3769
     113    C33     22.804588   15.410663   22.895842 C.3        1 MOL1         0.1053
     114    H54     21.986981   16.141311   22.946438 H          1 MOL1         0.0783
     115    O28     23.657964   15.569247   24.033111 O.3        1 MOL1        -0.5519
     116    H55     23.132915   15.226641   24.790866 H          1 MOL1         0.3769
     117    C34     23.606771   15.664416   21.593389 C.3        1 MOL1         0.1018
     118    H56     24.581867   15.168513   21.680158 H          1 MOL1         0.0783
     119    C35     22.863006   15.185685   20.312006 C.3        1 MOL1         0.1043
     120    H57     22.057023   15.903858   20.113611 H          1 MOL1         0.0783
     121    O29     22.283427   13.868973   20.504865 O.3        1 MOL1        -0.3740
     122    C36     23.753872   15.145729   19.046708 C.3        1 MOL1         0.0138
     123    H58     24.049366   16.171443   18.787550 H          1 MOL1         0.0794
     124    H59     23.150444   14.764437   18.212201 H          1 MOL1         0.0794
     125    O30     24.917393   14.326210   19.218794 O.3        1 MOL1        -0.5486
     126    H60     25.539887   14.796522   19.810317 H          1 MOL1         0.3769
     127    C1      19.262610   19.321895   24.076297 C.2        1 MOL1         0.6021
     128    O1      18.836509   20.450543   23.911552 O.co2      1 MOL1        -0.6904
     129    O2      18.703160   18.501427   24.777548 O.co2      1 MOL1        -0.6904
     130    C2      20.502459   18.870031   23.304095 C.3        1 MOL1        -0.2102
     131    H1      21.005725   18.114330   23.918059 H          1 MOL1         0.0687
     132    H2      21.194716   19.712626   23.223344 H          1 MOL1         0.0687
     133    C3      20.202380   18.273100   21.903895 C.3        1 MOL1        -0.1974
     134    H3      21.095677   17.761383   21.528035 H          1 MOL1         0.0689
     135    H4      19.419029   17.511141   22.000672 H          1 MOL1         0.0689
     136    C4      19.771548   19.336936   20.874606 C.3        1 MOL1        -0.2987
     137    H5      20.567304   20.074837   20.715026 H          1 MOL1         0.0700
     138    H6      19.534841   18.872020   19.909641 H          1 MOL1         0.0700
     139    H7      18.880127   19.871795   21.223592 H          1 MOL1         0.0700
@<TRIPOS>BOND
    1     1     2    1
    2     1     3    1
    3     1     4    1
    4     4     5    1
    5     4     6    1
    6     6     7    1
    7     4     8    1
    8     8     9    1
    9     8    10    1
   10    10    11    1
   11     8    12    1
   12    12    13    1
   13    12    14    1
   14    14    15    1
   15     1    16    1
   16    14    16    1
   17    14    17    1
   18    17    18    1
   19    17    19    1
   20    17    20    1
   21    20    21    1
   22    22    23    1
   23    22    24    1
   24    22    25    1
   25    25    26    1
   26    25    27    1
   27    27    28    1
   28    25    29    1
   29    29    30    1
   30    29    31    1
   31    31    32    1
   32     3    33    1
   33    29    33    1
   34    33    34    1
   35    33    35    1
   36    35    36    1
   37    22    37    1
   38    35    37    1
   39    35    38    1
   40    38    39    1
   41    38    40    1
   42    38    41    1
   43    41    42    1
   44    43    44    1
   45    43    45    1
   46    43    46    1
   47    46    47    1
   48    46    48    1
   49    48    49    1
   50    46    50    1
   51    50    51    1
   52    50    52    1
   53    52    53    1
   54    24    54    1
   55    50    54    1
   56    54    55    1
   57    54    56    1
   58    56    57    1
   59    43    58    1
   60    56    58    1
   61    56    59    1
   62    59    60    1
   63    59    61    1
   64    59    62    1
   65    62    63    1
   66    64    65    1
   67    64    66    1
   68    64    67    1
   69    67    68    1
   70    67    69    1
   71    69    70    1
   72    67    71    1
   73    71    72    1
   74    71    73    1
   75    73    74    1
   76    45    75    1
   77    71    75    1
   78    75    76    1
   79    75    77    1
   80    77    78    1
   81    64    79    1
   82    77    79    1
   83    77    80    1
   84    80    81    1
   85    80    82    1
   86    80    83    1
   87    83    84    1
   88    85    86    1
   89    85    87    1
   90    85    88    1
   91    88    89    1
   92    88    90    1
   93    90    91    1
   94    88    92    1
   95    92    93    1
   96    92    94    1
   97    94    95    1
   98    66    96    1
   99    92    96    1
  100    96    97    1
  101    96    98    1
  102    98    99    1
  103    85   100    1
  104    98   100    1
  105    98   101    1
  106   101   102    1
  107   101   103    1
  108   101   104    1
  109   104   105    1
  110   106   107    1
  111    12   108    1
  112   106   108    1
  113   106   109    1
  114   109   110    1
  115   109   111    1
  116   111   112    1
  117   109   113    1
  118   113   114    1
  119   113   115    1
  120   115   116    1
  121    87   117    1
  122   113   117    1
  123   117   118    1
  124   117   119    1
  125   119   120    1
  126   106   121    1
  127   119   121    1
  128   119   122    1
  129   122   123    1
  130   122   124    1
  131   122   125    1
  132   125   126    1
  133   127   128    1
  134   127   129    2
  135   127   130    1
  136   130   131    1
  137   130   132    1
  138   130   133    1
  139   133   134    1
  140   133   135    1
  141   133   136    1
  142   136   137    1
  143   136   138    1
  144   136   139    1
@<TRIPOS>SUBSTRUCTURE
       1 MOL1            1 RESIDUE      1      MOL     
       2 MOL1          139 RESIDUE      1      MOL     
@<SCITEGIC>MOL_PROPERTY
feprocess Rank
SciTegic.value.IntegerValue
15

@<SCITEGIC>MOL_PROPERTY
Conf_Id
SciTegic.value.IntegerValue
480

@<SCITEGIC>MOL_PROPERTY
Probability
SciTegic.value.DoubleValue
0.24

@<SCITEGIC>MOL_PROPERTY
G
SciTegic.value.DoubleValue
485.544

@<SCITEGIC>MOL_PROPERTY
E
SciTegic.value.DoubleValue
307.991

@<SCITEGIC>MOL_PROPERTY
-TS
SciTegic.value.DoubleValue
177.554

@<SCITEGIC>MOL_PROPERTY
U+W
SciTegic.value.DoubleValue
185.479

@<SCITEGIC>MOL_PROPERTY
U
SciTegic.value.DoubleValue
262.522

@<SCITEGIC>MOL_PROPERTY
W
SciTegic.value.DoubleValue
-77.043

@<SCITEGIC>MOL_PROPERTY
W(PB)
SciTegic.value.DoubleValue
-82.992

@<SCITEGIC>MOL_PROPERTY
W(SA)
SciTegic.value.DoubleValue
5.949

@<SCITEGIC>MOL_PROPERTY
Valence
SciTegic.value.DoubleValue
152.641

@<SCITEGIC>MOL_PROPERTY
Coulomb
SciTegic.value.DoubleValue
131.988

@<SCITEGIC>MOL_PROPERTY
VdW
SciTegic.value.DoubleValue
-22.106

@<SCITEGIC>MOL_PROPERTY
VdW6
SciTegic.value.DoubleValue
-178.503

@<SCITEGIC>MOL_PROPERTY
VdW12
SciTegic.value.DoubleValue
156.397

@<SCITEGIC>MOL_PROPERTY
Bond
SciTegic.value.DoubleValue
5.141

@<SCITEGIC>MOL_PROPERTY
Angle
SciTegic.value.DoubleValue
15.337

@<SCITEGIC>MOL_PROPERTY
Pdih
SciTegic.value.DoubleValue
132.151

@<SCITEGIC>MOL_PROPERTY
Idih
SciTegic.value.DoubleValue
0.012

@<SCITEGIC>MOL_PROPERTY
Tether
SciTegic.value.DoubleValue
0.000

@<TRIPOS>MOLECULE
CD_guest-6_fast_vm2_rndm.mol2 : feprocess host+ligand conformer 16
         139         144           2
SMALL
USER_CHARGES
 
@<TRIPOS>ATOM
       1    C1      16.217591   15.230977   20.785311 C.3        1 MOL1         0.2972
       2    H1      15.187077   15.017228   20.473543 H          1 MOL1         0.0751
       3    O1      16.378190   16.595522   21.211562 O.3        1 MOL1        -0.3740
       4    C2      16.644471   14.326915   21.971255 C.3        1 MOL1         0.1003
       5    H2      16.583225   13.285774   21.628707 H          1 MOL1         0.0783
       6    O2      15.771555   14.502385   23.098801 O.3        1 MOL1        -0.5519
       7    H3      15.666119   15.477094   23.243831 H          1 MOL1         0.3769
       8    C3      18.114062   14.612248   22.374901 C.3        1 MOL1         0.1053
       9    H4      18.170177   15.636390   22.768585 H          1 MOL1         0.0783
      10    O3      18.511123   13.682344   23.387709 O.3        1 MOL1        -0.5519
      11    H5      17.737130   13.621243   23.992511 H          1 MOL1         0.3769
      12    C4      19.048417   14.514885   21.139189 C.3        1 MOL1         0.1018
      13    H6      19.131378   13.464650   20.830926 H          1 MOL1         0.0783
      14    C5      18.512811   15.356350   19.950645 C.3        1 MOL1         0.1043
      15    H7      18.564385   16.417021   20.229170 H          1 MOL1         0.0783
      16    O4      17.134169   14.993745   19.692677 O.3        1 MOL1        -0.3740
      17    C6      19.334254   15.198881   18.645846 C.3        1 MOL1         0.0138
      18    H8      20.206362   15.863106   18.706424 H          1 MOL1         0.0794
      19    H9      18.723878   15.547939   17.802473 H          1 MOL1         0.0794
      20    O5      19.772305   13.853521   18.417671 O.3        1 MOL1        -0.5486
      21    H10     20.445355   13.647917   19.103383 H          1 MOL1         0.3769
      22    C7      14.635478   20.285134   21.451288 C.3        1 MOL1         0.2972
      23    H11     13.996572   21.176262   21.500997 H          1 MOL1         0.0751
      24    O6      16.032277   20.629049   21.381629 O.3        1 MOL1        -0.3740
      25    C8      14.418976   19.410628   22.707943 C.3        1 MOL1         0.1003
      26    H12     13.375959   19.068306   22.701585 H          1 MOL1         0.0783
      27    O7      14.663331   20.172236   23.901067 O.3        1 MOL1        -0.5519
      28    H13     15.292231   20.895743   23.656637 H          1 MOL1         0.3769
      29    C9      15.334074   18.166985   22.660076 C.3        1 MOL1         0.1053
      30    H14     16.371518   18.511930   22.752695 H          1 MOL1         0.0783
      31    O8      15.020344   17.298741   23.753670 O.3        1 MOL1        -0.5519
      32    H15     14.965138   17.890980   24.536739 H          1 MOL1         0.3769
      33    C10     15.192455   17.401522   21.319899 C.3        1 MOL1         0.1018
      34    H16     14.278759   16.793926   21.359018 H          1 MOL1         0.0783
      35    C11     15.171614   18.334097   20.073315 C.3        1 MOL1         0.1043
      36    H17     16.199031   18.680688   19.904630 H          1 MOL1         0.0783
      37    O9      14.316604   19.486908   20.293241 O.3        1 MOL1        -0.3740
      38    C12     14.713515   17.623513   18.777586 C.3        1 MOL1         0.0138
      39    H18     15.497395   16.917922   18.470821 H          1 MOL1         0.0794
      40    H19     14.620135   18.373321   17.980492 H          1 MOL1         0.0794
      41    O10     13.473990   16.926387   18.954194 O.3        1 MOL1        -0.5486
      42    H20     13.213049   16.557330   18.082293 H          1 MOL1         0.3769
      43    C13     18.555991   23.873779   20.653514 C.3        1 MOL1         0.2972
      44    H21     18.963267   24.842980   20.341130 H          1 MOL1         0.0751
      45    O11     19.612034   22.952352   20.999858 O.3        1 MOL1        -0.3740
      46    C14     17.557739   24.043988   21.835905 C.3        1 MOL1         0.1003
      47    H22     16.745209   24.685809   21.471140 H          1 MOL1         0.0783
      48    O12     18.159784   24.677584   22.974141 O.3        1 MOL1        -0.5519
      49    H23     18.810141   24.030052   23.348430 H          1 MOL1         0.3769
      50    C15     16.935146   22.683549   22.233970 C.3        1 MOL1         0.1053
      51    H24     17.728841   22.043975   22.643702 H          1 MOL1         0.0783
      52    O13     15.916941   22.888929   23.219522 O.3        1 MOL1        -0.5519
      53    H25     16.309584   23.511034   23.871451 H          1 MOL1         0.3769
      54    C16     16.331358   21.979986   20.994950 C.3        1 MOL1         0.1018
      55    H26     15.432696   22.528919   20.684145 H          1 MOL1         0.0783
      56    C17     17.330482   21.931667   19.807129 C.3        1 MOL1         0.1043
      57    H27     18.169107   21.280368   20.084593 H          1 MOL1         0.0783
      58    O14     17.822393   23.274414   19.560405 O.3        1 MOL1        -0.3740
      59    C18     16.743102   21.359302   18.490372 C.3        1 MOL1         0.0138
      60    H28     16.911261   20.275013   18.479816 H          1 MOL1         0.0794
      61    H29     17.308614   21.774962   17.645794 H          1 MOL1         0.0794
      62    O15     15.344794   21.626432   18.326174 O.3        1 MOL1        -0.5486
      63    H30     14.862084   21.015007   18.929957 H          1 MOL1         0.3769
      64    C19     23.470301   22.455196   22.327946 C.3        1 MOL1         0.2972
      65    H31     24.482630   22.525122   22.745225 H          1 MOL1         0.0751
      66    O16     23.275219   21.224254   21.604751 O.3        1 MOL1        -0.3740
      67    C20     22.421337   22.562714   23.462476 C.3        1 MOL1         0.1003
      68    H32     22.528251   23.564866   23.896630 H          1 MOL1         0.0783
      69    O17     22.667037   21.595325   24.496258 O.3        1 MOL1        -0.5519
      70    H33     22.259809   20.727271   24.225912 H          1 MOL1         0.3769
      71    C21     20.987671   22.452005   22.890320 C.3        1 MOL1         0.1053
      72    H34     20.854612   21.435030   22.498958 H          1 MOL1         0.0783
      73    O18     20.027937   22.703203   23.923150 O.3        1 MOL1        -0.5519
      74    H35     20.002248   21.861813   24.457661 H          1 MOL1         0.3769
      75    C22     20.759852   23.446712   21.722003 C.3        1 MOL1         0.1018
      76    H36     20.591003   24.446106   22.140457 H          1 MOL1         0.0783
      77    C23     21.945684   23.491236   20.714930 C.3        1 MOL1         0.1043
      78    H37     21.902046   22.574427   20.113683 H          1 MOL1         0.0783
      79    O19     23.218432   23.541274   21.411074 O.3        1 MOL1        -0.3740
      80    C24     21.881914   24.683658   19.729612 C.3        1 MOL1         0.0138
      81    H38     21.007175   24.557120   19.077691 H          1 MOL1         0.0794
      82    H39     22.770267   24.646889   19.085178 H          1 MOL1         0.0794
      83    O20     21.818699   25.950707   20.398549 O.3        1 MOL1        -0.5486
      84    H40     20.971050   26.003106   20.886373 H          1 MOL1         0.3769
      85    C25     25.100625   17.696174   20.647975 C.3        1 MOL1         0.2972
      86    H41     25.709236   16.850125   20.304207 H          1 MOL1         0.0751
      87    O21     23.754921   17.282869   20.962439 O.3        1 MOL1        -0.3740
      88    C26     25.752265   18.398996   21.867395 C.3        1 MOL1         0.1003
      89    H42     26.713245   18.801294   21.521233 H          1 MOL1         0.0783
      90    O22     26.001541   17.487296   22.948111 O.3        1 MOL1        -0.5519
      91    H43     25.115334   17.207335   23.290939 H          1 MOL1         0.3769
      92    C27     24.891671   19.593265   22.349375 C.3        1 MOL1         0.1053
      93    H44     23.976478   19.196106   22.809738 H          1 MOL1         0.0783
      94    O23     25.647279   20.330707   23.316535 O.3        1 MOL1        -0.5519
      95    H45     25.910896   19.674571   23.997249 H          1 MOL1         0.3769
      96    C28     24.465739   20.530496   21.184105 C.3        1 MOL1         0.1018
      97    H46     25.284464   21.229202   20.972421 H          1 MOL1         0.0783
      98    C29     24.082049   19.777117   19.876947 C.3        1 MOL1         0.1043
      99    H47     23.078033   19.355983   20.010451 H          1 MOL1         0.0783
     100    O24     25.011615   18.696530   19.612444 O.3        1 MOL1        -0.3740
     101    C30     24.009203   20.687626   18.625935 C.3        1 MOL1         0.0138
     102    H48     23.104819   21.305264   18.695002 H          1 MOL1         0.0794
     103    H49     23.893901   20.049045   17.740128 H          1 MOL1         0.0794
     104    O25     25.160127   21.528522   18.476904 O.3        1 MOL1        -0.5486
     105    H50     25.099573   22.236167   19.154121 H          1 MOL1         0.3769
     106    C31     21.300339   14.167111   22.044089 C.3        1 MOL1         0.2972
     107    H51     20.837854   13.227266   22.371645 H          1 MOL1         0.0751
     108    O26     20.331897   15.068286   21.472534 O.3        1 MOL1        -0.3740
     109    C32     21.969215   14.882940   23.242757 C.3        1 MOL1         0.1003
     110    H52     22.764816   14.227835   23.619801 H          1 MOL1         0.0783
     111    O27     21.004439   15.102344   24.286182 O.3        1 MOL1        -0.5519
     112    H53     20.147136   14.730338   23.970004 H          1 MOL1         0.3769
     113    C33     22.620921   16.209569   22.773908 C.3        1 MOL1         0.1053
     114    H54     21.822494   16.883633   22.442558 H          1 MOL1         0.0783
     115    O28     23.339239   16.829108   23.846503 O.3        1 MOL1        -0.5519
     116    H55     22.740349   17.567109   24.146517 H          1 MOL1         0.3769
     117    C34     23.563349   15.987149   21.562824 C.3        1 MOL1         0.1018
     118    H56     24.504585   15.546885   21.916395 H          1 MOL1         0.0783
     119    C35     22.930457   15.085462   20.464594 C.3        1 MOL1         0.1043
     120    H57     22.158163   15.674646   19.953921 H          1 MOL1         0.0783
     121    O29     22.314846   13.910891   21.051097 O.3        1 MOL1        -0.3740
     122    C36     23.938854   14.625157   19.384953 C.3        1 MOL1         0.0138
     123    H58     24.211638   15.494145   18.771046 H          1 MOL1         0.0794
     124    H59     23.439778   13.903520   18.724383 H          1 MOL1         0.0794
     125    O30     25.117954   14.045143   19.956910 O.3        1 MOL1        -0.5486
     126    H60     25.672093   13.707789   19.219512 H          1 MOL1         0.3769
     127    C1      20.369670   19.207352   24.103220 C.2        1 MOL1         0.6021
     128    O1      21.567705   19.015159   24.002939 O.co2      1 MOL1        -0.6904
     129    O2      19.897598   20.074356   24.812726 O.co2      1 MOL1        -0.6904
     130    C2      19.407686   18.399159   23.232658 C.3        1 MOL1        -0.2102
     131    H1      18.469226   18.308655   23.791234 H          1 MOL1         0.0687
     132    H2      19.798542   17.384040   23.120971 H          1 MOL1         0.0687
     133    C3      19.119782   19.030331   21.845083 C.3        1 MOL1        -0.1974
     134    H3      18.254651   18.533668   21.391318 H          1 MOL1         0.0689
     135    H4      18.843358   20.082899   21.982926 H          1 MOL1         0.0689
     136    C4      20.314562   18.926637   20.876409 C.3        1 MOL1        -0.2987
     137    H5      20.566837   17.878490   20.673921 H          1 MOL1         0.0700
     138    H6      20.086000   19.416202   19.921729 H          1 MOL1         0.0700
     139    H7      21.200473   19.410358   21.304817 H          1 MOL1         0.0700
@<TRIPOS>BOND
    1     1     2    1
    2     1     3    1
    3     1     4    1
    4     4     5    1
    5     4     6    1
    6     6     7    1
    7     4     8    1
    8     8     9    1
    9     8    10    1
   10    10    11    1
   11     8    12    1
   12    12    13    1
   13    12    14    1
   14    14    15    1
   15     1    16    1
   16    14    16    1
   17    14    17    1
   18    17    18    1
   19    17    19    1
   20    17    20    1
   21    20    21    1
   22    22    23    1
   23    22    24    1
   24    22    25    1
   25    25    26    1
   26    25    27    1
   27    27    28    1
   28    25    29    1
   29    29    30    1
   30    29    31    1
   31    31    32    1
   32     3    33    1
   33    29    33    1
   34    33    34    1
   35    33    35    1
   36    35    36    1
   37    22    37    1
   38    35    37    1
   39    35    38    1
   40    38    39    1
   41    38    40    1
   42    38    41    1
   43    41    42    1
   44    43    44    1
   45    43    45    1
   46    43    46    1
   47    46    47    1
   48    46    48    1
   49    48    49    1
   50    46    50    1
   51    50    51    1
   52    50    52    1
   53    52    53    1
   54    24    54    1
   55    50    54    1
   56    54    55    1
   57    54    56    1
   58    56    57    1
   59    43    58    1
   60    56    58    1
   61    56    59    1
   62    59    60    1
   63    59    61    1
   64    59    62    1
   65    62    63    1
   66    64    65    1
   67    64    66    1
   68    64    67    1
   69    67    68    1
   70    67    69    1
   71    69    70    1
   72    67    71    1
   73    71    72    1
   74    71    73    1
   75    73    74    1
   76    45    75    1
   77    71    75    1
   78    75    76    1
   79    75    77    1
   80    77    78    1
   81    64    79    1
   82    77    79    1
   83    77    80    1
   84    80    81    1
   85    80    82    1
   86    80    83    1
   87    83    84    1
   88    85    86    1
   89    85    87    1
   90    85    88    1
   91    88    89    1
   92    88    90    1
   93    90    91    1
   94    88    92    1
   95    92    93    1
   96    92    94    1
   97    94    95    1
   98    66    96    1
   99    92    96    1
  100    96    97    1
  101    96    98    1
  102    98    99    1
  103    85   100    1
  104    98   100    1
  105    98   101    1
  106   101   102    1
  107   101   103    1
  108   101   104    1
  109   104   105    1
  110   106   107    1
  111    12   108    1
  112   106   108    1
  113   106   109    1
  114   109   110    1
  115   109   111    1
  116   111   112    1
  117   109   113    1
  118   113   114    1
  119   113   115    1
  120   115   116    1
  121    87   117    1
  122   113   117    1
  123   117   118    1
  124   117   119    1
  125   119   120    1
  126   106   121    1
  127   119   121    1
  128   119   122    1
  129   122   123    1
  130   122   124    1
  131   122   125    1
  132   125   126    1
  133   127   128    1
  134   127   129    2
  135   127   130    1
  136   130   131    1
  137   130   132    1
  138   130   133    1
  139   133   134    1
  140   133   135    1
  141   133   136    1
  142   136   137    1
  143   136   138    1
  144   136   139    1
@<TRIPOS>SUBSTRUCTURE
       1 MOL1            1 RESIDUE      1      MOL     
       2 MOL1          139 RESIDUE      1      MOL     
@<SCITEGIC>MOL_PROPERTY
feprocess Rank
SciTegic.value.IntegerValue
16

@<SCITEGIC>MOL_PROPERTY
Conf_Id
SciTegic.value.IntegerValue
896

@<SCITEGIC>MOL_PROPERTY
Probability
SciTegic.value.DoubleValue
0.18

@<SCITEGIC>MOL_PROPERTY
G
SciTegic.value.DoubleValue
485.705

@<SCITEGIC>MOL_PROPERTY
E
SciTegic.value.DoubleValue
308.272

@<SCITEGIC>MOL_PROPERTY
-TS
SciTegic.value.DoubleValue
177.432

@<SCITEGIC>MOL_PROPERTY
U+W
SciTegic.value.DoubleValue
185.761

@<SCITEGIC>MOL_PROPERTY
U
SciTegic.value.DoubleValue
261.016

@<SCITEGIC>MOL_PROPERTY
W
SciTegic.value.DoubleValue
-75.255

@<SCITEGIC>MOL_PROPERTY
W(PB)
SciTegic.value.DoubleValue
-81.209

@<SCITEGIC>MOL_PROPERTY
W(SA)
SciTegic.value.DoubleValue
5.953

@<SCITEGIC>MOL_PROPERTY
Valence
SciTegic.value.DoubleValue
152.381

@<SCITEGIC>MOL_PROPERTY
Coulomb
SciTegic.value.DoubleValue
130.621

@<SCITEGIC>MOL_PROPERTY
VdW
SciTegic.value.DoubleValue
-21.986

@<SCITEGIC>MOL_PROPERTY
VdW6
SciTegic.value.DoubleValue
-178.769

@<SCITEGIC>MOL_PROPERTY
VdW12
SciTegic.value.DoubleValue
156.783

@<SCITEGIC>MOL_PROPERTY
Bond
SciTegic.value.DoubleValue
5.167

@<SCITEGIC>MOL_PROPERTY
Angle
SciTegic.value.DoubleValue
15.433

@<SCITEGIC>MOL_PROPERTY
Pdih
SciTegic.value.DoubleValue
131.767

@<SCITEGIC>MOL_PROPERTY
Idih
SciTegic.value.DoubleValue
0.014

@<SCITEGIC>MOL_PROPERTY
Tether
SciTegic.value.DoubleValue
0.000

@<TRIPOS>MOLECULE
CD_guest-6_fast_vm2_rndm.mol2 : feprocess host+ligand conformer 17
         139         144           2
SMALL
USER_CHARGES
 
@<TRIPOS>ATOM
       1    C1      16.445485   15.353644   22.289760 C.3        1 MOL1         0.2972
       2    H1      15.421038   15.363875   22.682221 H          1 MOL1         0.0751
       3    O1      16.788179   16.607092   21.670188 O.3        1 MOL1        -0.3740
       4    C2      17.446998   15.065398   23.434233 C.3        1 MOL1         0.1003
       5    H2      17.217075   14.064194   23.820769 H          1 MOL1         0.0783
       6    O2      17.314750   16.021447   24.497541 O.3        1 MOL1        -0.5519
       7    H3      17.596072   16.907260   24.132115 H          1 MOL1         0.3769
       8    C3      18.899311   15.055410   22.910309 C.3        1 MOL1         0.1053
       9    H4      19.158206   16.083807   22.638731 H          1 MOL1         0.0783
      10    O3      19.770234   14.611977   23.955308 O.3        1 MOL1        -0.5519
      11    H5      19.523182   15.156701   24.736279 H          1 MOL1         0.3769
      12    C4      19.077121   14.170462   21.648035 C.3        1 MOL1         0.1018
      13    H6      19.221719   13.127500   21.958909 H          1 MOL1         0.0783
      14    C5      17.897992   14.273507   20.636877 C.3        1 MOL1         0.1043
      15    H7      18.033224   15.208989   20.084551 H          1 MOL1         0.0783
      16    O4      16.609003   14.312191   21.303380 O.3        1 MOL1        -0.3740
      17    C6      17.881228   13.134224   19.590362 C.3        1 MOL1         0.0138
      18    H8      18.738657   13.267445   18.916906 H          1 MOL1         0.0794
      19    H9      16.971736   13.229028   18.981963 H          1 MOL1         0.0794
      20    O5      17.939269   11.839625   20.201338 O.3        1 MOL1        -0.5486
      21    H10     17.848749   11.169142   19.489233 H          1 MOL1         0.3769
      22    C7      15.054764   20.155147   20.402199 C.3        1 MOL1         0.2972
      23    H11     14.441083   20.940700   19.943126 H          1 MOL1         0.0751
      24    O6      16.308632   20.678325   20.883468 O.3        1 MOL1        -0.3740
      25    C8      14.300338   19.461677   21.567043 C.3        1 MOL1         0.1003
      26    H12     13.401163   19.005019   21.133397 H          1 MOL1         0.0783
      27    O7      13.896917   20.399153   22.576771 O.3        1 MOL1        -0.5519
      28    H13     14.725904   20.793984   22.949594 H          1 MOL1         0.3769
      29    C9      15.150633   18.324077   22.188099 C.3        1 MOL1         0.1053
      30    H14     16.004954   18.775161   22.713453 H          1 MOL1         0.0783
      31    O8      14.326766   17.602693   23.110689 O.3        1 MOL1        -0.5519
      32    H15     13.936532   18.286131   23.697940 H          1 MOL1         0.3769
      33    C10     15.703886   17.362906   21.098861 C.3        1 MOL1         0.1018
      34    H16     14.890287   16.708143   20.761717 H          1 MOL1         0.0783
      35    C11     16.293406   18.121085   19.875287 C.3        1 MOL1         0.1043
      36    H17     17.223775   18.608622   20.191039 H          1 MOL1         0.0783
      37    O9      15.354909   19.130462   19.430537 O.3        1 MOL1        -0.3740
      38    C12     16.659606   17.217778   18.669768 C.3        1 MOL1         0.0138
      39    H18     17.693100   16.873241   18.799677 H          1 MOL1         0.0794
      40    H19     16.647040   17.828939   17.757482 H          1 MOL1         0.0794
      41    O10     15.785279   16.091039   18.519905 O.3        1 MOL1        -0.5486
      42    H20     15.878002   15.537734   19.327198 H          1 MOL1         0.3769
      43    C13     18.392883   24.121040   21.772545 C.3        1 MOL1         0.2972
      44    H21     18.740843   25.134065   22.011189 H          1 MOL1         0.0751
      45    O11     19.486874   23.234889   21.462464 O.3        1 MOL1        -0.3740
      46    C14     17.595692   23.531156   22.962892 C.3        1 MOL1         0.1003
      47    H22     16.706909   24.160330   23.101815 H          1 MOL1         0.0783
      48    O12     18.366581   23.549237   24.173535 O.3        1 MOL1        -0.5519
      49    H23     19.318630   23.471455   23.916355 H          1 MOL1         0.3769
      50    C15     17.108313   22.098994   22.640387 C.3        1 MOL1         0.1053
      51    H24     17.986037   21.440818   22.566798 H          1 MOL1         0.0783
      52    O13     16.252812   21.650726   23.697034 O.3        1 MOL1        -0.5519
      53    H25     16.794367   21.743401   24.512363 H          1 MOL1         0.3769
      54    C16     16.343637   22.058220   21.291136 C.3        1 MOL1         0.1018
      55    H26     15.336246   22.465841   21.447879 H          1 MOL1         0.0783
      56    C17     17.064618   22.846247   20.158525 C.3        1 MOL1         0.1043
      57    H27     17.942730   22.265534   19.847015 H          1 MOL1         0.0783
      58    O14     17.502665   24.143517   20.637256 O.3        1 MOL1        -0.3740
      59    C18     16.192130   23.058658   18.898229 C.3        1 MOL1         0.0138
      60    H28     16.079156   22.093137   18.386805 H          1 MOL1         0.0794
      61    H29     16.726392   23.729872   18.212540 H          1 MOL1         0.0794
      62    O15     14.901279   23.594747   19.215412 O.3        1 MOL1        -0.5486
      63    H30     14.439241   23.779942   18.368772 H          1 MOL1         0.3769
      64    C19     23.573626   22.868696   21.069740 C.3        1 MOL1         0.2972
      65    H31     24.652648   22.989162   20.910030 H          1 MOL1         0.0751
      66    O16     23.200454   21.473850   21.085261 O.3        1 MOL1        -0.3740
      67    C20     23.120275   23.570974   22.378290 C.3        1 MOL1         0.1003
      68    H32     23.307849   24.644178   22.242910 H          1 MOL1         0.0783
      69    O17     23.855961   23.122022   23.525971 O.3        1 MOL1        -0.5519
      70    H33     23.595846   22.177567   23.674688 H          1 MOL1         0.3769
      71    C21     21.599749   23.383749   22.594214 C.3        1 MOL1         0.1053
      72    H34     21.400162   22.316525   22.765768 H          1 MOL1         0.0783
      73    O18     21.193993   24.144489   23.735600 O.3        1 MOL1        -0.5519
      74    H35     21.879776   23.968364   24.418016 H          1 MOL1         0.3769
      75    C22     20.794590   23.828690   21.346790 C.3        1 MOL1         0.1018
      76    H36     20.748819   24.925202   21.321527 H          1 MOL1         0.0783
      77    C23     21.406513   23.315782   20.011886 C.3        1 MOL1         0.1043
      78    H37     21.185795   22.246103   19.919251 H          1 MOL1         0.0783
      79    O19     22.845657   23.502649   19.996966 O.3        1 MOL1        -0.3740
      80    C24     20.805464   24.012666   18.768360 C.3        1 MOL1         0.0138
      81    H38     19.748594   23.724800   18.687563 H          1 MOL1         0.0794
      82    H39     21.317943   23.635562   17.873338 H          1 MOL1         0.0794
      83    O20     20.915068   25.440274   18.841818 O.3        1 MOL1        -0.5486
      84    H40     20.534192   25.811026   18.016232 H          1 MOL1         0.3769
      85    C25     24.653593   17.648682   21.873992 C.3        1 MOL1         0.2972
      86    H41     25.269164   16.794385   22.181043 H          1 MOL1         0.0751
      87    O21     23.526386   17.230334   21.075151 O.3        1 MOL1        -0.3740
      88    C26     24.133879   18.422038   23.116828 C.3        1 MOL1         0.1003
      89    H42     25.012902   18.771320   23.673399 H          1 MOL1         0.0783
      90    O22     23.352615   17.567371   23.967403 O.3        1 MOL1        -0.5519
      91    H43     23.644283   16.641373   23.798438 H          1 MOL1         0.3769
      92    C27     23.319886   19.666184   22.679464 C.3        1 MOL1         0.1053
      93    H44     22.428634   19.315927   22.150363 H          1 MOL1         0.0783
      94    O23     22.922345   20.432702   23.821906 O.3        1 MOL1        -0.5519
      95    H45     21.996613   20.120735   24.022223 H          1 MOL1         0.3769
      96    C28     24.126762   20.547630   21.692733 C.3        1 MOL1         0.1018
      97    H46     24.923105   21.062386   22.245777 H          1 MOL1         0.0783
      98    C29     24.746966   19.707141   20.542968 C.3        1 MOL1         0.1043
      99    H47     23.930642   19.359004   19.896303 H          1 MOL1         0.0783
     100    O24     25.447761   18.559943   21.084970 O.3        1 MOL1        -0.3740
     101    C30     25.730740   20.507005   19.655502 C.3        1 MOL1         0.0138
     102    H48     25.153631   21.225861   19.058169 H          1 MOL1         0.0794
     103    H49     26.212891   19.812943   18.954162 H          1 MOL1         0.0794
     104    O25     26.718239   21.200759   20.429149 O.3        1 MOL1        -0.5486
     105    H50     27.348858   21.617518   19.802121 H          1 MOL1         0.3769
     106    C31     21.259883   13.786908   20.546170 C.3        1 MOL1         0.2972
     107    H51     20.845499   12.807693   20.274036 H          1 MOL1         0.0751
     108    O26     20.226920   14.702967   20.960112 O.3        1 MOL1        -0.3740
     109    C32     22.330196   13.661275   21.660717 C.3        1 MOL1         0.1003
     110    H52     23.159867   13.078570   21.239265 H          1 MOL1         0.0783
     111    O27     21.834121   12.973488   22.818558 O.3        1 MOL1        -0.5519
     112    H53     21.113067   13.533683   23.202134 H          1 MOL1         0.3769
     113    C33     22.881976   15.057109   22.043134 C.3        1 MOL1         0.1053
     114    H54     22.064558   15.639767   22.491181 H          1 MOL1         0.0783
     115    O28     23.934341   14.871812   22.997383 O.3        1 MOL1        -0.5519
     116    H55     23.627644   14.133414   23.572281 H          1 MOL1         0.3769
     117    C34     23.394366   15.821326   20.785672 C.3        1 MOL1         0.1018
     118    H56     24.356321   15.392898   20.477801 H          1 MOL1         0.0783
     119    C35     22.393133   15.739633   19.597228 C.3        1 MOL1         0.1043
     120    H57     21.534432   16.382603   19.833124 H          1 MOL1         0.0783
     121    O29     21.928433   14.377585   19.411465 O.3        1 MOL1        -0.3740
     122    C36     22.978244   16.251171   18.257612 C.3        1 MOL1         0.0138
     123    H58     23.092066   17.341802   18.319034 H          1 MOL1         0.0794
     124    H59     22.251120   16.046644   17.460675 H          1 MOL1         0.0794
     125    O30     24.239671   15.650347   17.938614 O.3        1 MOL1        -0.5486
     126    H60     24.913263   16.045544   18.532501 H          1 MOL1         0.3769
     127    C1      19.461605   18.933078   23.114407 C.2        1 MOL1         0.6021
     128    O1      20.190176   19.713132   23.700378 O.co2      1 MOL1        -0.6904
     129    O2      18.471518   18.424915   23.606261 O.co2      1 MOL1        -0.6904
     130    C2      19.828389   18.536452   21.683337 C.3        1 MOL1        -0.2102
     131    H1      19.067467   17.849547   21.303358 H          1 MOL1         0.0687
     132    H2      20.764960   17.970906   21.727608 H          1 MOL1         0.0687
     133    C3      19.959414   19.738006   20.718020 C.3        1 MOL1        -0.1974
     134    H3      18.989868   20.242785   20.630289 H          1 MOL1         0.0689
     135    H4      20.655495   20.468821   21.146680 H          1 MOL1         0.0689
     136    C4      20.453433   19.303512   19.324185 C.3        1 MOL1        -0.2987
     137    H5      19.776750   18.562438   18.880313 H          1 MOL1         0.0700
     138    H6      20.508131   20.165470   18.647463 H          1 MOL1         0.0700
     139    H7      21.455252   18.861911   19.391735 H          1 MOL1         0.0700
@<TRIPOS>BOND
    1     1     2    1
    2     1     3    1
    3     1     4    1
    4     4     5    1
    5     4     6    1
    6     6     7    1
    7     4     8    1
    8     8     9    1
    9     8    10    1
   10    10    11    1
   11     8    12    1
   12    12    13    1
   13    12    14    1
   14    14    15    1
   15     1    16    1
   16    14    16    1
   17    14    17    1
   18    17    18    1
   19    17    19    1
   20    17    20    1
   21    20    21    1
   22    22    23    1
   23    22    24    1
   24    22    25    1
   25    25    26    1
   26    25    27    1
   27    27    28    1
   28    25    29    1
   29    29    30    1
   30    29    31    1
   31    31    32    1
   32     3    33    1
   33    29    33    1
   34    33    34    1
   35    33    35    1
   36    35    36    1
   37    22    37    1
   38    35    37    1
   39    35    38    1
   40    38    39    1
   41    38    40    1
   42    38    41    1
   43    41    42    1
   44    43    44    1
   45    43    45    1
   46    43    46    1
   47    46    47    1
   48    46    48    1
   49    48    49    1
   50    46    50    1
   51    50    51    1
   52    50    52    1
   53    52    53    1
   54    24    54    1
   55    50    54    1
   56    54    55    1
   57    54    56    1
   58    56    57    1
   59    43    58    1
   60    56    58    1
   61    56    59    1
   62    59    60    1
   63    59    61    1
   64    59    62    1
   65    62    63    1
   66    64    65    1
   67    64    66    1
   68    64    67    1
   69    67    68    1
   70    67    69    1
   71    69    70    1
   72    67    71    1
   73    71    72    1
   74    71    73    1
   75    73    74    1
   76    45    75    1
   77    71    75    1
   78    75    76    1
   79    75    77    1
   80    77    78    1
   81    64    79    1
   82    77    79    1
   83    77    80    1
   84    80    81    1
   85    80    82    1
   86    80    83    1
   87    83    84    1
   88    85    86    1
   89    85    87    1
   90    85    88    1
   91    88    89    1
   92    88    90    1
   93    90    91    1
   94    88    92    1
   95    92    93    1
   96    92    94    1
   97    94    95    1
   98    66    96    1
   99    92    96    1
  100    96    97    1
  101    96    98    1
  102    98    99    1
  103    85   100    1
  104    98   100    1
  105    98   101    1
  106   101   102    1
  107   101   103    1
  108   101   104    1
  109   104   105    1
  110   106   107    1
  111    12   108    1
  112   106   108    1
  113   106   109    1
  114   109   110    1
  115   109   111    1
  116   111   112    1
  117   109   113    1
  118   113   114    1
  119   113   115    1
  120   115   116    1
  121    87   117    1
  122   113   117    1
  123   117   118    1
  124   117   119    1
  125   119   120    1
  126   106   121    1
  127   119   121    1
  128   119   122    1
  129   122   123    1
  130   122   124    1
  131   122   125    1
  132   125   126    1
  133   127   128    1
  134   127   129    2
  135   127   130    1
  136   130   131    1
  137   130   132    1
  138   130   133    1
  139   133   134    1
  140   133   135    1
  141   133   136    1
  142   136   137    1
  143   136   138    1
  144   136   139    1
@<TRIPOS>SUBSTRUCTURE
       1 MOL1            1 RESIDUE      1      MOL     
       2 MOL1          139 RESIDUE      1      MOL     
@<SCITEGIC>MOL_PROPERTY
feprocess Rank
SciTegic.value.IntegerValue
17

@<SCITEGIC>MOL_PROPERTY
Conf_Id
SciTegic.value.IntegerValue
825

@<SCITEGIC>MOL_PROPERTY
Probability
SciTegic.value.DoubleValue
0.18

@<SCITEGIC>MOL_PROPERTY
G
SciTegic.value.DoubleValue
485.706

@<SCITEGIC>MOL_PROPERTY
E
SciTegic.value.DoubleValue
308.375

@<SCITEGIC>MOL_PROPERTY
-TS
SciTegic.value.DoubleValue
177.331

@<SCITEGIC>MOL_PROPERTY
U+W
SciTegic.value.DoubleValue
185.864

@<SCITEGIC>MOL_PROPERTY
U
SciTegic.value.DoubleValue
265.323

@<SCITEGIC>MOL_PROPERTY
W
SciTegic.value.DoubleValue
-79.459

@<SCITEGIC>MOL_PROPERTY
W(PB)
SciTegic.value.DoubleValue
-85.415

@<SCITEGIC>MOL_PROPERTY
W(SA)
SciTegic.value.DoubleValue
5.956

@<SCITEGIC>MOL_PROPERTY
Valence
SciTegic.value.DoubleValue
148.573

@<SCITEGIC>MOL_PROPERTY
Coulomb
SciTegic.value.DoubleValue
138.420

@<SCITEGIC>MOL_PROPERTY
VdW
SciTegic.value.DoubleValue
-21.670

@<SCITEGIC>MOL_PROPERTY
VdW6
SciTegic.value.DoubleValue
-177.436

@<SCITEGIC>MOL_PROPERTY
VdW12
SciTegic.value.DoubleValue
155.766

@<SCITEGIC>MOL_PROPERTY
Bond
SciTegic.value.DoubleValue
5.114

@<SCITEGIC>MOL_PROPERTY
Angle
SciTegic.value.DoubleValue
15.017

@<SCITEGIC>MOL_PROPERTY
Pdih
SciTegic.value.DoubleValue
128.440

@<SCITEGIC>MOL_PROPERTY
Idih
SciTegic.value.DoubleValue
0.002

@<SCITEGIC>MOL_PROPERTY
Tether
SciTegic.value.DoubleValue
0.000

@<TRIPOS>MOLECULE
CD_guest-6_fast_vm2_rndm.mol2 : feprocess host+ligand conformer 18
         139         144           2
SMALL
USER_CHARGES
 
@<TRIPOS>ATOM
       1    C1      16.333335   15.293167   20.336766 C.3        1 MOL1         0.2972
       2    H1      15.371238   15.086929   19.850754 H          1 MOL1         0.0751
       3    O1      16.431947   16.662335   20.777863 O.3        1 MOL1        -0.3740
       4    C2      16.527077   14.386254   21.575692 C.3        1 MOL1         0.1003
       5    H2      16.521480   13.347599   21.220314 H          1 MOL1         0.0783
       6    O2      15.455972   14.562049   22.517044 O.3        1 MOL1        -0.5519
       7    H3      15.280975   15.534916   22.587199 H          1 MOL1         0.3769
       8    C3      17.898631   14.645687   22.250998 C.3        1 MOL1         0.1053
       9    H4      17.882054   15.648696   22.701694 H          1 MOL1         0.0783
      10    O3      18.086348   13.652901   23.265145 O.3        1 MOL1        -0.5519
      11    H5      17.260896   13.672864   23.797362 H          1 MOL1         0.3769
      12    C4      19.064061   14.597876   21.221616 C.3        1 MOL1         0.1018
      13    H6      19.283673   13.549696   20.983354 H          1 MOL1         0.0783
      14    C5      18.737696   15.369643   19.911667 C.3        1 MOL1         0.1043
      15    H7      18.749389   16.440696   20.140362 H          1 MOL1         0.0783
      16    O4      17.420765   15.012653   19.430426 O.3        1 MOL1        -0.3740
      17    C6      19.761369   15.143919   18.769482 C.3        1 MOL1         0.0138
      18    H8      20.620053   15.805412   18.936193 H          1 MOL1         0.0794
      19    H9      19.302086   15.456365   17.822326 H          1 MOL1         0.0794
      20    O5      20.210586   13.786116   18.675410 O.3        1 MOL1        -0.5486
      21    H10     20.730531   13.592860   19.485593 H          1 MOL1         0.3769
      22    C7      14.676984   20.395525   20.621318 C.3        1 MOL1         0.2972
      23    H11     14.051698   21.284541   20.468752 H          1 MOL1         0.0751
      24    O6      16.018220   20.755102   21.012909 O.3        1 MOL1        -0.3740
      25    C8      14.050143   19.433643   21.665734 C.3        1 MOL1         0.1003
      26    H12     13.108870   19.067065   21.235541 H          1 MOL1         0.0783
      27    O7      13.754594   20.091051   22.906217 O.3        1 MOL1        -0.5519
      28    H13     14.620350   20.363161   23.301480 H          1 MOL1         0.3769
      29    C9      14.973120   18.210062   21.886085 C.3        1 MOL1         0.1053
      30    H14     15.917212   18.557659   22.329356 H          1 MOL1         0.0783
      31    O8      14.332057   17.285859   22.771433 O.3        1 MOL1        -0.5519
      32    H15     13.970135   17.837179   23.500550 H          1 MOL1         0.3769
      33    C10     15.292956   17.511019   20.539895 C.3        1 MOL1         0.1018
      34    H16     14.408461   16.937332   20.233673 H          1 MOL1         0.0783
      35    C11     15.687676   18.511184   19.414430 C.3        1 MOL1         0.1043
      36    H17     16.703240   18.873848   19.618725 H          1 MOL1         0.0783
      37    O9      14.777819   19.643436   19.392492 O.3        1 MOL1        -0.3740
      38    C12     15.709864   17.868576   18.007143 C.3        1 MOL1         0.0138
      39    H18     16.558022   17.172455   17.956639 H          1 MOL1         0.0794
      40    H19     15.890599   18.657211   17.264598 H          1 MOL1         0.0794
      41    O10     14.491955   17.173050   17.710532 O.3        1 MOL1        -0.5486
      42    H20     14.561599   16.829665   16.793159 H          1 MOL1         0.3769
      43    C13     18.608863   23.455096   22.652797 C.3        1 MOL1         0.2972
      44    H21     19.133574   24.278361   23.152412 H          1 MOL1         0.0751
      45    O11     19.520813   22.621257   21.913236 O.3        1 MOL1        -0.3740
      46    C14     17.875116   22.588669   23.704844 C.3        1 MOL1         0.1003
      47    H22     17.166091   23.244737   24.225845 H          1 MOL1         0.0783
      48    O12     18.799193   22.038774   24.657570 O.3        1 MOL1        -0.5519
      49    H23     19.375356   21.390534   24.162667 H          1 MOL1         0.3769
      50    C15     17.074504   21.447363   23.041145 C.3        1 MOL1         0.1053
      51    H24     17.796096   20.728246   22.648665 H          1 MOL1         0.0783
      52    O13     16.269311   20.809876   24.036578 O.3        1 MOL1        -0.5519
      53    H25     16.892379   20.605321   24.770013 H          1 MOL1         0.3769
      54    C16     16.202845   21.918358   21.848172 C.3        1 MOL1         0.1018
      55    H26     15.253154   22.317103   22.228180 H          1 MOL1         0.0783
      56    C17     16.911151   22.971530   20.948760 C.3        1 MOL1         0.1043
      57    H27     17.637597   22.431505   20.332736 H          1 MOL1         0.0783
      58    O14     17.617700   23.965585   21.734717 O.3        1 MOL1        -0.3740
      59    C18     15.949160   23.697484   19.978681 C.3        1 MOL1         0.0138
      60    H28     15.609484   22.977249   19.222065 H          1 MOL1         0.0794
      61    H29     16.507102   24.483800   19.452710 H          1 MOL1         0.0794
      62    O15     14.818924   24.257651   20.658177 O.3        1 MOL1        -0.5486
      63    H30     14.293398   24.760939   19.998384 H          1 MOL1         0.3769
      64    C19     23.475023   22.622079   20.599375 C.3        1 MOL1         0.2972
      65    H31     24.442689   22.867071   20.144785 H          1 MOL1         0.0751
      66    O16     23.406540   21.239999   21.001545 O.3        1 MOL1        -0.3740
      67    C20     23.213200   23.506691   21.843548 C.3        1 MOL1         0.1003
      68    H32     23.201810   24.548663   21.498027 H          1 MOL1         0.0783
      69    O17     24.255847   23.357487   22.819846 O.3        1 MOL1        -0.5519
      70    H33     24.410655   22.386798   22.945109 H          1 MOL1         0.3769
      71    C21     21.825216   23.206891   22.466705 C.3        1 MOL1         0.1053
      72    H34     21.841781   22.194000   22.894960 H          1 MOL1         0.0783
      73    O18     21.584359   24.175203   23.493145 O.3        1 MOL1        -0.5519
      74    H35     22.396923   24.169767   24.045305 H          1 MOL1         0.3769
      75    C22     20.702711   23.261721   21.392176 C.3        1 MOL1         0.1018
      76    H36     20.509601   24.311672   21.138249 H          1 MOL1         0.0783
      77    C23     21.086512   22.483087   20.102833 C.3        1 MOL1         0.1043
      78    H37     21.092824   21.413329   20.343410 H          1 MOL1         0.0783
      79    O19     22.408516   22.876453   19.661368 O.3        1 MOL1        -0.3740
      80    C24     20.096022   22.676637   18.926230 C.3        1 MOL1         0.0138
      81    H38     19.272456   21.962475   19.048226 H          1 MOL1         0.0794
      82    H39     20.606680   22.411139   17.991029 H          1 MOL1         0.0794
      83    O20     19.573249   24.009091   18.841858 O.3        1 MOL1        -0.5486
      84    H40     19.061002   24.175781   19.663388 H          1 MOL1         0.3769
      85    C25     25.222967   17.574734   21.070699 C.3        1 MOL1         0.2972
      86    H41     25.849393   16.675307   21.013543 H          1 MOL1         0.0751
      87    O21     23.827506   17.236892   21.238056 O.3        1 MOL1        -0.3740
      88    C26     25.692890   18.520174   22.206158 C.3        1 MOL1         0.1003
      89    H42     26.686898   18.889930   21.922098 H          1 MOL1         0.0783
      90    O22     25.805330   17.847862   23.468212 O.3        1 MOL1        -0.5519
      91    H43     24.887023   17.595935   23.738378 H          1 MOL1         0.3769
      92    C27     24.746303   19.741018   22.300535 C.3        1 MOL1         0.1053
      93    H44     23.749343   19.388017   22.600386 H          1 MOL1         0.0783
      94    O23     25.251210   20.653194   23.280517 O.3        1 MOL1        -0.5519
      95    H45     25.496562   20.092812   24.050269 H          1 MOL1         0.3769
      96    C28     24.615986   20.459697   20.931321 C.3        1 MOL1         0.1018
      97    H46     25.504441   21.087946   20.789978 H          1 MOL1         0.0783
      98    C29     24.457021   19.480541   19.727748 C.3        1 MOL1         0.1043
      99    H47     23.425251   19.112523   19.721790 H          1 MOL1         0.0783
     100    O24     25.347447   18.341332   19.853835 O.3        1 MOL1        -0.3740
     101    C30     24.696459   20.144272   18.350095 C.3        1 MOL1         0.0138
     102    H48     23.901072   20.880285   18.169368 H          1 MOL1         0.0794
     103    H49     24.601801   19.371634   17.575635 H          1 MOL1         0.0794
     104    O25     25.981626   20.773264   18.255585 O.3        1 MOL1        -0.5486
     105    H50     25.954273   21.605926   18.770315 H          1 MOL1         0.3769
     106    C31     21.087147   14.460914   22.606105 C.3        1 MOL1         0.2972
     107    H51     20.557452   13.613820   23.058364 H          1 MOL1         0.0751
     108    O26     20.210088   15.259882   21.791196 O.3        1 MOL1        -0.3740
     109    C32     21.692574   15.355951   23.714985 C.3        1 MOL1         0.1003
     110    H52     22.403334   14.735443   24.275656 H          1 MOL1         0.0783
     111    O27     20.678907   15.830163   24.614705 O.3        1 MOL1        -0.5519
     112    H53     20.118873   16.480263   24.104202 H          1 MOL1         0.3769
     113    C33     22.472710   16.545449   23.110028 C.3        1 MOL1         0.1053
     114    H54     21.753528   17.210374   22.619372 H          1 MOL1         0.0783
     115    O28     23.123286   17.248828   24.171945 O.3        1 MOL1        -0.5519
     116    H55     22.401381   17.470972   24.802587 H          1 MOL1         0.3769
     117    C34     23.500757   16.082402   22.042781 C.3        1 MOL1         0.1018
     118    H56     24.381880   15.668964   22.550739 H          1 MOL1         0.0783
     119    C35     22.909405   15.027845   21.063231 C.3        1 MOL1         0.1043
     120    H57     22.221675   15.553154   20.390961 H          1 MOL1         0.0783
     121    O29     22.174101   13.997986   21.774657 O.3        1 MOL1        -0.3740
     122    C36     23.979023   14.347178   20.176398 C.3        1 MOL1         0.0138
     123    H58     24.359895   15.088577   19.460894 H          1 MOL1         0.0794
     124    H59     23.497444   13.549815   19.594656 H          1 MOL1         0.0794
     125    O30     25.063309   13.816332   20.948600 O.3        1 MOL1        -0.5486
     126    H60     25.662203   13.339638   20.333195 H          1 MOL1         0.3769
     127    C1      19.670597   18.950367   22.746586 C.2        1 MOL1         0.6021
     128    O1      20.130473   19.915969   23.326870 O.co2      1 MOL1        -0.6904
     129    O2      19.363575   17.911169   23.298253 O.co2      1 MOL1        -0.6904
     130    C2      19.412900   19.066488   21.245058 C.3        1 MOL1        -0.2102
     131    H1      19.182148   20.110858   21.013758 H          1 MOL1         0.0687
     132    H2      18.516470   18.483146   21.014995 H          1 MOL1         0.0687
     133    C3      20.606484   18.593712   20.384900 C.3        1 MOL1        -0.1974
     134    H3      21.495808   19.162749   20.679194 H          1 MOL1         0.0689
     135    H4      20.822332   17.543206   20.605684 H          1 MOL1         0.0689
     136    C4      20.343205   18.757766   18.874230 C.3        1 MOL1        -0.2987
     137    H5      21.193877   18.380887   18.292203 H          1 MOL1         0.0700
     138    H6      19.447030   18.203770   18.567957 H          1 MOL1         0.0700
     139    H7      20.195855   19.810832   18.611741 H          1 MOL1         0.0700
@<TRIPOS>BOND
    1     1     2    1
    2     1     3    1
    3     1     4    1
    4     4     5    1
    5     4     6    1
    6     6     7    1
    7     4     8    1
    8     8     9    1
    9     8    10    1
   10    10    11    1
   11     8    12    1
   12    12    13    1
   13    12    14    1
   14    14    15    1
   15     1    16    1
   16    14    16    1
   17    14    17    1
   18    17    18    1
   19    17    19    1
   20    17    20    1
   21    20    21    1
   22    22    23    1
   23    22    24    1
   24    22    25    1
   25    25    26    1
   26    25    27    1
   27    27    28    1
   28    25    29    1
   29    29    30    1
   30    29    31    1
   31    31    32    1
   32     3    33    1
   33    29    33    1
   34    33    34    1
   35    33    35    1
   36    35    36    1
   37    22    37    1
   38    35    37    1
   39    35    38    1
   40    38    39    1
   41    38    40    1
   42    38    41    1
   43    41    42    1
   44    43    44    1
   45    43    45    1
   46    43    46    1
   47    46    47    1
   48    46    48    1
   49    48    49    1
   50    46    50    1
   51    50    51    1
   52    50    52    1
   53    52    53    1
   54    24    54    1
   55    50    54    1
   56    54    55    1
   57    54    56    1
   58    56    57    1
   59    43    58    1
   60    56    58    1
   61    56    59    1
   62    59    60    1
   63    59    61    1
   64    59    62    1
   65    62    63    1
   66    64    65    1
   67    64    66    1
   68    64    67    1
   69    67    68    1
   70    67    69    1
   71    69    70    1
   72    67    71    1
   73    71    72    1
   74    71    73    1
   75    73    74    1
   76    45    75    1
   77    71    75    1
   78    75    76    1
   79    75    77    1
   80    77    78    1
   81    64    79    1
   82    77    79    1
   83    77    80    1
   84    80    81    1
   85    80    82    1
   86    80    83    1
   87    83    84    1
   88    85    86    1
   89    85    87    1
   90    85    88    1
   91    88    89    1
   92    88    90    1
   93    90    91    1
   94    88    92    1
   95    92    93    1
   96    92    94    1
   97    94    95    1
   98    66    96    1
   99    92    96    1
  100    96    97    1
  101    96    98    1
  102    98    99    1
  103    85   100    1
  104    98   100    1
  105    98   101    1
  106   101   102    1
  107   101   103    1
  108   101   104    1
  109   104   105    1
  110   106   107    1
  111    12   108    1
  112   106   108    1
  113   106   109    1
  114   109   110    1
  115   109   111    1
  116   111   112    1
  117   109   113    1
  118   113   114    1
  119   113   115    1
  120   115   116    1
  121    87   117    1
  122   113   117    1
  123   117   118    1
  124   117   119    1
  125   119   120    1
  126   106   121    1
  127   119   121    1
  128   119   122    1
  129   122   123    1
  130   122   124    1
  131   122   125    1
  132   125   126    1
  133   127   128    1
  134   127   129    2
  135   127   130    1
  136   130   131    1
  137   130   132    1
  138   130   133    1
  139   133   134    1
  140   133   135    1
  141   133   136    1
  142   136   137    1
  143   136   138    1
  144   136   139    1
@<TRIPOS>SUBSTRUCTURE
       1 MOL1            1 RESIDUE      1      MOL     
       2 MOL1          139 RESIDUE      1      MOL     
@<SCITEGIC>MOL_PROPERTY
feprocess Rank
SciTegic.value.IntegerValue
18

@<SCITEGIC>MOL_PROPERTY
Conf_Id
SciTegic.value.IntegerValue
102

@<SCITEGIC>MOL_PROPERTY
Probability
SciTegic.value.DoubleValue
0.13

@<SCITEGIC>MOL_PROPERTY
G
SciTegic.value.DoubleValue
485.914

@<SCITEGIC>MOL_PROPERTY
E
SciTegic.value.DoubleValue
308.534

@<SCITEGIC>MOL_PROPERTY
-TS
SciTegic.value.DoubleValue
177.380

@<SCITEGIC>MOL_PROPERTY
U+W
SciTegic.value.DoubleValue
186.023

@<SCITEGIC>MOL_PROPERTY
U
SciTegic.value.DoubleValue
259.116

@<SCITEGIC>MOL_PROPERTY
W
SciTegic.value.DoubleValue
-73.094

@<SCITEGIC>MOL_PROPERTY
W(PB)
SciTegic.value.DoubleValue
-79.057

@<SCITEGIC>MOL_PROPERTY
W(SA)
SciTegic.value.DoubleValue
5.963

@<SCITEGIC>MOL_PROPERTY
Valence
SciTegic.value.DoubleValue
149.152

@<SCITEGIC>MOL_PROPERTY
Coulomb
SciTegic.value.DoubleValue
133.286

@<SCITEGIC>MOL_PROPERTY
VdW
SciTegic.value.DoubleValue
-23.322

@<SCITEGIC>MOL_PROPERTY
VdW6
SciTegic.value.DoubleValue
-177.907

@<SCITEGIC>MOL_PROPERTY
VdW12
SciTegic.value.DoubleValue
154.586

@<SCITEGIC>MOL_PROPERTY
Bond
SciTegic.value.DoubleValue
5.080

@<SCITEGIC>MOL_PROPERTY
Angle
SciTegic.value.DoubleValue
15.574

@<SCITEGIC>MOL_PROPERTY
Pdih
SciTegic.value.DoubleValue
128.494

@<SCITEGIC>MOL_PROPERTY
Idih
SciTegic.value.DoubleValue
0.004

@<SCITEGIC>MOL_PROPERTY
Tether
SciTegic.value.DoubleValue
0.000

@<TRIPOS>MOLECULE
CD_guest-6_fast_vm2_rndm.mol2 : feprocess host+ligand conformer 19
         139         144           2
SMALL
USER_CHARGES
 
@<TRIPOS>ATOM
       1    C1      16.192185   15.216834   20.685855 C.3        1 MOL1         0.2972
       2    H1      15.170900   15.016718   20.339450 H          1 MOL1         0.0751
       3    O1      16.390624   16.608870   20.998272 O.3        1 MOL1        -0.3740
       4    C2      16.503594   14.386523   21.958222 C.3        1 MOL1         0.1003
       5    H2      16.405531   13.326975   21.688313 H          1 MOL1         0.0783
       6    O2      15.578343   14.684034   23.015117 O.3        1 MOL1        -0.5519
       7    H3      15.442311   15.665757   23.023937 H          1 MOL1         0.3769
       8    C3      17.961310   14.622145   22.422456 C.3        1 MOL1         0.1053
       9    H4      18.062206   15.669195   22.743061 H          1 MOL1         0.0783
      10    O3      18.264845   13.744693   23.512950 O.3        1 MOL1        -0.5519
      11    H5      17.493716   13.817105   24.118622 H          1 MOL1         0.3769
      12    C4      18.946863   14.368699   21.257095 C.3        1 MOL1         0.1018
      13    H6      18.961058   13.290730   21.050064 H          1 MOL1         0.0783
      14    C5      18.534636   15.138958   19.971757 C.3        1 MOL1         0.1043
      15    H7      18.645029   16.213457   20.165682 H          1 MOL1         0.0783
      16    O4      17.146992   14.848109   19.667257 O.3        1 MOL1        -0.3740
      17    C6      19.386341   14.806650   18.720157 C.3        1 MOL1         0.0138
      18    H8      20.315311   15.387495   18.762716 H          1 MOL1         0.0794
      19    H9      18.840132   15.142082   17.828576 H          1 MOL1         0.0794
      20    O5      19.704229   13.414834   18.609458 O.3        1 MOL1        -0.5486
      21    H10     20.549304   13.278629   19.092042 H          1 MOL1         0.3769
      22    C7      14.716053   20.388208   20.786803 C.3        1 MOL1         0.2972
      23    H11     14.080780   21.271971   20.645496 H          1 MOL1         0.0751
      24    O6      16.095578   20.762267   20.987791 O.3        1 MOL1        -0.3740
      25    C8      14.211574   19.516451   21.968988 C.3        1 MOL1         0.1003
      26    H12     13.212519   19.155121   21.692257 H          1 MOL1         0.0783
      27    O7      14.101930   20.259925   23.191589 O.3        1 MOL1        -0.5519
      28    H13     15.024940   20.495605   23.462963 H          1 MOL1         0.3769
      29    C9      15.123522   18.279450   22.154477 C.3        1 MOL1         0.1053
      30    H14     16.123734   18.621067   22.456622 H          1 MOL1         0.0783
      31    O8      14.569317   17.434350   23.167893 O.3        1 MOL1        -0.5519
      32    H15     14.331365   18.039960   23.904867 H          1 MOL1         0.3769
      33    C10     15.262329   17.488208   20.829902 C.3        1 MOL1         0.1018
      34    H16     14.328460   16.937037   20.660733 H          1 MOL1         0.0783
      35    C11     15.560293   18.408353   19.610710 C.3        1 MOL1         0.1043
      36    H17     16.592887   18.767467   19.696716 H          1 MOL1         0.0783
      37    O9      14.664347   19.550241   19.611366 O.3        1 MOL1        -0.3740
      38    C12     15.448934   17.694013   18.241754 C.3        1 MOL1         0.0138
      39    H18     16.285946   16.989585   18.142113 H          1 MOL1         0.0794
      40    H19     15.565967   18.446756   17.450949 H          1 MOL1         0.0794
      41    O10     14.204053   17.002722   18.077529 O.3        1 MOL1        -0.5486
      42    H20     14.296847   16.117090   18.486273 H          1 MOL1         0.3769
      43    C13     18.690242   23.696342   22.273848 C.3        1 MOL1         0.2972
      44    H21     19.195975   24.576897   22.686188 H          1 MOL1         0.0751
      45    O11     19.587568   22.857601   21.518238 O.3        1 MOL1        -0.3740
      46    C14     18.085165   22.842878   23.415535 C.3        1 MOL1         0.1003
      47    H22     17.307370   23.446270   23.900395 H          1 MOL1         0.0783
      48    O12     19.085467   22.507912   24.390470 O.3        1 MOL1        -0.5519
      49    H23     19.650116   21.783076   24.003940 H          1 MOL1         0.3769
      50    C15     17.413534   21.581589   22.819122 C.3        1 MOL1         0.1053
      51    H24     18.184757   20.998172   22.309259 H          1 MOL1         0.0783
      52    O13     16.834240   20.777127   23.851426 O.3        1 MOL1        -0.5519
      53    H25     17.558678   20.138961   24.095839 H          1 MOL1         0.3769
      54    C16     16.361340   21.961302   21.746707 C.3        1 MOL1         0.1018
      55    H26     15.463478   22.348045   22.245903 H          1 MOL1         0.0783
      56    C17     16.904950   23.010546   20.732499 C.3        1 MOL1         0.1043
      57    H27     17.613443   22.496107   20.072311 H          1 MOL1         0.0783
      58    O14     17.600609   24.090048   21.410197 O.3        1 MOL1        -0.3740
      59    C18     15.805656   23.621768   19.831475 C.3        1 MOL1         0.0138
      60    H28     15.459025   22.848387   19.132704 H          1 MOL1         0.0794
      61    H29     16.251024   24.427034   19.232053 H          1 MOL1         0.0794
      62    O15     14.698268   24.120359   20.592281 O.3        1 MOL1        -0.5486
      63    H30     14.080651   24.559276   19.967273 H          1 MOL1         0.3769
      64    C19     23.549856   22.592634   20.427302 C.3        1 MOL1         0.2972
      65    H31     24.556514   22.679243   19.998473 H          1 MOL1         0.0751
      66    O16     23.344159   21.312865   21.054855 O.3        1 MOL1        -0.3740
      67    C20     23.282117   23.704525   21.471197 C.3        1 MOL1         0.1003
      68    H32     23.341317   24.663062   20.939353 H          1 MOL1         0.0783
      69    O17     24.266901   23.694088   22.516255 O.3        1 MOL1        -0.5519
      70    H33     24.248443   22.791342   22.925111 H          1 MOL1         0.3769
      71    C21     21.854128   23.581336   22.063742 C.3        1 MOL1         0.1053
      72    H34     21.814549   22.674716   22.685232 H          1 MOL1         0.0783
      73    O18     21.612048   24.740588   22.868183 O.3        1 MOL1        -0.5519
      74    H35     22.395375   24.812663   23.456666 H          1 MOL1         0.3769
      75    C22     20.770359   23.451555   20.951759 C.3        1 MOL1         0.1018
      76    H36     20.559706   24.443963   20.534642 H          1 MOL1         0.0783
      77    C23     21.193458   22.480153   19.812258 C.3        1 MOL1         0.1043
      78    H37     21.137985   21.457973   20.207590 H          1 MOL1         0.0783
      79    O19     22.554117   22.746425   19.395145 O.3        1 MOL1        -0.3740
      80    C24     20.272213   22.518491   18.567708 C.3        1 MOL1         0.0138
      81    H38     19.352926   21.965281   18.798372 H          1 MOL1         0.0794
      82    H39     20.769888   21.979640   17.750599 H          1 MOL1         0.0794
      83    O20     19.947619   23.851345   18.152952 O.3        1 MOL1        -0.5486
      84    H40     19.372249   24.243538   18.843925 H          1 MOL1         0.3769
      85    C25     25.058457   17.752521   22.136078 C.3        1 MOL1         0.2972
      86    H41     25.704744   16.907215   22.405281 H          1 MOL1         0.0751
      87    O21     23.681697   17.352039   22.005076 O.3        1 MOL1        -0.3740
      88    C26     25.141076   18.842326   23.229499 C.3        1 MOL1         0.1003
      89    H42     26.180643   19.192891   23.268317 H          1 MOL1         0.0783
      90    O22     24.777157   18.298044   24.508317 O.3        1 MOL1        -0.5519
      91    H43     24.170261   17.536786   24.333947 H          1 MOL1         0.3769
      92    C27     24.244237   20.050535   22.873307 C.3        1 MOL1         0.1053
      93    H44     23.195297   19.731611   22.943459 H          1 MOL1         0.0783
      94    O23     24.489588   21.103239   23.811560 O.3        1 MOL1        -0.5519
      95    H45     24.379395   20.683550   24.693587 H          1 MOL1         0.3769
      96    C28     24.507422   20.555840   21.430165 C.3        1 MOL1         0.1018
      97    H46     25.418442   21.168828   21.430887 H          1 MOL1         0.0783
      98    C29     24.629465   19.406772   20.387912 C.3        1 MOL1         0.1043
      99    H47     23.620010   19.012823   20.213162 H          1 MOL1         0.0783
     100    O24     25.474222   18.337014   20.885508 O.3        1 MOL1        -0.3740
     101    C30     25.178147   19.869658   19.017362 C.3        1 MOL1         0.0138
     102    H48     24.412768   20.485843   18.526175 H          1 MOL1         0.0794
     103    H49     25.338468   18.984856   18.386702 H          1 MOL1         0.0794
     104    O25     26.394092   20.616691   19.147052 O.3        1 MOL1        -0.5486
     105    H50     26.722589   20.811034   18.242183 H          1 MOL1         0.3769
     106    C31     21.332067   13.933792   21.586734 C.3        1 MOL1         0.2972
     107    H51     20.989825   12.901771   21.438872 H          1 MOL1         0.0751
     108    O26     20.228404   14.852353   21.696181 O.3        1 MOL1        -0.3740
     109    C32     22.143889   14.033202   22.902351 C.3        1 MOL1         0.1003
     110    H52     22.998192   13.349025   22.817852 H          1 MOL1         0.0783
     111    O27     21.332696   13.644236   24.022685 O.3        1 MOL1        -0.5519
     112    H53     20.405038   13.922872   23.817683 H          1 MOL1         0.3769
     113    C33     22.694782   15.465141   23.103351 C.3        1 MOL1         0.1053
     114    H54     21.845834   16.141219   23.275662 H          1 MOL1         0.0783
     115    O28     23.569152   15.487724   24.236401 O.3        1 MOL1        -0.5519
     116    H55     23.089958   14.991797   24.937396 H          1 MOL1         0.3769
     117    C34     23.450297   15.943173   21.840210 C.3        1 MOL1         0.1018
     118    H56     24.386644   15.376049   21.755209 H          1 MOL1         0.0783
     119    C35     22.612827   15.737254   20.548145 C.3        1 MOL1         0.1043
     120    H57     21.737095   16.393331   20.599025 H          1 MOL1         0.0783
     121    O29     22.170661   14.357312   20.488208 O.3        1 MOL1        -0.3740
     122    C36     23.351700   16.087461   19.230398 C.3        1 MOL1         0.0138
     123    H58     23.180705   17.148588   19.009073 H          1 MOL1         0.0794
     124    H59     22.896075   15.515889   18.410947 H          1 MOL1         0.0794
     125    O30     24.760060   15.831660   19.283947 O.3        1 MOL1        -0.5486
     126    H60     25.166031   16.564877   19.802548 H          1 MOL1         0.3769
     127    C1      20.020861   19.368940   23.100112 C.2        1 MOL1         0.6021
     128    O1      19.026674   18.942424   23.657517 O.co2      1 MOL1        -0.6904
     129    O2      20.613593   20.365240   23.464539 O.co2      1 MOL1        -0.6904
     130    C2      20.443614   18.735866   21.777555 C.3        1 MOL1        -0.2102
     131    H1      20.479954   17.652758   21.927508 H          1 MOL1         0.0687
     132    H2      21.461214   19.073223   21.552812 H          1 MOL1         0.0687
     133    C3      19.500069   19.080022   20.599606 C.3        1 MOL1        -0.1974
     134    H3      18.537933   18.577783   20.759303 H          1 MOL1         0.0689
     135    H4      19.294853   20.156946   20.594697 H          1 MOL1         0.0689
     136    C4      20.098156   18.678950   19.236227 C.3        1 MOL1        -0.2987
     137    H5      20.315647   17.607569   19.201565 H          1 MOL1         0.0700
     138    H6      19.397502   18.911745   18.424248 H          1 MOL1         0.0700
     139    H7      21.032799   19.222025   19.045415 H          1 MOL1         0.0700
@<TRIPOS>BOND
    1     1     2    1
    2     1     3    1
    3     1     4    1
    4     4     5    1
    5     4     6    1
    6     6     7    1
    7     4     8    1
    8     8     9    1
    9     8    10    1
   10    10    11    1
   11     8    12    1
   12    12    13    1
   13    12    14    1
   14    14    15    1
   15     1    16    1
   16    14    16    1
   17    14    17    1
   18    17    18    1
   19    17    19    1
   20    17    20    1
   21    20    21    1
   22    22    23    1
   23    22    24    1
   24    22    25    1
   25    25    26    1
   26    25    27    1
   27    27    28    1
   28    25    29    1
   29    29    30    1
   30    29    31    1
   31    31    32    1
   32     3    33    1
   33    29    33    1
   34    33    34    1
   35    33    35    1
   36    35    36    1
   37    22    37    1
   38    35    37    1
   39    35    38    1
   40    38    39    1
   41    38    40    1
   42    38    41    1
   43    41    42    1
   44    43    44    1
   45    43    45    1
   46    43    46    1
   47    46    47    1
   48    46    48    1
   49    48    49    1
   50    46    50    1
   51    50    51    1
   52    50    52    1
   53    52    53    1
   54    24    54    1
   55    50    54    1
   56    54    55    1
   57    54    56    1
   58    56    57    1
   59    43    58    1
   60    56    58    1
   61    56    59    1
   62    59    60    1
   63    59    61    1
   64    59    62    1
   65    62    63    1
   66    64    65    1
   67    64    66    1
   68    64    67    1
   69    67    68    1
   70    67    69    1
   71    69    70    1
   72    67    71    1
   73    71    72    1
   74    71    73    1
   75    73    74    1
   76    45    75    1
   77    71    75    1
   78    75    76    1
   79    75    77    1
   80    77    78    1
   81    64    79    1
   82    77    79    1
   83    77    80    1
   84    80    81    1
   85    80    82    1
   86    80    83    1
   87    83    84    1
   88    85    86    1
   89    85    87    1
   90    85    88    1
   91    88    89    1
   92    88    90    1
   93    90    91    1
   94    88    92    1
   95    92    93    1
   96    92    94    1
   97    94    95    1
   98    66    96    1
   99    92    96    1
  100    96    97    1
  101    96    98    1
  102    98    99    1
  103    85   100    1
  104    98   100    1
  105    98   101    1
  106   101   102    1
  107   101   103    1
  108   101   104    1
  109   104   105    1
  110   106   107    1
  111    12   108    1
  112   106   108    1
  113   106   109    1
  114   109   110    1
  115   109   111    1
  116   111   112    1
  117   109   113    1
  118   113   114    1
  119   113   115    1
  120   115   116    1
  121    87   117    1
  122   113   117    1
  123   117   118    1
  124   117   119    1
  125   119   120    1
  126   106   121    1
  127   119   121    1
  128   119   122    1
  129   122   123    1
  130   122   124    1
  131   122   125    1
  132   125   126    1
  133   127   128    1
  134   127   129    2
  135   127   130    1
  136   130   131    1
  137   130   132    1
  138   130   133    1
  139   133   134    1
  140   133   135    1
  141   133   136    1
  142   136   137    1
  143   136   138    1
  144   136   139    1
@<TRIPOS>SUBSTRUCTURE
       1 MOL1            1 RESIDUE      1      MOL     
       2 MOL1          139 RESIDUE      1      MOL     
@<SCITEGIC>MOL_PROPERTY
feprocess Rank
SciTegic.value.IntegerValue
19

@<SCITEGIC>MOL_PROPERTY
Conf_Id
SciTegic.value.IntegerValue
893

@<SCITEGIC>MOL_PROPERTY
Probability
SciTegic.value.DoubleValue
0.11

@<SCITEGIC>MOL_PROPERTY
G
SciTegic.value.DoubleValue
486.017

@<SCITEGIC>MOL_PROPERTY
E
SciTegic.value.DoubleValue
310.921

@<SCITEGIC>MOL_PROPERTY
-TS
SciTegic.value.DoubleValue
175.096

@<SCITEGIC>MOL_PROPERTY
U+W
SciTegic.value.DoubleValue
188.410

@<SCITEGIC>MOL_PROPERTY
U
SciTegic.value.DoubleValue
263.556

@<SCITEGIC>MOL_PROPERTY
W
SciTegic.value.DoubleValue
-75.146

@<SCITEGIC>MOL_PROPERTY
W(PB)
SciTegic.value.DoubleValue
-81.096

@<SCITEGIC>MOL_PROPERTY
W(SA)
SciTegic.value.DoubleValue
5.950

@<SCITEGIC>MOL_PROPERTY
Valence
SciTegic.value.DoubleValue
152.887

@<SCITEGIC>MOL_PROPERTY
Coulomb
SciTegic.value.DoubleValue
134.152

@<SCITEGIC>MOL_PROPERTY
VdW
SciTegic.value.DoubleValue
-23.483

@<SCITEGIC>MOL_PROPERTY
VdW6
SciTegic.value.DoubleValue
-176.092

@<SCITEGIC>MOL_PROPERTY
VdW12
SciTegic.value.DoubleValue
152.609

@<SCITEGIC>MOL_PROPERTY
Bond
SciTegic.value.DoubleValue
4.902

@<SCITEGIC>MOL_PROPERTY
Angle
SciTegic.value.DoubleValue
14.754

@<SCITEGIC>MOL_PROPERTY
Pdih
SciTegic.value.DoubleValue
133.186

@<SCITEGIC>MOL_PROPERTY
Idih
SciTegic.value.DoubleValue
0.044

@<SCITEGIC>MOL_PROPERTY
Tether
SciTegic.value.DoubleValue
0.000

@<TRIPOS>MOLECULE
CD_guest-6_fast_vm2_rndm.mol2 : feprocess host+ligand conformer 20
         139         144           2
SMALL
USER_CHARGES
 
@<TRIPOS>ATOM
       1    C1      16.400865   15.332521   20.302975 C.3        1 MOL1         0.2972
       2    H1      15.470301   15.084616   19.777946 H          1 MOL1         0.0751
       3    O1      16.431521   16.711957   20.716547 O.3        1 MOL1        -0.3740
       4    C2      16.570192   14.445616   21.561451 C.3        1 MOL1         0.1003
       5    H2      16.599157   13.403613   21.217096 H          1 MOL1         0.0783
       6    O2      15.461704   14.603267   22.461339 O.3        1 MOL1        -0.5519
       7    H3      15.282613   15.574057   22.546720 H          1 MOL1         0.3769
       8    C3      17.911748   14.735962   22.283030 C.3        1 MOL1         0.1053
       9    H4      17.868696   15.746215   22.715580 H          1 MOL1         0.0783
      10    O3      18.076303   13.760199   23.317486 O.3        1 MOL1        -0.5519
      11    H5      17.229358   13.770226   23.815128 H          1 MOL1         0.3769
      12    C4      19.106935   14.683231   21.290547 C.3        1 MOL1         0.1018
      13    H6      19.307180   13.634525   21.036722 H          1 MOL1         0.0783
      14    C5      18.819587   15.480032   19.987341 C.3        1 MOL1         0.1043
      15    H7      18.794420   16.546823   20.240499 H          1 MOL1         0.0783
      16    O4      17.534956   15.089113   19.445141 O.3        1 MOL1        -0.3740
      17    C6      19.891983   15.300427   18.882637 C.3        1 MOL1         0.0138
      18    H8      20.701115   16.017208   19.067913 H          1 MOL1         0.0794
      19    H9      19.447872   15.571376   17.915567 H          1 MOL1         0.0794
      20    O5      20.425483   13.970682   18.825356 O.3        1 MOL1        -0.5486
      21    H10     20.872213   13.796588   19.683039 H          1 MOL1         0.3769
      22    C7      14.637094   20.385961   20.574698 C.3        1 MOL1         0.2972
      23    H11     14.025565   21.288272   20.446250 H          1 MOL1         0.0751
      24    O6      16.004980   20.717162   20.903864 O.3        1 MOL1        -0.3740
      25    C8      14.033549   19.440920   21.645930 C.3        1 MOL1         0.1003
      26    H12     13.077597   19.076428   21.247499 H          1 MOL1         0.0783
      27    O7      13.778922   20.111555   22.888046 O.3        1 MOL1        -0.5519
      28    H13     14.661115   20.356126   23.264421 H          1 MOL1         0.3769
      29    C9      14.957336   18.215711   21.847318 C.3        1 MOL1         0.1053
      30    H14     15.913580   18.564142   22.262544 H          1 MOL1         0.0783
      31    O8      14.339475   17.301293   22.758311 O.3        1 MOL1        -0.5519
      32    H15     14.006171   17.859322   23.495982 H          1 MOL1         0.3769
      33    C10     15.244691   17.499965   20.501366 C.3        1 MOL1         0.1018
      34    H16     14.375085   16.878051   20.254291 H          1 MOL1         0.0783
      35    C11     15.550107   18.480206   19.327569 C.3        1 MOL1         0.1043
      36    H17     16.576341   18.844476   19.445772 H          1 MOL1         0.0783
      37    O9      14.653899   19.621761   19.350018 O.3        1 MOL1        -0.3740
      38    C12     15.474790   17.820684   17.929278 C.3        1 MOL1         0.0138
      39    H18     16.287975   17.087410   17.839929 H          1 MOL1         0.0794
      40    H19     15.656746   18.596388   17.173705 H          1 MOL1         0.0794
      41    O10     14.211421   17.188593   17.683568 O.3        1 MOL1        -0.5486
      42    H20     14.190190   16.344179   18.179201 H          1 MOL1         0.3769
      43    C13     18.584288   23.468898   22.592022 C.3        1 MOL1         0.2972
      44    H21     19.063840   24.309423   23.108431 H          1 MOL1         0.0751
      45    O11     19.543845   22.675416   21.870601 O.3        1 MOL1        -0.3740
      46    C14     17.855248   22.567722   23.618589 C.3        1 MOL1         0.1003
      47    H22     17.090506   23.188192   24.103116 H          1 MOL1         0.0783
      48    O12     18.759807   22.077968   24.620360 O.3        1 MOL1        -0.5519
      49    H23     19.370046   21.430089   24.167858 H          1 MOL1         0.3769
      50    C15     17.139986   21.388348   22.921685 C.3        1 MOL1         0.1053
      51    H24     17.905600   20.719692   22.512575 H          1 MOL1         0.0783
      52    O13     16.368004   20.685915   23.899675 O.3        1 MOL1        -0.5519
      53    H25     17.008339   20.472890   24.615746 H          1 MOL1         0.3769
      54    C16     16.242218   21.864860   21.748128 C.3        1 MOL1         0.1018
      55    H26     15.310655   22.279109   22.155434 H          1 MOL1         0.0783
      56    C17     16.945194   22.923006   20.849557 C.3        1 MOL1         0.1043
      57    H27     17.701895   22.398377   20.255178 H          1 MOL1         0.0783
      58    O14     17.600002   23.944091   21.647362 O.3        1 MOL1        -0.3740
      59    C18     15.985940   23.615504   19.852510 C.3        1 MOL1         0.0138
      60    H28     15.684607   22.880931   19.093384 H          1 MOL1         0.0794
      61    H29     16.534035   24.413820   19.334380 H          1 MOL1         0.0794
      62    O15     14.824107   24.147524   20.501196 O.3        1 MOL1        -0.5486
      63    H30     14.300926   24.631757   19.825606 H          1 MOL1         0.3769
      64    C19     23.559440   22.678719   20.833176 C.3        1 MOL1         0.2972
      65    H31     24.567385   22.915896   20.471129 H          1 MOL1         0.0751
      66    O16     23.424415   21.286356   21.178013 O.3        1 MOL1        -0.3740
      67    C20     23.233382   23.510902   22.096347 C.3        1 MOL1         0.1003
      68    H32     23.281056   24.569078   21.808012 H          1 MOL1         0.0783
      69    O17     24.197167   23.266588   23.133578 O.3        1 MOL1        -0.5519
      70    H33     24.401221   22.297203   23.124266 H          1 MOL1         0.3769
      71    C21     21.797048   23.226332   22.604188 C.3        1 MOL1         0.1053
      72    H34     21.761867   22.200559   22.998935 H          1 MOL1         0.0783
      73    O18     21.501348   24.165704   23.643126 O.3        1 MOL1        -0.5519
      74    H35     22.257227   24.102432   24.267148 H          1 MOL1         0.3769
      75    C22     20.753299   23.339899   21.457680 C.3        1 MOL1         0.1018
      76    H36     20.575765   24.401532   21.244542 H          1 MOL1         0.0783
      77    C23     21.214513   22.623045   20.157458 C.3        1 MOL1         0.1043
      78    H37     21.183872   21.543213   20.339651 H          1 MOL1         0.0783
      79    O19     22.573259   23.003996   19.831142 O.3        1 MOL1        -0.3740
      80    C24     20.309491   22.893309   18.927972 C.3        1 MOL1         0.0138
      81    H38     19.458967   22.201620   18.965468 H          1 MOL1         0.0794
      82    H39     20.873550   22.650684   18.017681 H          1 MOL1         0.0794
      83    O20     19.829321   24.242409   18.866810 O.3        1 MOL1        -0.5486
      84    H40     19.229681   24.374050   19.633743 H          1 MOL1         0.3769
      85    C25     25.137895   17.535323   20.923334 C.3        1 MOL1         0.2972
      86    H41     25.760958   16.648138   20.752277 H          1 MOL1         0.0751
      87    O21     23.785512   17.172176   21.267482 O.3        1 MOL1        -0.3740
      88    C26     25.742356   18.450821   22.021942 C.3        1 MOL1         0.1003
      89    H42     26.705421   18.813876   21.639819 H          1 MOL1         0.0783
      90    O22     25.976144   17.747085   23.250463 O.3        1 MOL1        -0.5519
      91    H43     25.090644   17.477252   23.601668 H          1 MOL1         0.3769
      92    C27     24.833198   19.682391   22.254302 C.3        1 MOL1         0.1053
      93    H44     23.874794   19.334636   22.665606 H          1 MOL1         0.0783
      94    O23     25.464533   20.572019   23.180913 O.3        1 MOL1        -0.5519
      95    H45     25.802798   19.995421   23.901839 H          1 MOL1         0.3769
      96    C28     24.550741   20.426921   20.924375 C.3        1 MOL1         0.1018
      97    H46     25.450338   20.991683   20.648330 H          1 MOL1         0.0783
      98    C29     24.155763   19.463593   19.767663 C.3        1 MOL1         0.1043
      99    H47     23.140893   19.094400   19.961003 H          1 MOL1         0.0783
     100    O24     25.067910   18.334451   19.721588 O.3        1 MOL1        -0.3740
     101    C30     24.124273   20.133909   18.372538 C.3        1 MOL1         0.0138
     102    H48     23.257936   20.807484   18.324595 H          1 MOL1         0.0794
     103    H49     23.965612   19.351646   17.618477 H          1 MOL1         0.0794
     104    O25     25.324650   20.859713   18.079194 O.3        1 MOL1        -0.5486
     105    H50     25.228505   21.759420   18.455934 H          1 MOL1         0.3769
     106    C31     21.112833   14.441772   22.676631 C.3        1 MOL1         0.2972
     107    H51     20.551068   13.610781   23.120269 H          1 MOL1         0.0751
     108    O26     20.254690   15.303499   21.904675 O.3        1 MOL1        -0.3740
     109    C32     21.790508   15.269670   23.795669 C.3        1 MOL1         0.1003
     110    H52     22.463518   14.591842   24.336226 H          1 MOL1         0.0783
     111    O27     20.816911   15.798501   24.709853 O.3        1 MOL1        -0.5519
     112    H53     20.267187   16.457291   24.198916 H          1 MOL1         0.3769
     113    C33     22.636350   16.423433   23.215203 C.3        1 MOL1         0.1053
     114    H54     21.941751   17.164544   22.812736 H          1 MOL1         0.0783
     115    O28     23.397900   17.018712   24.270013 O.3        1 MOL1        -0.5519
     116    H55     22.743623   17.196196   24.982887 H          1 MOL1         0.3769
     117    C34     23.566968   15.983512   22.055436 C.3        1 MOL1         0.1018
     118    H56     24.498459   15.578219   22.471705 H          1 MOL1         0.0783
     119    C35     22.911734   14.954528   21.090335 C.3        1 MOL1         0.1043
     120    H57     22.227267   15.513522   20.444579 H          1 MOL1         0.0783
     121    O29     22.153327   13.946177   21.806541 O.3        1 MOL1        -0.3740
     122    C36     23.927492   14.246497   20.162739 C.3        1 MOL1         0.0138
     123    H58     24.313652   14.981904   19.444021 H          1 MOL1         0.0794
     124    H59     23.399415   13.474716   19.586758 H          1 MOL1         0.0794
     125    O30     25.013450   13.665970   20.895122 O.3        1 MOL1        -0.5486
     126    H60     25.575105   13.174368   20.256620 H          1 MOL1         0.3769
     127    C1      20.004837   18.951129   22.838742 C.2        1 MOL1         0.6021
     128    O1      19.553489   17.946179   23.355248 O.co2      1 MOL1        -0.6904
     129    O2      20.193647   19.993901   23.435231 O.co2      1 MOL1        -0.6904
     130    C2      20.411590   18.885718   21.367329 C.3        1 MOL1        -0.2102
     131    H1      20.678531   17.851840   21.127055 H          1 MOL1         0.0687
     132    H2      21.316833   19.487824   21.248793 H          1 MOL1         0.0687
     133    C3      19.305935   19.373039   20.404090 C.3        1 MOL1        -0.1974
     134    H3      18.394811   18.795317   20.597584 H          1 MOL1         0.0689
     135    H4      19.064930   20.418261   20.623229 H          1 MOL1         0.0689
     136    C4      19.717543   19.241608   18.923603 C.3        1 MOL1        -0.2987
     137    H5      18.924792   19.624750   18.268464 H          1 MOL1         0.0700
     138    H6      20.634435   19.807600   18.717508 H          1 MOL1         0.0700
     139    H7      19.898892   18.195025   18.656368 H          1 MOL1         0.0700
@<TRIPOS>BOND
    1     1     2    1
    2     1     3    1
    3     1     4    1
    4     4     5    1
    5     4     6    1
    6     6     7    1
    7     4     8    1
    8     8     9    1
    9     8    10    1
   10    10    11    1
   11     8    12    1
   12    12    13    1
   13    12    14    1
   14    14    15    1
   15     1    16    1
   16    14    16    1
   17    14    17    1
   18    17    18    1
   19    17    19    1
   20    17    20    1
   21    20    21    1
   22    22    23    1
   23    22    24    1
   24    22    25    1
   25    25    26    1
   26    25    27    1
   27    27    28    1
   28    25    29    1
   29    29    30    1
   30    29    31    1
   31    31    32    1
   32     3    33    1
   33    29    33    1
   34    33    34    1
   35    33    35    1
   36    35    36    1
   37    22    37    1
   38    35    37    1
   39    35    38    1
   40    38    39    1
   41    38    40    1
   42    38    41    1
   43    41    42    1
   44    43    44    1
   45    43    45    1
   46    43    46    1
   47    46    47    1
   48    46    48    1
   49    48    49    1
   50    46    50    1
   51    50    51    1
   52    50    52    1
   53    52    53    1
   54    24    54    1
   55    50    54    1
   56    54    55    1
   57    54    56    1
   58    56    57    1
   59    43    58    1
   60    56    58    1
   61    56    59    1
   62    59    60    1
   63    59    61    1
   64    59    62    1
   65    62    63    1
   66    64    65    1
   67    64    66    1
   68    64    67    1
   69    67    68    1
   70    67    69    1
   71    69    70    1
   72    67    71    1
   73    71    72    1
   74    71    73    1
   75    73    74    1
   76    45    75    1
   77    71    75    1
   78    75    76    1
   79    75    77    1
   80    77    78    1
   81    64    79    1
   82    77    79    1
   83    77    80    1
   84    80    81    1
   85    80    82    1
   86    80    83    1
   87    83    84    1
   88    85    86    1
   89    85    87    1
   90    85    88    1
   91    88    89    1
   92    88    90    1
   93    90    91    1
   94    88    92    1
   95    92    93    1
   96    92    94    1
   97    94    95    1
   98    66    96    1
   99    92    96    1
  100    96    97    1
  101    96    98    1
  102    98    99    1
  103    85   100    1
  104    98   100    1
  105    98   101    1
  106   101   102    1
  107   101   103    1
  108   101   104    1
  109   104   105    1
  110   106   107    1
  111    12   108    1
  112   106   108    1
  113   106   109    1
  114   109   110    1
  115   109   111    1
  116   111   112    1
  117   109   113    1
  118   113   114    1
  119   113   115    1
  120   115   116    1
  121    87   117    1
  122   113   117    1
  123   117   118    1
  124   117   119    1
  125   119   120    1
  126   106   121    1
  127   119   121    1
  128   119   122    1
  129   122   123    1
  130   122   124    1
  131   122   125    1
  132   125   126    1
  133   127   128    1
  134   127   129    2
  135   127   130    1
  136   130   131    1
  137   130   132    1
  138   130   133    1
  139   133   134    1
  140   133   135    1
  141   133   136    1
  142   136   137    1
  143   136   138    1
  144   136   139    1
@<TRIPOS>SUBSTRUCTURE
       1 MOL1            1 RESIDUE      1      MOL     
       2 MOL1          139 RESIDUE      1      MOL     
@<SCITEGIC>MOL_PROPERTY
feprocess Rank
SciTegic.value.IntegerValue
20

@<SCITEGIC>MOL_PROPERTY
Conf_Id
SciTegic.value.IntegerValue
698

@<SCITEGIC>MOL_PROPERTY
Probability
SciTegic.value.DoubleValue
0.07

@<SCITEGIC>MOL_PROPERTY
G
SciTegic.value.DoubleValue
486.312

@<SCITEGIC>MOL_PROPERTY
E
SciTegic.value.DoubleValue
309.489

@<SCITEGIC>MOL_PROPERTY
-TS
SciTegic.value.DoubleValue
176.823

@<SCITEGIC>MOL_PROPERTY
U+W
SciTegic.value.DoubleValue
186.978

@<SCITEGIC>MOL_PROPERTY
U
SciTegic.value.DoubleValue
260.218

@<SCITEGIC>MOL_PROPERTY
W
SciTegic.value.DoubleValue
-73.240

@<SCITEGIC>MOL_PROPERTY
W(PB)
SciTegic.value.DoubleValue
-79.163

@<SCITEGIC>MOL_PROPERTY
W(SA)
SciTegic.value.DoubleValue
5.923

@<SCITEGIC>MOL_PROPERTY
Valence
SciTegic.value.DoubleValue
150.239

@<SCITEGIC>MOL_PROPERTY
Coulomb
SciTegic.value.DoubleValue
133.966

@<SCITEGIC>MOL_PROPERTY
VdW
SciTegic.value.DoubleValue
-23.987

@<SCITEGIC>MOL_PROPERTY
VdW6
SciTegic.value.DoubleValue
-177.897

@<SCITEGIC>MOL_PROPERTY
VdW12
SciTegic.value.DoubleValue
153.909

@<SCITEGIC>MOL_PROPERTY
Bond
SciTegic.value.DoubleValue
5.021

@<SCITEGIC>MOL_PROPERTY
Angle
SciTegic.value.DoubleValue
15.628

@<SCITEGIC>MOL_PROPERTY
Pdih
SciTegic.value.DoubleValue
129.585

@<SCITEGIC>MOL_PROPERTY
Idih
SciTegic.value.DoubleValue
0.005

@<SCITEGIC>MOL_PROPERTY
Tether
SciTegic.value.DoubleValue
0.000

@<TRIPOS>MOLECULE
CD_guest-6_fast_vm2_rndm.mol2 : feprocess host+ligand conformer 21
         139         144           2
SMALL
USER_CHARGES
 
@<TRIPOS>ATOM
       1    C1      16.408339   15.401320   22.041878 C.3        1 MOL1         0.2972
       2    H1      15.375611   15.322400   22.403282 H          1 MOL1         0.0751
       3    O1      16.693221   16.718051   21.530048 O.3        1 MOL1        -0.3740
       4    C2      17.396194   15.087777   23.191513 C.3        1 MOL1         0.1003
       5    H2      17.238740   14.040301   23.478445 H          1 MOL1         0.0783
       6    O2      17.129902   15.920965   24.330980 O.3        1 MOL1        -0.5519
       7    H3      17.899708   16.541807   24.434150 H          1 MOL1         0.3769
       8    C3      18.855094   15.230327   22.692225 C.3        1 MOL1         0.1053
       9    H4      19.018923   16.278514   22.410310 H          1 MOL1         0.0783
      10    O3      19.768701   14.869954   23.734727 O.3        1 MOL1        -0.5519
      11    H5      19.880171   15.699504   24.274428 H          1 MOL1         0.3769
      12    C4      19.102866   14.360045   21.431612 C.3        1 MOL1         0.1018
      13    H6      19.198881   13.310695   21.735857 H          1 MOL1         0.0783
      14    C5      17.972178   14.509774   20.372267 C.3        1 MOL1         0.1043
      15    H7      18.098475   15.491919   19.902783 H          1 MOL1         0.0783
      16    O4      16.656850   14.449441   20.984100 O.3        1 MOL1        -0.3740
      17    C6      18.034704   13.453691   19.242194 C.3        1 MOL1         0.0138
      18    H8      18.954838   13.609632   18.663046 H          1 MOL1         0.0794
      19    H9      17.192410   13.626433   18.559140 H          1 MOL1         0.0794
      20    O5      17.988699   12.110281   19.741416 O.3        1 MOL1        -0.5486
      21    H10     18.805128   11.942089   20.255544 H          1 MOL1         0.3769
      22    C7      14.856389   20.296000   20.616683 C.3        1 MOL1         0.2972
      23    H11     14.239674   21.121352   20.238040 H          1 MOL1         0.0751
      24    O6      16.064776   20.769267   21.238036 O.3        1 MOL1        -0.3740
      25    C8      14.090060   19.465467   21.673620 C.3        1 MOL1         0.1003
      26    H12     13.195501   19.060382   21.182955 H          1 MOL1         0.0783
      27    O7      13.690022   20.290900   22.780602 O.3        1 MOL1        -0.5519
      28    H13     14.495487   20.777478   23.090247 H          1 MOL1         0.3769
      29    C9      14.942985   18.271032   22.175104 C.3        1 MOL1         0.1053
      30    H14     15.759355   18.667828   22.795198 H          1 MOL1         0.0783
      31    O8      14.100694   17.422511   22.961881 O.3        1 MOL1        -0.5519
      32    H15     13.673361   18.016618   23.616868 H          1 MOL1         0.3769
      33    C10     15.579678   17.464939   21.006192 C.3        1 MOL1         0.1018
      34    H16     14.816585   16.804750   20.575060 H          1 MOL1         0.0783
      35    C11     16.170908   18.372901   19.890580 C.3        1 MOL1         0.1043
      36    H17     17.082243   18.844584   20.279113 H          1 MOL1         0.0783
      37    O9      15.218091   19.404103   19.540799 O.3        1 MOL1        -0.3740
      38    C12     16.590089   17.617869   18.602932 C.3        1 MOL1         0.0138
      39    H18     17.614653   17.249267   18.738085 H          1 MOL1         0.0794
      40    H19     16.621067   18.334617   17.771571 H          1 MOL1         0.0794
      41    O10     15.721583   16.524637   18.278108 O.3        1 MOL1        -0.5486
      42    H20     15.809627   15.857085   18.993808 H          1 MOL1         0.3769
      43    C13     18.405448   24.062512   21.876412 C.3        1 MOL1         0.2972
      44    H21     18.848991   25.053524   22.038459 H          1 MOL1         0.0751
      45    O11     19.419137   23.045323   21.753326 O.3        1 MOL1        -0.3740
      46    C14     17.492462   23.699506   23.071535 C.3        1 MOL1         0.1003
      47    H22     16.691978   24.449229   23.118969 H          1 MOL1         0.0783
      48    O12     18.244948   23.725455   24.294329 O.3        1 MOL1        -0.5519
      49    H23     19.182464   23.537799   24.048974 H          1 MOL1         0.3769
      50    C15     16.840551   22.313058   22.866732 C.3        1 MOL1         0.1053
      51    H24     17.632251   21.557773   22.943633 H          1 MOL1         0.0783
      52    O13     15.863733   22.083056   23.888065 O.3        1 MOL1        -0.5519
      53    H25     16.315336   22.318334   24.728890 H          1 MOL1         0.3769
      54    C16     16.175420   22.182954   21.473636 C.3        1 MOL1         0.1018
      55    H26     15.195276   22.677159   21.504189 H          1 MOL1         0.0783
      56    C17     17.041388   22.759941   20.318286 C.3        1 MOL1         0.1043
      57    H27     17.857489   22.048858   20.144083 H          1 MOL1         0.0783
      58    O14     17.604275   24.047965   20.677781 O.3        1 MOL1        -0.3740
      59    C18     16.277703   22.916499   18.981389 C.3        1 MOL1         0.0138
      60    H28     16.086825   21.916992   18.568135 H          1 MOL1         0.0794
      61    H29     16.923980   23.444487   18.267307 H          1 MOL1         0.0794
      62    O15     15.040126   23.619307   19.146847 O.3        1 MOL1        -0.5486
      63    H30     14.650271   23.750626   18.255039 H          1 MOL1         0.3769
      64    C19     23.466932   22.595116   20.817804 C.3        1 MOL1         0.2972
      65    H31     24.494749   22.738879   20.460598 H          1 MOL1         0.0751
      66    O16     23.224604   21.223291   21.186169 O.3        1 MOL1        -0.3740
      67    C20     23.150682   23.527029   22.020830 C.3        1 MOL1         0.1003
      68    H32     23.254867   24.559093   21.661547 H          1 MOL1         0.0783
      69    O17     24.060613   23.328183   23.112481 O.3        1 MOL1        -0.5519
      70    H33     23.945129   22.392797   23.417821 H          1 MOL1         0.3769
      71    C21     21.685979   23.335600   22.486960 C.3        1 MOL1         0.1053
      72    H34     21.579804   22.315785   22.881842 H          1 MOL1         0.0783
      73    O18     21.376354   24.288644   23.509705 O.3        1 MOL1        -0.5519
      74    H35     22.148540   24.274081   24.117658 H          1 MOL1         0.3769
      75    C22     20.707024   23.501530   21.298252 C.3        1 MOL1         0.1018
      76    H36     20.688861   24.560725   21.009578 H          1 MOL1         0.0783
      77    C23     21.133918   22.649404   20.068948 C.3        1 MOL1         0.1043
      78    H37     21.013856   21.588962   20.326058 H          1 MOL1         0.0783
      79    O19     22.527326   22.922921   19.770457 O.3        1 MOL1        -0.3740
      80    C24     20.309953   22.896811   18.778121 C.3        1 MOL1         0.0138
      81    H38     19.471267   22.191201   18.757237 H          1 MOL1         0.0794
      82    H39     20.940345   22.654726   17.912086 H          1 MOL1         0.0794
      83    O20     19.818644   24.238146   18.663834 O.3        1 MOL1        -0.5486
      84    H40     19.085812   24.336406   19.316133 H          1 MOL1         0.3769
      85    C25     24.902966   17.583924   22.093131 C.3        1 MOL1         0.2972
      86    H41     25.523800   16.722600   22.371595 H          1 MOL1         0.0751
      87    O21     23.606950   17.171914   21.623813 O.3        1 MOL1        -0.3740
      88    C26     24.730304   18.526158   23.309421 C.3        1 MOL1         0.1003
      89    H42     25.725025   18.916199   23.560419 H          1 MOL1         0.0783
      90    O22     24.204509   17.829228   24.448623 O.3        1 MOL1        -0.5519
      91    H43     23.243823   17.636959   24.256772 H          1 MOL1         0.3769
      92    C27     23.826406   19.721006   22.939737 C.3        1 MOL1         0.1053
      93    H44     22.826040   19.328343   22.718998 H          1 MOL1         0.0783
      94    O23     23.761553   20.624272   24.048483 O.3        1 MOL1        -0.5519
      95    H45     23.523794   20.055960   24.815271 H          1 MOL1         0.3769
      96    C28     24.339047   20.450336   21.673326 C.3        1 MOL1         0.1018
      97    H46     25.195408   21.080919   21.946352 H          1 MOL1         0.0783
      98    C29     24.733324   19.467182   20.531326 C.3        1 MOL1         0.1043
      99    H47     23.801276   19.078929   20.103052 H          1 MOL1         0.0783
     100    O24     25.518843   18.351610   21.035116 O.3        1 MOL1        -0.3740
     101    C30     25.515981   20.139999   19.378884 C.3        1 MOL1         0.0138
     102    H48     24.829752   20.799623   18.830697 H          1 MOL1         0.0794
     103    H49     25.848543   19.361725   18.678854 H          1 MOL1         0.0794
     104    O25     26.637077   20.893880   19.856288 O.3        1 MOL1        -0.5486
     105    H50     27.130327   21.223083   19.073372 H          1 MOL1         0.3769
     106    C31     21.354109   13.940111   20.453014 C.3        1 MOL1         0.2972
     107    H51     20.938806   13.010699   20.044827 H          1 MOL1         0.0751
     108    O26     20.305872   14.866959   20.815216 O.3        1 MOL1        -0.3740
     109    C32     22.279264   13.650577   21.665134 C.3        1 MOL1         0.1003
     110    H52     23.106029   13.035232   21.286984 H          1 MOL1         0.0783
     111    O27     21.603791   12.917717   22.698010 O.3        1 MOL1        -0.5519
     112    H53     20.955459   13.544517   23.108446 H          1 MOL1         0.3769
     113    C33     22.891714   14.957981   22.226404 C.3        1 MOL1         0.1053
     114    H54     22.094195   15.543016   22.705461 H          1 MOL1         0.0783
     115    O28     23.897659   14.616207   23.186286 O.3        1 MOL1        -0.5519
     116    H55     23.448976   14.043985   23.844998 H          1 MOL1         0.3769
     117    C34     23.516391   15.832610   21.107519 C.3        1 MOL1         0.1018
     118    H56     24.502337   15.421074   20.856662 H          1 MOL1         0.0783
     119    C35     22.649662   15.910520   19.817708 C.3        1 MOL1         0.1043
     120    H57     21.783789   16.547636   20.025899 H          1 MOL1         0.0783
     121    O29     22.180075   14.586768   19.458760 O.3        1 MOL1        -0.3740
     122    C36     23.363884   16.548439   18.596065 C.3        1 MOL1         0.0138
     123    H58     23.135946   17.621690   18.586506 H          1 MOL1         0.0794
     124    H59     22.931356   16.127938   17.678434 H          1 MOL1         0.0794
     125    O30     24.785380   16.363102   18.599341 O.3        1 MOL1        -0.5486
     126    H60     25.146845   16.894915   19.345495 H          1 MOL1         0.3769
     127    C1      20.289286   18.151245   24.202190 C.2        1 MOL1         0.6021
     128    O1      19.384017   17.519559   24.713437 O.co2      1 MOL1        -0.6904
     129    O2      21.437997   17.754986   24.176295 O.co2      1 MOL1        -0.6904
     130    C2      19.949961   19.477766   23.520579 C.3        1 MOL1        -0.2102
     131    H1      20.856917   20.087933   23.465417 H          1 MOL1         0.0687
     132    H2      19.253034   20.012887   24.175825 H          1 MOL1         0.0687
     133    C3      19.317922   19.326997   22.112390 C.3        1 MOL1        -0.1974
     134    H3      18.402287   18.728117   22.197584 H          1 MOL1         0.0689
     135    H4      19.020947   20.312497   21.735412 H          1 MOL1         0.0689
     136    C4      20.273982   18.676637   21.094358 C.3        1 MOL1        -0.2987
     137    H5      20.587808   17.687390   21.446989 H          1 MOL1         0.0700
     138    H6      19.784849   18.555180   20.120134 H          1 MOL1         0.0700
     139    H7      21.175250   19.285681   20.955579 H          1 MOL1         0.0700
@<TRIPOS>BOND
    1     1     2    1
    2     1     3    1
    3     1     4    1
    4     4     5    1
    5     4     6    1
    6     6     7    1
    7     4     8    1
    8     8     9    1
    9     8    10    1
   10    10    11    1
   11     8    12    1
   12    12    13    1
   13    12    14    1
   14    14    15    1
   15     1    16    1
   16    14    16    1
   17    14    17    1
   18    17    18    1
   19    17    19    1
   20    17    20    1
   21    20    21    1
   22    22    23    1
   23    22    24    1
   24    22    25    1
   25    25    26    1
   26    25    27    1
   27    27    28    1
   28    25    29    1
   29    29    30    1
   30    29    31    1
   31    31    32    1
   32     3    33    1
   33    29    33    1
   34    33    34    1
   35    33    35    1
   36    35    36    1
   37    22    37    1
   38    35    37    1
   39    35    38    1
   40    38    39    1
   41    38    40    1
   42    38    41    1
   43    41    42    1
   44    43    44    1
   45    43    45    1
   46    43    46    1
   47    46    47    1
   48    46    48    1
   49    48    49    1
   50    46    50    1
   51    50    51    1
   52    50    52    1
   53    52    53    1
   54    24    54    1
   55    50    54    1
   56    54    55    1
   57    54    56    1
   58    56    57    1
   59    43    58    1
   60    56    58    1
   61    56    59    1
   62    59    60    1
   63    59    61    1
   64    59    62    1
   65    62    63    1
   66    64    65    1
   67    64    66    1
   68    64    67    1
   69    67    68    1
   70    67    69    1
   71    69    70    1
   72    67    71    1
   73    71    72    1
   74    71    73    1
   75    73    74    1
   76    45    75    1
   77    71    75    1
   78    75    76    1
   79    75    77    1
   80    77    78    1
   81    64    79    1
   82    77    79    1
   83    77    80    1
   84    80    81    1
   85    80    82    1
   86    80    83    1
   87    83    84    1
   88    85    86    1
   89    85    87    1
   90    85    88    1
   91    88    89    1
   92    88    90    1
   93    90    91    1
   94    88    92    1
   95    92    93    1
   96    92    94    1
   97    94    95    1
   98    66    96    1
   99    92    96    1
  100    96    97    1
  101    96    98    1
  102    98    99    1
  103    85   100    1
  104    98   100    1
  105    98   101    1
  106   101   102    1
  107   101   103    1
  108   101   104    1
  109   104   105    1
  110   106   107    1
  111    12   108    1
  112   106   108    1
  113   106   109    1
  114   109   110    1
  115   109   111    1
  116   111   112    1
  117   109   113    1
  118   113   114    1
  119   113   115    1
  120   115   116    1
  121    87   117    1
  122   113   117    1
  123   117   118    1
  124   117   119    1
  125   119   120    1
  126   106   121    1
  127   119   121    1
  128   119   122    1
  129   122   123    1
  130   122   124    1
  131   122   125    1
  132   125   126    1
  133   127   128    1
  134   127   129    2
  135   127   130    1
  136   130   131    1
  137   130   132    1
  138   130   133    1
  139   133   134    1
  140   133   135    1
  141   133   136    1
  142   136   137    1
  143   136   138    1
  144   136   139    1
@<TRIPOS>SUBSTRUCTURE
       1 MOL1            1 RESIDUE      1      MOL     
       2 MOL1          139 RESIDUE      1      MOL     
@<SCITEGIC>MOL_PROPERTY
feprocess Rank
SciTegic.value.IntegerValue
21

@<SCITEGIC>MOL_PROPERTY
Conf_Id
SciTegic.value.IntegerValue
331

@<SCITEGIC>MOL_PROPERTY
Probability
SciTegic.value.DoubleValue
0.06

@<SCITEGIC>MOL_PROPERTY
G
SciTegic.value.DoubleValue
486.338

@<SCITEGIC>MOL_PROPERTY
E
SciTegic.value.DoubleValue
309.449

@<SCITEGIC>MOL_PROPERTY
-TS
SciTegic.value.DoubleValue
176.889

@<SCITEGIC>MOL_PROPERTY
U+W
SciTegic.value.DoubleValue
186.938

@<SCITEGIC>MOL_PROPERTY
U
SciTegic.value.DoubleValue
257.022

@<SCITEGIC>MOL_PROPERTY
W
SciTegic.value.DoubleValue
-70.084

@<SCITEGIC>MOL_PROPERTY
W(PB)
SciTegic.value.DoubleValue
-76.016

@<SCITEGIC>MOL_PROPERTY
W(SA)
SciTegic.value.DoubleValue
5.932

@<SCITEGIC>MOL_PROPERTY
Valence
SciTegic.value.DoubleValue
151.771

@<SCITEGIC>MOL_PROPERTY
Coulomb
SciTegic.value.DoubleValue
126.959

@<SCITEGIC>MOL_PROPERTY
VdW
SciTegic.value.DoubleValue
-21.709

@<SCITEGIC>MOL_PROPERTY
VdW6
SciTegic.value.DoubleValue
-178.000

@<SCITEGIC>MOL_PROPERTY
VdW12
SciTegic.value.DoubleValue
156.292

@<SCITEGIC>MOL_PROPERTY
Bond
SciTegic.value.DoubleValue
5.147

@<SCITEGIC>MOL_PROPERTY
Angle
SciTegic.value.DoubleValue
15.498

@<SCITEGIC>MOL_PROPERTY
Pdih
SciTegic.value.DoubleValue
131.122

@<SCITEGIC>MOL_PROPERTY
Idih
SciTegic.value.DoubleValue
0.004

@<SCITEGIC>MOL_PROPERTY
Tether
SciTegic.value.DoubleValue
0.000

@<TRIPOS>MOLECULE
CD_guest-6_fast_vm2_rndm.mol2 : feprocess host+ligand conformer 22
         139         144           2
SMALL
USER_CHARGES
 
@<TRIPOS>ATOM
       1    C1      16.447299   15.500169   21.799607 C.3        1 MOL1         0.2972
       2    H1      15.413689   15.394234   22.151040 H          1 MOL1         0.0751
       3    O1      16.618592   16.695689   21.009955 O.3        1 MOL1        -0.3740
       4    C2      17.429013   15.542224   23.002390 C.3        1 MOL1         0.1003
       5    H2      17.304334   14.603697   23.557348 H          1 MOL1         0.0783
       6    O2      17.126500   16.644241   23.873430 O.3        1 MOL1        -0.5519
       7    H3      16.175925   16.868404   23.741692 H          1 MOL1         0.3769
       8    C3      18.895327   15.613756   22.505842 C.3        1 MOL1         0.1053
       9    H4      19.027081   16.572025   21.994357 H          1 MOL1         0.0783
      10    O3      19.805610   15.533223   23.608818 O.3        1 MOL1        -0.5519
      11    H5      20.019350   16.481726   23.824991 H          1 MOL1         0.3769
      12    C4      19.203876   14.493616   21.480409 C.3        1 MOL1         0.1018
      13    H6      19.268879   13.537472   22.013140 H          1 MOL1         0.0783
      14    C5      18.116097   14.402752   20.375314 C.3        1 MOL1         0.1043
      15    H7      18.201346   15.294194   19.739909 H          1 MOL1         0.0783
      16    O4      16.798548   14.367936   20.976830 O.3        1 MOL1        -0.3740
      17    C6      18.262872   13.164653   19.457190 C.3        1 MOL1         0.0138
      18    H8      19.194648   13.259476   18.883440 H          1 MOL1         0.0794
      19    H9      17.437799   13.171648   18.732668 H          1 MOL1         0.0794
      20    O5      18.257889   11.930641   20.188521 O.3        1 MOL1        -0.5486
      21    H10     19.032815   11.920860   20.786695 H          1 MOL1         0.3769
      22    C7      14.728137   20.364726   20.547127 C.3        1 MOL1         0.2972
      23    H11     14.072702   21.210017   20.301073 H          1 MOL1         0.0751
      24    O6      16.053342   20.808688   20.903441 O.3        1 MOL1        -0.3740
      25    C8      14.132325   19.496363   21.685530 C.3        1 MOL1         0.1003
      26    H12     13.203494   19.058789   21.296503 H          1 MOL1         0.0783
      27    O7      13.814409   20.267024   22.853444 O.3        1 MOL1        -0.5519
      28    H13     14.669974   20.610382   23.214882 H          1 MOL1         0.3769
      29    C9      15.090379   18.330435   22.034362 C.3        1 MOL1         0.1053
      30    H14     16.018561   18.755749   22.441500 H          1 MOL1         0.0783
      31    O8      14.453980   17.508523   23.020118 O.3        1 MOL1        -0.5519
      32    H15     13.987536   18.140384   23.614094 H          1 MOL1         0.3769
      33    C10     15.448072   17.504409   20.762979 C.3        1 MOL1         0.1018
      34    H16     14.588509   16.878269   20.493135 H          1 MOL1         0.0783
      35    C11     15.820255   18.411158   19.554174 C.3        1 MOL1         0.1043
      36    H17     16.812990   18.839687   19.745861 H          1 MOL1         0.0783
      37    O9      14.860881   19.489858   19.406816 O.3        1 MOL1        -0.3740
      38    C12     15.915335   17.645303   18.211331 C.3        1 MOL1         0.0138
      39    H18     16.808226   17.006359   18.234729 H          1 MOL1         0.0794
      40    H19     16.062059   18.375875   17.404872 H          1 MOL1         0.0794
      41    O10     14.755743   16.845972   17.945993 O.3        1 MOL1        -0.5486
      42    H20     14.793367   16.065413   18.539265 H          1 MOL1         0.3769
      43    C13     18.514632   23.778343   22.216579 C.3        1 MOL1         0.2972
      44    H21     19.016619   24.669061   22.613618 H          1 MOL1         0.0751
      45    O11     19.436965   22.903837   21.536693 O.3        1 MOL1        -0.3740
      46    C14     17.823934   23.005230   23.367276 C.3        1 MOL1         0.1003
      47    H22     17.077504   23.681784   23.802924 H          1 MOL1         0.0783
      48    O12     18.760344   22.624110   24.388161 O.3        1 MOL1        -0.5519
      49    H23     19.365056   21.932453   24.000284 H          1 MOL1         0.3769
      50    C15     17.084246   21.757476   22.840071 C.3        1 MOL1         0.1053
      51    H24     17.843294   21.033595   22.533331 H          1 MOL1         0.0783
      52    O13     16.305999   21.197542   23.901831 O.3        1 MOL1        -0.5519
      53    H25     16.927189   21.132890   24.661978 H          1 MOL1         0.3769
      54    C16     16.188028   22.059081   21.608789 C.3        1 MOL1         0.1018
      55    H26     15.222020   22.447358   21.957057 H          1 MOL1         0.0783
      56    C17     16.830705   23.051616   20.595656 C.3        1 MOL1         0.1043
      57    H27     17.580080   22.495698   20.018839 H          1 MOL1         0.0783
      58    O14     17.487544   24.152591   21.274567 O.3        1 MOL1        -0.3740
      59    C18     15.820480   23.630716   19.576843 C.3        1 MOL1         0.0138
      60    H28     15.513955   22.825669   18.895346 H          1 MOL1         0.0794
      61    H29     16.330219   24.392980   18.972432 H          1 MOL1         0.0794
      62    O15     14.667094   24.191099   20.216458 O.3        1 MOL1        -0.5486
      63    H30     14.110556   24.603339   19.519936 H          1 MOL1         0.3769
      64    C19     23.483757   22.652778   20.598919 C.3        1 MOL1         0.2972
      65    H31     24.506875   22.829296   20.243801 H          1 MOL1         0.0751
      66    O16     23.277425   21.255925   20.893384 O.3        1 MOL1        -0.3740
      67    C20     23.155140   23.562287   21.819658 C.3        1 MOL1         0.1003
      68    H32     23.289630   24.595436   21.473766 H          1 MOL1         0.0783
      69    O17     24.037069   23.340287   22.930580 O.3        1 MOL1        -0.5519
      70    H33     23.807201   22.447478   23.292636 H          1 MOL1         0.3769
      71    C21     21.683476   23.421863   22.282028 C.3        1 MOL1         0.1053
      72    H34     21.560824   22.442498   22.758494 H          1 MOL1         0.0783
      73    O18     21.414382   24.465327   23.224911 O.3        1 MOL1        -0.5519
      74    H35     22.121793   24.393962   23.901796 H          1 MOL1         0.3769
      75    C22     20.679042   23.492748   21.102135 C.3        1 MOL1         0.1018
      76    H36     20.546485   24.541631   20.808308 H          1 MOL1         0.0783
      77    C23     21.149608   22.669328   19.872344 C.3        1 MOL1         0.1043
      78    H37     21.070470   21.604289   20.126690 H          1 MOL1         0.0783
      79    O19     22.531437   22.993757   19.565857 O.3        1 MOL1        -0.3740
      80    C24     20.285354   22.878468   18.603383 C.3        1 MOL1         0.0138
      81    H38     19.385653   22.256045   18.692801 H          1 MOL1         0.0794
      82    H39     20.844802   22.506147   17.734946 H          1 MOL1         0.0794
      83    O20     19.907301   24.245739   18.398710 O.3        1 MOL1        -0.5486
      84    H40     19.279635   24.485955   19.114720 H          1 MOL1         0.3769
      85    C25     24.790390   17.673365   22.216870 C.3        1 MOL1         0.2972
      86    H41     25.362024   16.847058   22.657338 H          1 MOL1         0.0751
      87    O21     23.724913   17.189569   21.370178 O.3        1 MOL1        -0.3740
      88    C26     24.216732   18.582207   23.338496 C.3        1 MOL1         0.1003
      89    H42     25.072804   18.968389   23.905900 H          1 MOL1         0.0783
      90    O22     23.360796   17.850731   24.232562 O.3        1 MOL1        -0.5519
      91    H43     22.423456   17.972065   23.921147 H          1 MOL1         0.3769
      92    C27     23.464005   19.788391   22.737865 C.3        1 MOL1         0.1053
      93    H44     22.571932   19.391345   22.246736 H          1 MOL1         0.0783
      94    O23     23.085090   20.706120   23.771696 O.3        1 MOL1        -0.5519
      95    H45     22.119920   20.524331   23.940652 H          1 MOL1         0.3769
      96    C28     24.271438   20.529350   21.646203 C.3        1 MOL1         0.1018
      97    H46     25.011002   21.184636   22.121323 H          1 MOL1         0.0783
      98    C29     24.984630   19.559401   20.662958 C.3        1 MOL1         0.1043
      99    H47     24.221962   19.123829   20.003957 H          1 MOL1         0.0783
     100    O24     25.648055   18.494378   21.393533 O.3        1 MOL1        -0.3740
     101    C30     26.023812   20.256991   19.753160 C.3        1 MOL1         0.0138
     102    H48     25.486005   20.884725   19.030026 H          1 MOL1         0.0794
     103    H49     26.560076   19.487711   19.181515 H          1 MOL1         0.0794
     104    O25     26.948531   21.058826   20.498572 O.3        1 MOL1        -0.5486
     105    H50     27.615891   21.408428   19.868427 H          1 MOL1         0.3769
     106    C31     21.470734   13.834916   20.714238 C.3        1 MOL1         0.2972
     107    H51     21.035390   12.859914   20.464806 H          1 MOL1         0.0751
     108    O26     20.446124   14.846680   20.832779 O.3        1 MOL1        -0.3740
     109    C32     22.319995   13.743219   22.008874 C.3        1 MOL1         0.1003
     110    H52     23.121819   13.022150   21.802920 H          1 MOL1         0.0783
     111    O27     21.553674   13.266433   23.125647 O.3        1 MOL1        -0.5519
     112    H53     20.932690   13.999178   23.370042 H          1 MOL1         0.3769
     113    C33     22.989456   15.096256   22.352675 C.3        1 MOL1         0.1053
     114    H54     22.213414   15.784193   22.714033 H          1 MOL1         0.0783
     115    O28     23.958906   14.858380   23.379603 O.3        1 MOL1        -0.5519
     116    H55     23.459356   14.470377   24.129538 H          1 MOL1         0.3769
     117    C34     23.676456   15.766374   21.129511 C.3        1 MOL1         0.1018
     118    H56     24.684689   15.349182   21.017345 H          1 MOL1         0.0783
     119    C35     22.901043   15.587747   19.791664 C.3        1 MOL1         0.1043
     120    H57     22.063667   16.292962   19.783760 H          1 MOL1         0.0783
     121    O29     22.375310   14.243380   19.668396 O.3        1 MOL1        -0.3740
     122    C36     23.749080   15.911273   18.537348 C.3        1 MOL1         0.0138
     123    H58     23.947493   16.991467   18.519750 H          1 MOL1         0.0794
     124    H59     23.151027   15.678016   17.646496 H          1 MOL1         0.0794
     125    O30     24.986389   15.188507   18.499719 O.3        1 MOL1        -0.5486
     126    H60     25.588479   15.594476   19.159272 H          1 MOL1         0.3769
     127    C1      20.153706   19.288031   23.011511 C.2        1 MOL1         0.6021
     128    O1      20.627061   18.271704   23.490959 O.co2      1 MOL1        -0.6904
     129    O2      20.268318   20.382677   23.532808 O.co2      1 MOL1        -0.6904
     130    C2      19.567028   19.231359   21.597956 C.3        1 MOL1        -0.2102
     131    H1      19.372137   20.252459   21.257289 H          1 MOL1         0.0687
     132    H2      18.597031   18.727292   21.666697 H          1 MOL1         0.0687
     133    C3      20.474324   18.533550   20.556010 C.3        1 MOL1        -0.1974
     134    H3      21.374839   19.136766   20.385203 H          1 MOL1         0.0689
     135    H4      20.808803   17.571983   20.961368 H          1 MOL1         0.0689
     136    C4      19.745538   18.306686   19.217465 C.3        1 MOL1        -0.2987
     137    H5      19.382497   19.255243   18.801503 H          1 MOL1         0.0700
     138    H6      20.419435   17.845963   18.484209 H          1 MOL1         0.0700
     139    H7      18.888746   17.636790   19.356046 H          1 MOL1         0.0700
@<TRIPOS>BOND
    1     1     2    1
    2     1     3    1
    3     1     4    1
    4     4     5    1
    5     4     6    1
    6     6     7    1
    7     4     8    1
    8     8     9    1
    9     8    10    1
   10    10    11    1
   11     8    12    1
   12    12    13    1
   13    12    14    1
   14    14    15    1
   15     1    16    1
   16    14    16    1
   17    14    17    1
   18    17    18    1
   19    17    19    1
   20    17    20    1
   21    20    21    1
   22    22    23    1
   23    22    24    1
   24    22    25    1
   25    25    26    1
   26    25    27    1
   27    27    28    1
   28    25    29    1
   29    29    30    1
   30    29    31    1
   31    31    32    1
   32     3    33    1
   33    29    33    1
   34    33    34    1
   35    33    35    1
   36    35    36    1
   37    22    37    1
   38    35    37    1
   39    35    38    1
   40    38    39    1
   41    38    40    1
   42    38    41    1
   43    41    42    1
   44    43    44    1
   45    43    45    1
   46    43    46    1
   47    46    47    1
   48    46    48    1
   49    48    49    1
   50    46    50    1
   51    50    51    1
   52    50    52    1
   53    52    53    1
   54    24    54    1
   55    50    54    1
   56    54    55    1
   57    54    56    1
   58    56    57    1
   59    43    58    1
   60    56    58    1
   61    56    59    1
   62    59    60    1
   63    59    61    1
   64    59    62    1
   65    62    63    1
   66    64    65    1
   67    64    66    1
   68    64    67    1
   69    67    68    1
   70    67    69    1
   71    69    70    1
   72    67    71    1
   73    71    72    1
   74    71    73    1
   75    73    74    1
   76    45    75    1
   77    71    75    1
   78    75    76    1
   79    75    77    1
   80    77    78    1
   81    64    79    1
   82    77    79    1
   83    77    80    1
   84    80    81    1
   85    80    82    1
   86    80    83    1
   87    83    84    1
   88    85    86    1
   89    85    87    1
   90    85    88    1
   91    88    89    1
   92    88    90    1
   93    90    91    1
   94    88    92    1
   95    92    93    1
   96    92    94    1
   97    94    95    1
   98    66    96    1
   99    92    96    1
  100    96    97    1
  101    96    98    1
  102    98    99    1
  103    85   100    1
  104    98   100    1
  105    98   101    1
  106   101   102    1
  107   101   103    1
  108   101   104    1
  109   104   105    1
  110   106   107    1
  111    12   108    1
  112   106   108    1
  113   106   109    1
  114   109   110    1
  115   109   111    1
  116   111   112    1
  117   109   113    1
  118   113   114    1
  119   113   115    1
  120   115   116    1
  121    87   117    1
  122   113   117    1
  123   117   118    1
  124   117   119    1
  125   119   120    1
  126   106   121    1
  127   119   121    1
  128   119   122    1
  129   122   123    1
  130   122   124    1
  131   122   125    1
  132   125   126    1
  133   127   128    1
  134   127   129    2
  135   127   130    1
  136   130   131    1
  137   130   132    1
  138   130   133    1
  139   133   134    1
  140   133   135    1
  141   133   136    1
  142   136   137    1
  143   136   138    1
  144   136   139    1
@<TRIPOS>SUBSTRUCTURE
       1 MOL1            1 RESIDUE      1      MOL     
       2 MOL1          139 RESIDUE      1      MOL     
@<SCITEGIC>MOL_PROPERTY
feprocess Rank
SciTegic.value.IntegerValue
22

@<SCITEGIC>MOL_PROPERTY
Conf_Id
SciTegic.value.IntegerValue
165

@<SCITEGIC>MOL_PROPERTY
Probability
SciTegic.value.DoubleValue
0.06

@<SCITEGIC>MOL_PROPERTY
G
SciTegic.value.DoubleValue
486.404

@<SCITEGIC>MOL_PROPERTY
E
SciTegic.value.DoubleValue
307.014

@<SCITEGIC>MOL_PROPERTY
-TS
SciTegic.value.DoubleValue
179.390

@<SCITEGIC>MOL_PROPERTY
U+W
SciTegic.value.DoubleValue
184.503

@<SCITEGIC>MOL_PROPERTY
U
SciTegic.value.DoubleValue
255.769

@<SCITEGIC>MOL_PROPERTY
W
SciTegic.value.DoubleValue
-71.266

@<SCITEGIC>MOL_PROPERTY
W(PB)
SciTegic.value.DoubleValue
-77.245

@<SCITEGIC>MOL_PROPERTY
W(SA)
SciTegic.value.DoubleValue
5.979

@<SCITEGIC>MOL_PROPERTY
Valence
SciTegic.value.DoubleValue
150.873

@<SCITEGIC>MOL_PROPERTY
Coulomb
SciTegic.value.DoubleValue
125.661

@<SCITEGIC>MOL_PROPERTY
VdW
SciTegic.value.DoubleValue
-20.765

@<SCITEGIC>MOL_PROPERTY
VdW6
SciTegic.value.DoubleValue
-181.950

@<SCITEGIC>MOL_PROPERTY
VdW12
SciTegic.value.DoubleValue
161.185

@<SCITEGIC>MOL_PROPERTY
Bond
SciTegic.value.DoubleValue
5.482

@<SCITEGIC>MOL_PROPERTY
Angle
SciTegic.value.DoubleValue
17.497

@<SCITEGIC>MOL_PROPERTY
Pdih
SciTegic.value.DoubleValue
127.837

@<SCITEGIC>MOL_PROPERTY
Idih
SciTegic.value.DoubleValue
0.057

@<SCITEGIC>MOL_PROPERTY
Tether
SciTegic.value.DoubleValue
0.000

@<TRIPOS>MOLECULE
CD_guest-6_fast_vm2_rndm.mol2 : feprocess host+ligand conformer 23
         139         144           2
SMALL
USER_CHARGES
 
@<TRIPOS>ATOM
       1    C1      16.322766   15.495056   19.906646 C.3        1 MOL1         0.2972
       2    H1      15.388790   15.371451   19.343788 H          1 MOL1         0.0751
       3    O1      16.399502   16.797717   20.519645 O.3        1 MOL1        -0.3740
       4    C2      16.493995   14.380189   20.974448 C.3        1 MOL1         0.1003
       5    H2      16.564108   13.430438   20.428262 H          1 MOL1         0.0783
       6    O2      15.373933   14.304131   21.868170 O.3        1 MOL1        -0.5519
       7    H3      15.371745   15.141094   22.397435 H          1 MOL1         0.3769
       8    C3      17.819477   14.566949   21.756211 C.3        1 MOL1         0.1053
       9    H4      17.752169   15.493243   22.344133 H          1 MOL1         0.0783
      10    O3      18.005654   13.445945   22.625832 O.3        1 MOL1        -0.5519
      11    H5      17.148639   13.333794   23.092717 H          1 MOL1         0.3769
      12    C4      19.023523   14.692940   20.783832 C.3        1 MOL1         0.1018
      13    H6      19.233730   13.701184   20.362738 H          1 MOL1         0.0783
      14    C5      18.746033   15.687843   19.620819 C.3        1 MOL1         0.1043
      15    H7      18.722667   16.703503   20.036973 H          1 MOL1         0.0783
      16    O4      17.459447   15.384838   19.020306 O.3        1 MOL1        -0.3740
      17    C6      19.825315   15.689244   18.506898 C.3        1 MOL1         0.0138
      18    H8      20.596891   16.421746   18.773859 H          1 MOL1         0.0794
      19    H9      19.366137   16.044853   17.574905 H          1 MOL1         0.0794
      20    O5      20.428351   14.404843   18.299099 O.3        1 MOL1        -0.5486
      21    H10     20.908016   14.166898   19.125057 H          1 MOL1         0.3769
      22    C7      14.675667   20.149947   21.991041 C.3        1 MOL1         0.2972
      23    H11     14.081539   20.986866   22.380152 H          1 MOL1         0.0751
      24    O6      16.035105   20.545164   21.717515 O.3        1 MOL1        -0.3740
      25    C8      14.674722   18.983161   23.006655 C.3        1 MOL1         0.1003
      26    H12     13.646062   18.606102   23.069783 H          1 MOL1         0.0783
      27    O7      15.083175   19.431388   24.308749 O.3        1 MOL1        -0.5519
      28    H13     16.067787   19.584147   24.284687 H          1 MOL1         0.3769
      29    C9      15.571916   17.836745   22.488934 C.3        1 MOL1         0.1053
      30    H14     16.597054   18.217012   22.447737 H          1 MOL1         0.0783
      31    O8      15.522315   16.719674   23.382382 O.3        1 MOL1        -0.5519
      32    H15     16.170613   16.949594   24.102962 H          1 MOL1         0.3769
      33    C10     15.200329   17.399798   21.048531 C.3        1 MOL1         0.1018
      34    H16     14.356518   16.698656   21.084977 H          1 MOL1         0.0783
      35    C11     14.880065   18.595987   20.101854 C.3        1 MOL1         0.1043
      36    H17     15.841085   19.020157   19.791055 H          1 MOL1         0.0783
      37    O9      14.112351   19.638143   20.763745 O.3        1 MOL1        -0.3740
      38    C12     14.137229   18.177236   18.811526 C.3        1 MOL1         0.0138
      39    H18     14.824603   17.588221   18.189472 H          1 MOL1         0.0794
      40    H19     13.879025   19.082274   18.245227 H          1 MOL1         0.0794
      41    O10     12.959088   17.412286   19.093141 O.3        1 MOL1        -0.5486
      42    H20     12.501641   17.243702   18.240418 H          1 MOL1         0.3769
      43    C13     18.423427   23.940172   21.413315 C.3        1 MOL1         0.2972
      44    H21     18.793670   24.956924   21.230378 H          1 MOL1         0.0751
      45    O11     19.495256   23.049119   21.782991 O.3        1 MOL1        -0.3740
      46    C14     17.401816   23.968723   22.575105 C.3        1 MOL1         0.1003
      47    H22     16.604606   24.667199   22.289407 H          1 MOL1         0.0783
      48    O12     18.035353   24.441589   23.774829 O.3        1 MOL1        -0.5519
      49    H23     18.968192   24.115887   23.746880 H          1 MOL1         0.3769
      50    C15     16.751356   22.582507   22.809634 C.3        1 MOL1         0.1053
      51    H24     17.505522   21.914584   23.249032 H          1 MOL1         0.0783
      52    O13     15.650347   22.748209   23.709184 O.3        1 MOL1        -0.5519
      53    H25     16.035022   23.151191   24.517107 H          1 MOL1         0.3769
      54    C16     16.256925   21.947911   21.483087 C.3        1 MOL1         0.1018
      55    H26     15.338219   22.458690   21.166554 H          1 MOL1         0.0783
      56    C17     17.312665   22.048548   20.349104 C.3        1 MOL1         0.1043
      57    H27     18.159464   21.404713   20.616691 H          1 MOL1         0.0783
      58    O14     17.769002   23.418531   20.237073 O.3        1 MOL1        -0.3740
      59    C18     16.813265   21.576782   18.957875 C.3        1 MOL1         0.0138
      60    H28     17.055206   20.512504   18.847440 H          1 MOL1         0.0794
      61    H29     17.379834   22.108137   18.181520 H          1 MOL1         0.0794
      62    O15     15.407282   21.776223   18.760584 O.3        1 MOL1        -0.5486
      63    H30     14.934939   21.201527   19.406017 H          1 MOL1         0.3769
      64    C19     23.656613   22.688234   21.207865 C.3        1 MOL1         0.2972
      65    H31     24.687948   22.927361   20.918161 H          1 MOL1         0.0751
      66    O16     23.545118   21.337810   21.696365 O.3        1 MOL1        -0.3740
      67    C20     23.190339   23.626523   22.351825 C.3        1 MOL1         0.1003
      68    H32     23.317558   24.659701   22.003472 H          1 MOL1         0.0783
      69    O17     23.994357   23.416541   23.524470 O.3        1 MOL1        -0.5519
      70    H33     24.151358   22.442539   23.588345 H          1 MOL1         0.3769
      71    C21     21.690392   23.415317   22.684581 C.3        1 MOL1         0.1053
      72    H34     21.573646   22.420181   23.136363 H          1 MOL1         0.0783
      73    O18     21.260616   24.423215   23.606724 O.3        1 MOL1        -0.5519
      74    H35     21.948653   24.439612   24.308329 H          1 MOL1         0.3769
      75    C22     20.822264   23.466852   21.403927 C.3        1 MOL1         0.1018
      76    H36     20.835117   24.494174   21.016650 H          1 MOL1         0.0783
      77    C23     21.382432   22.504247   20.323063 C.3        1 MOL1         0.1043
      78    H37     21.324558   21.481891   20.712472 H          1 MOL1         0.0783
      79    O19     22.765774   22.851178   20.083756 O.3        1 MOL1        -0.3740
      80    C24     20.644720   22.519771   18.961236 C.3        1 MOL1         0.0138
      81    H38     19.793137   21.831432   19.018166 H          1 MOL1         0.0794
      82    H39     21.322335   22.120658   18.194917 H          1 MOL1         0.0794
      83    O20     20.189692   23.822934   18.581506 O.3        1 MOL1        -0.5486
      84    H40     19.320781   23.956788   19.025649 H          1 MOL1         0.3769
      85    C25     25.200646   17.583522   21.278216 C.3        1 MOL1         0.2972
      86    H41     25.810579   16.687454   21.105366 H          1 MOL1         0.0751
      87    O21     23.804155   17.256464   21.432512 O.3        1 MOL1        -0.3740
      88    C26     25.690001   18.370865   22.520775 C.3        1 MOL1         0.1003
      89    H42     26.699974   18.737129   22.294650 H          1 MOL1         0.0783
      90    O22     25.752955   17.544004   23.691440 O.3        1 MOL1        -0.5519
      91    H43     24.839942   17.194708   23.850250 H          1 MOL1         0.3769
      92    C27     24.781644   19.601547   22.756450 C.3        1 MOL1         0.1053
      93    H44     23.773653   19.243316   23.008769 H          1 MOL1         0.0783
      94    O23     25.300606   20.384153   23.838136 O.3        1 MOL1        -0.5519
      95    H45     25.522341   19.734769   24.541793 H          1 MOL1         0.3769
      96    C28     24.683903   20.479005   21.482179 C.3        1 MOL1         0.1018
      97    H46     25.615404   21.054532   21.403431 H          1 MOL1         0.0783
      98    C29     24.459322   19.651777   20.177330 C.3        1 MOL1         0.1043
      99    H47     23.412743   19.323726   20.153126 H          1 MOL1         0.0783
     100    O24     25.319172   18.482933   20.157901 O.3        1 MOL1        -0.3740
     101    C30     24.725566   20.440355   18.871677 C.3        1 MOL1         0.0138
     102    H48     23.894725   21.134750   18.699889 H          1 MOL1         0.0794
     103    H49     24.726557   19.732074   18.032356 H          1 MOL1         0.0794
     104    O25     25.964953   21.159484   18.913270 O.3        1 MOL1        -0.5486
     105    H50     26.086160   21.592960   18.040479 H          1 MOL1         0.3769
     106    C31     21.069473   14.209479   22.021188 C.3        1 MOL1         0.2972
     107    H51     20.556363   13.262281   22.231679 H          1 MOL1         0.0751
     108    O26     20.150018   15.202143   21.525882 O.3        1 MOL1        -0.3740
     109    C32     21.726377   14.747657   23.314991 C.3        1 MOL1         0.1003
     110    H52     22.457238   13.998935   23.647273 H          1 MOL1         0.0783
     111    O27     20.746986   14.938134   24.347818 O.3        1 MOL1        -0.5519
     112    H53     19.960519   15.350743   23.924980 H          1 MOL1         0.3769
     113    C33     22.486221   16.065535   23.045373 C.3        1 MOL1         0.1053
     114    H54     21.757609   16.835527   22.770794 H          1 MOL1         0.0783
     115    O28     23.167886   16.453971   24.240868 O.3        1 MOL1        -0.5519
     116    H55     22.505492   16.331707   24.957810 H          1 MOL1         0.3769
     117    C34     23.480289   15.920278   21.867235 C.3        1 MOL1         0.1018
     118    H56     24.364871   15.367596   22.210672 H          1 MOL1         0.0783
     119    C35     22.840549   15.210515   20.640407 C.3        1 MOL1         0.1043
     120    H57     22.141792   15.920708   20.185184 H          1 MOL1         0.0783
     121    O29     22.107698   14.020208   21.034370 O.3        1 MOL1        -0.3740
     122    C36     23.870124   14.819381   19.553572 C.3        1 MOL1         0.0138
     123    H58     24.243254   15.738312   19.081165 H          1 MOL1         0.0794
     124    H59     23.358275   14.237540   18.775323 H          1 MOL1         0.0794
     125    O30     24.966489   14.072431   20.095330 O.3        1 MOL1        -0.5486
     126    H60     25.539814   13.799048   19.346240 H          1 MOL1         0.3769
     127    C1      18.365101   18.541287   24.279085 C.2        1 MOL1         0.6021
     128    O1      17.891351   19.649518   24.435033 O.co2      1 MOL1        -0.6904
     129    O2      17.852056   17.532467   24.724667 O.co2      1 MOL1        -0.6904
     130    C2      19.539242   18.367086   23.318334 C.3        1 MOL1        -0.2102
     131    H1      19.615665   17.299204   23.094687 H          1 MOL1         0.0687
     132    H2      20.451422   18.658594   23.851231 H          1 MOL1         0.0687
     133    C3      19.421159   19.156266   21.989383 C.3        1 MOL1        -0.1974
     134    H3      18.487444   18.887720   21.479484 H          1 MOL1         0.0689
     135    H4      19.369395   20.230664   22.210731 H          1 MOL1         0.0689
     136    C4      20.614252   18.873784   21.055453 C.3        1 MOL1        -0.2987
     137    H5      20.698263   17.803392   20.838498 H          1 MOL1         0.0700
     138    H6      20.498400   19.403203   20.102102 H          1 MOL1         0.0700
     139    H7      21.551860   19.198489   21.523601 H          1 MOL1         0.0700
@<TRIPOS>BOND
    1     1     2    1
    2     1     3    1
    3     1     4    1
    4     4     5    1
    5     4     6    1
    6     6     7    1
    7     4     8    1
    8     8     9    1
    9     8    10    1
   10    10    11    1
   11     8    12    1
   12    12    13    1
   13    12    14    1
   14    14    15    1
   15     1    16    1
   16    14    16    1
   17    14    17    1
   18    17    18    1
   19    17    19    1
   20    17    20    1
   21    20    21    1
   22    22    23    1
   23    22    24    1
   24    22    25    1
   25    25    26    1
   26    25    27    1
   27    27    28    1
   28    25    29    1
   29    29    30    1
   30    29    31    1
   31    31    32    1
   32     3    33    1
   33    29    33    1
   34    33    34    1
   35    33    35    1
   36    35    36    1
   37    22    37    1
   38    35    37    1
   39    35    38    1
   40    38    39    1
   41    38    40    1
   42    38    41    1
   43    41    42    1
   44    43    44    1
   45    43    45    1
   46    43    46    1
   47    46    47    1
   48    46    48    1
   49    48    49    1
   50    46    50    1
   51    50    51    1
   52    50    52    1
   53    52    53    1
   54    24    54    1
   55    50    54    1
   56    54    55    1
   57    54    56    1
   58    56    57    1
   59    43    58    1
   60    56    58    1
   61    56    59    1
   62    59    60    1
   63    59    61    1
   64    59    62    1
   65    62    63    1
   66    64    65    1
   67    64    66    1
   68    64    67    1
   69    67    68    1
   70    67    69    1
   71    69    70    1
   72    67    71    1
   73    71    72    1
   74    71    73    1
   75    73    74    1
   76    45    75    1
   77    71    75    1
   78    75    76    1
   79    75    77    1
   80    77    78    1
   81    64    79    1
   82    77    79    1
   83    77    80    1
   84    80    81    1
   85    80    82    1
   86    80    83    1
   87    83    84    1
   88    85    86    1
   89    85    87    1
   90    85    88    1
   91    88    89    1
   92    88    90    1
   93    90    91    1
   94    88    92    1
   95    92    93    1
   96    92    94    1
   97    94    95    1
   98    66    96    1
   99    92    96    1
  100    96    97    1
  101    96    98    1
  102    98    99    1
  103    85   100    1
  104    98   100    1
  105    98   101    1
  106   101   102    1
  107   101   103    1
  108   101   104    1
  109   104   105    1
  110   106   107    1
  111    12   108    1
  112   106   108    1
  113   106   109    1
  114   109   110    1
  115   109   111    1
  116   111   112    1
  117   109   113    1
  118   113   114    1
  119   113   115    1
  120   115   116    1
  121    87   117    1
  122   113   117    1
  123   117   118    1
  124   117   119    1
  125   119   120    1
  126   106   121    1
  127   119   121    1
  128   119   122    1
  129   122   123    1
  130   122   124    1
  131   122   125    1
  132   125   126    1
  133   127   128    1
  134   127   129    2
  135   127   130    1
  136   130   131    1
  137   130   132    1
  138   130   133    1
  139   133   134    1
  140   133   135    1
  141   133   136    1
  142   136   137    1
  143   136   138    1
  144   136   139    1
@<TRIPOS>SUBSTRUCTURE
       1 MOL1            1 RESIDUE      1      MOL     
       2 MOL1          139 RESIDUE      1      MOL     
@<SCITEGIC>MOL_PROPERTY
feprocess Rank
SciTegic.value.IntegerValue
23

@<SCITEGIC>MOL_PROPERTY
Conf_Id
SciTegic.value.IntegerValue
789

@<SCITEGIC>MOL_PROPERTY
Probability
SciTegic.value.DoubleValue
0.04

@<SCITEGIC>MOL_PROPERTY
G
SciTegic.value.DoubleValue
486.558

@<SCITEGIC>MOL_PROPERTY
E
SciTegic.value.DoubleValue
309.714

@<SCITEGIC>MOL_PROPERTY
-TS
SciTegic.value.DoubleValue
176.845

@<SCITEGIC>MOL_PROPERTY
U+W
SciTegic.value.DoubleValue
187.202

@<SCITEGIC>MOL_PROPERTY
U
SciTegic.value.DoubleValue
263.745

@<SCITEGIC>MOL_PROPERTY
W
SciTegic.value.DoubleValue
-76.542

@<SCITEGIC>MOL_PROPERTY
W(PB)
SciTegic.value.DoubleValue
-82.498

@<SCITEGIC>MOL_PROPERTY
W(SA)
SciTegic.value.DoubleValue
5.956

@<SCITEGIC>MOL_PROPERTY
Valence
SciTegic.value.DoubleValue
151.714

@<SCITEGIC>MOL_PROPERTY
Coulomb
SciTegic.value.DoubleValue
134.538

@<SCITEGIC>MOL_PROPERTY
VdW
SciTegic.value.DoubleValue
-22.508

@<SCITEGIC>MOL_PROPERTY
VdW6
SciTegic.value.DoubleValue
-176.660

@<SCITEGIC>MOL_PROPERTY
VdW12
SciTegic.value.DoubleValue
154.153

@<SCITEGIC>MOL_PROPERTY
Bond
SciTegic.value.DoubleValue
4.956

@<SCITEGIC>MOL_PROPERTY
Angle
SciTegic.value.DoubleValue
15.376

@<SCITEGIC>MOL_PROPERTY
Pdih
SciTegic.value.DoubleValue
131.327

@<SCITEGIC>MOL_PROPERTY
Idih
SciTegic.value.DoubleValue
0.056

@<SCITEGIC>MOL_PROPERTY
Tether
SciTegic.value.DoubleValue
0.000

@<TRIPOS>MOLECULE
CD_guest-6_fast_vm2_rndm.mol2 : feprocess host+ligand conformer 24
         139         144           2
SMALL
USER_CHARGES
 
@<TRIPOS>ATOM
       1    C1      16.256761   15.238087   20.398126 C.3        1 MOL1         0.2972
       2    H1      15.217574   15.184160   20.049432 H          1 MOL1         0.0751
       3    O1      16.601656   16.576167   20.812951 O.3        1 MOL1        -0.3740
       4    C2      16.512757   14.232955   21.551903 C.3        1 MOL1         0.1003
       5    H2      16.338764   13.230547   21.139612 H          1 MOL1         0.0783
       6    O2      15.614425   14.436743   22.653047 O.3        1 MOL1        -0.5519
       7    H3      15.844105   15.317228   23.045515 H          1 MOL1         0.3769
       8    C3      17.984510   14.292106   22.031999 C.3        1 MOL1         0.1053
       9    H4      18.139315   15.246131   22.556042 H          1 MOL1         0.0783
      10    O3      18.212425   13.195608   22.923669 O.3        1 MOL1        -0.5519
      11    H5      17.534714   13.285445   23.627609 H          1 MOL1         0.3769
      12    C4      18.994268   14.224470   20.852999 C.3        1 MOL1         0.1018
      13    H6      19.122846   13.176662   20.554672 H          1 MOL1         0.0783
      14    C5      18.563536   15.058840   19.612881 C.3        1 MOL1         0.1043
      15    H7      18.740521   16.117042   19.836232 H          1 MOL1         0.0783
      16    O4      17.154775   14.868275   19.330872 O.3        1 MOL1        -0.3740
      17    C6      19.376989   14.742026   18.333419 C.3        1 MOL1         0.0138
      18    H8      20.384813   15.161795   18.447726 H          1 MOL1         0.0794
      19    H9      18.906764   15.260406   17.487332 H          1 MOL1         0.0794
      20    O5      19.466142   13.338068   18.060122 O.3        1 MOL1        -0.5486
      21    H10     20.105395   12.953351   18.697643 H          1 MOL1         0.3769
      22    C7      15.112098   20.213687   22.087963 C.3        1 MOL1         0.2972
      23    H11     14.516329   21.054572   22.464897 H          1 MOL1         0.0751
      24    O6      16.393712   20.654220   21.598596 O.3        1 MOL1        -0.3740
      25    C8      15.332710   19.175016   23.216084 C.3        1 MOL1         0.1003
      26    H12     14.347759   18.770494   23.481723 H          1 MOL1         0.0783
      27    O7      15.899824   19.799361   24.378437 O.3        1 MOL1        -0.5519
      28    H13     16.838003   19.479483   24.460100 H          1 MOL1         0.3769
      29    C9      16.202510   18.004105   22.695861 C.3        1 MOL1         0.1053
      30    H14     17.183655   18.405207   22.411758 H          1 MOL1         0.0783
      31    O8      16.372067   17.011226   23.715118 O.3        1 MOL1        -0.5519
      32    H15     17.188213   17.291741   24.212256 H          1 MOL1         0.3769
      33    C10     15.571063   17.375063   21.428746 C.3        1 MOL1         0.1018
      34    H16     14.698818   16.776290   21.721754 H          1 MOL1         0.0783
      35    C11     15.157304   18.448740   20.381489 C.3        1 MOL1         0.1043
      36    H17     16.081315   18.839202   19.941320 H          1 MOL1         0.0783
      37    O9      14.432402   19.545108   21.001487 O.3        1 MOL1        -0.3740
      38    C12     14.300771   17.885929   19.222343 C.3        1 MOL1         0.0138
      39    H18     14.938832   17.248126   18.595762 H          1 MOL1         0.0794
      40    H19     13.962354   18.722548   18.596428 H          1 MOL1         0.0794
      41    O10     13.178293   17.132924   19.697927 O.3        1 MOL1        -0.5486
      42    H20     12.639304   16.876163   18.918099 H          1 MOL1         0.3769
      43    C13     18.531133   24.031642   20.603724 C.3        1 MOL1         0.2972
      44    H21     18.926065   24.977682   20.213619 H          1 MOL1         0.0751
      45    O11     19.572144   23.203112   21.156216 O.3        1 MOL1        -0.3740
      46    C14     17.465535   24.278455   21.699338 C.3        1 MOL1         0.1003
      47    H22     16.644095   24.834535   21.228980 H          1 MOL1         0.0783
      48    O12     17.999152   25.060966   22.779297 O.3        1 MOL1        -0.5519
      49    H23     18.785367   24.574947   23.136134 H          1 MOL1         0.3769
      50    C15     16.889426   22.939445   22.227042 C.3        1 MOL1         0.1053
      51    H24     17.672536   22.431535   22.807825 H          1 MOL1         0.0783
      52    O13     15.768869   23.232882   23.067741 O.3        1 MOL1        -0.5519
      53    H25     16.091178   23.906575   23.705470 H          1 MOL1         0.3769
      54    C16     16.456519   21.992272   21.071680 C.3        1 MOL1         0.1018
      55    H26     15.481998   22.325657   20.693038 H          1 MOL1         0.0783
      56    C17     17.478822   21.944961   19.898995 C.3        1 MOL1         0.1043
      57    H27     18.358618   21.381150   20.233458 H          1 MOL1         0.0783
      58    O14     17.886172   23.289407   19.547231 O.3        1 MOL1        -0.3740
      59    C18     16.965646   21.227008   18.623293 C.3        1 MOL1         0.0138
      60    H28     17.222208   20.163128   18.700319 H          1 MOL1         0.0794
      61    H29     17.514480   21.618338   17.756352 H          1 MOL1         0.0794
      62    O15     15.554055   21.370525   18.416730 O.3        1 MOL1        -0.5486
      63    H30     15.100493   20.922943   19.166093 H          1 MOL1         0.3769
      64    C19     23.528865   22.794137   22.051482 C.3        1 MOL1         0.2972
      65    H31     24.596988   22.878031   22.290759 H          1 MOL1         0.0751
      66    O16     23.145899   21.426363   21.810583 O.3        1 MOL1        -0.3740
      67    C20     22.685490   23.336141   23.228197 C.3        1 MOL1         0.1003
      68    H32     22.934832   24.397680   23.354919 H          1 MOL1         0.0783
      69    O17     23.001280   22.624493   24.435084 O.3        1 MOL1        -0.5519
      70    H33     23.372891   21.752211   24.158445 H          1 MOL1         0.3769
      71    C21     21.175143   23.230763   22.916685 C.3        1 MOL1         0.1053
      72    H34     20.909833   22.166807   22.914888 H          1 MOL1         0.0783
      73    O18     20.432098   23.902292   23.938563 O.3        1 MOL1        -0.5519
      74    H35     20.812294   23.573692   24.783834 H          1 MOL1         0.3769
      75    C22     20.815820   23.824077   21.528906 C.3        1 MOL1         0.1018
      76    H36     20.726154   24.913777   21.622789 H          1 MOL1         0.0783
      77    C23     21.833615   23.451136   20.412239 C.3        1 MOL1         0.1043
      78    H37     21.638659   22.407188   20.138828 H          1 MOL1         0.0783
      79    O19     23.202394   23.565752   20.878623 O.3        1 MOL1        -0.3740
      80    C24     21.686137   24.292683   19.121297 C.3        1 MOL1         0.0138
      81    H38     20.710197   24.076877   18.665894 H          1 MOL1         0.0794
      82    H39     22.452735   23.965978   18.405996 H          1 MOL1         0.0794
      83    O20     21.817471   25.699504   19.364369 O.3        1 MOL1        -0.5486
      84    H40     21.046007   25.997886   19.888239 H          1 MOL1         0.3769
      85    C25     24.844424   17.711399   20.912770 C.3        1 MOL1         0.2972
      86    H41     25.514303   16.908830   20.578551 H          1 MOL1         0.0751
      87    O21     23.519426   17.210628   21.180080 O.3        1 MOL1        -0.3740
      88    C26     25.407123   18.426238   22.174688 C.3        1 MOL1         0.1003
      89    H42     26.375762   18.857835   21.890924 H          1 MOL1         0.0783
      90    O22     25.612892   17.517398   23.266183 O.3        1 MOL1        -0.5519
      91    H43     24.724319   17.152529   23.509097 H          1 MOL1         0.3769
      92    C27     24.480652   19.590653   22.604422 C.3        1 MOL1         0.1053
      93    H44     23.522872   19.164404   22.929832 H          1 MOL1         0.0783
      94    O23     25.081749   20.315956   23.682710 O.3        1 MOL1        -0.5519
      95    H45     25.421514   19.628363   24.297603 H          1 MOL1         0.3769
      96    C28     24.209717   20.542320   21.413747 C.3        1 MOL1         0.1018
      97    H46     25.134116   21.089226   21.185630 H          1 MOL1         0.0783
      98    C29     23.756169   19.767899   20.145584 C.3        1 MOL1         0.1043
      99    H47     22.769764   19.328483   20.343539 H          1 MOL1         0.0783
     100    O24     24.714987   18.712295   19.877652 O.3        1 MOL1        -0.3740
     101    C30     23.613895   20.636188   18.868028 C.3        1 MOL1         0.0138
     102    H48     22.581697   21.001824   18.809052 H          1 MOL1         0.0794
     103    H49     23.767548   19.993210   17.991146 H          1 MOL1         0.0794
     104    O25     24.522354   21.744290   18.827933 O.3        1 MOL1        -0.5486
     105    H50     24.213189   22.400645   19.495474 H          1 MOL1         0.3769
     106    C31     21.196594   13.897498   21.887247 C.3        1 MOL1         0.2972
     107    H51     20.750373   12.922860   22.122733 H          1 MOL1         0.0751
     108    O26     20.232939   14.801182   21.309483 O.3        1 MOL1        -0.3740
     109    C32     21.807104   14.528613   23.163728 C.3        1 MOL1         0.1003
     110    H52     22.630648   13.876133   23.481020 H          1 MOL1         0.0783
     111    O27     20.852966   14.614146   24.232315 O.3        1 MOL1        -0.5519
     112    H53     20.251451   15.384471   24.033289 H          1 MOL1         0.3769
     113    C33     22.397824   15.918367   22.844089 C.3        1 MOL1         0.1053
     114    H54     21.568061   16.572286   22.548991 H          1 MOL1         0.0783
     115    O28     23.041169   16.440655   24.011968 O.3        1 MOL1        -0.5519
     116    H55     22.357293   16.382008   24.716588 H          1 MOL1         0.3769
     117    C34     23.394860   15.856817   21.660184 C.3        1 MOL1         0.1018
     118    H56     24.350268   15.455318   22.022454 H          1 MOL1         0.0783
     119    C35     22.868457   14.999219   20.470517 C.3        1 MOL1         0.1043
     120    H57     22.097808   15.586412   19.954826 H          1 MOL1         0.0783
     121    O29     22.277089   13.756249   20.938711 O.3        1 MOL1        -0.3740
     122    C36     23.956054   14.662500   19.422817 C.3        1 MOL1         0.0138
     123    H58     24.213396   15.582407   18.880616 H          1 MOL1         0.0794
     124    H59     23.532258   13.961067   18.691669 H          1 MOL1         0.0794
     125    O30     25.132869   14.106747   20.022792 O.3        1 MOL1        -0.5486
     126    H60     25.741533   13.844241   19.297982 H          1 MOL1         0.3769
     127    C1      19.394331   18.244678   24.099903 C.2        1 MOL1         0.6021
     128    O1      18.464255   18.758055   24.691015 O.co2      1 MOL1        -0.6904
     129    O2      19.527221   17.040082   24.005961 O.co2      1 MOL1        -0.6904
     130    C2      20.392573   19.160079   23.391160 C.3        1 MOL1        -0.2102
     131    H1      21.353341   18.643749   23.321943 H          1 MOL1         0.0687
     132    H2      20.552535   20.030513   24.037752 H          1 MOL1         0.0687
     133    C3      19.936126   19.637798   21.988095 C.3        1 MOL1        -0.1974
     134    H3      18.966737   20.141461   22.086162 H          1 MOL1         0.0689
     135    H4      20.643892   20.381938   21.604772 H          1 MOL1         0.0689
     136    C4      19.828652   18.489567   20.965741 C.3        1 MOL1        -0.2987
     137    H5      19.132960   17.721321   21.323386 H          1 MOL1         0.0700
     138    H6      19.463286   18.859721   20.000020 H          1 MOL1         0.0700
     139    H7      20.803059   18.012547   20.805420 H          1 MOL1         0.0700
@<TRIPOS>BOND
    1     1     2    1
    2     1     3    1
    3     1     4    1
    4     4     5    1
    5     4     6    1
    6     6     7    1
    7     4     8    1
    8     8     9    1
    9     8    10    1
   10    10    11    1
   11     8    12    1
   12    12    13    1
   13    12    14    1
   14    14    15    1
   15     1    16    1
   16    14    16    1
   17    14    17    1
   18    17    18    1
   19    17    19    1
   20    17    20    1
   21    20    21    1
   22    22    23    1
   23    22    24    1
   24    22    25    1
   25    25    26    1
   26    25    27    1
   27    27    28    1
   28    25    29    1
   29    29    30    1
   30    29    31    1
   31    31    32    1
   32     3    33    1
   33    29    33    1
   34    33    34    1
   35    33    35    1
   36    35    36    1
   37    22    37    1
   38    35    37    1
   39    35    38    1
   40    38    39    1
   41    38    40    1
   42    38    41    1
   43    41    42    1
   44    43    44    1
   45    43    45    1
   46    43    46    1
   47    46    47    1
   48    46    48    1
   49    48    49    1
   50    46    50    1
   51    50    51    1
   52    50    52    1
   53    52    53    1
   54    24    54    1
   55    50    54    1
   56    54    55    1
   57    54    56    1
   58    56    57    1
   59    43    58    1
   60    56    58    1
   61    56    59    1
   62    59    60    1
   63    59    61    1
   64    59    62    1
   65    62    63    1
   66    64    65    1
   67    64    66    1
   68    64    67    1
   69    67    68    1
   70    67    69    1
   71    69    70    1
   72    67    71    1
   73    71    72    1
   74    71    73    1
   75    73    74    1
   76    45    75    1
   77    71    75    1
   78    75    76    1
   79    75    77    1
   80    77    78    1
   81    64    79    1
   82    77    79    1
   83    77    80    1
   84    80    81    1
   85    80    82    1
   86    80    83    1
   87    83    84    1
   88    85    86    1
   89    85    87    1
   90    85    88    1
   91    88    89    1
   92    88    90    1
   93    90    91    1
   94    88    92    1
   95    92    93    1
   96    92    94    1
   97    94    95    1
   98    66    96    1
   99    92    96    1
  100    96    97    1
  101    96    98    1
  102    98    99    1
  103    85   100    1
  104    98   100    1
  105    98   101    1
  106   101   102    1
  107   101   103    1
  108   101   104    1
  109   104   105    1
  110   106   107    1
  111    12   108    1
  112   106   108    1
  113   106   109    1
  114   109   110    1
  115   109   111    1
  116   111   112    1
  117   109   113    1
  118   113   114    1
  119   113   115    1
  120   115   116    1
  121    87   117    1
  122   113   117    1
  123   117   118    1
  124   117   119    1
  125   119   120    1
  126   106   121    1
  127   119   121    1
  128   119   122    1
  129   122   123    1
  130   122   124    1
  131   122   125    1
  132   125   126    1
  133   127   128    1
  134   127   129    2
  135   127   130    1
  136   130   131    1
  137   130   132    1
  138   130   133    1
  139   133   134    1
  140   133   135    1
  141   133   136    1
  142   136   137    1
  143   136   138    1
  144   136   139    1
@<TRIPOS>SUBSTRUCTURE
       1 MOL1            1 RESIDUE      1      MOL     
       2 MOL1          139 RESIDUE      1      MOL     
@<SCITEGIC>MOL_PROPERTY
feprocess Rank
SciTegic.value.IntegerValue
24

@<SCITEGIC>MOL_PROPERTY
Conf_Id
SciTegic.value.IntegerValue
103

@<SCITEGIC>MOL_PROPERTY
Probability
SciTegic.value.DoubleValue
0.04

@<SCITEGIC>MOL_PROPERTY
G
SciTegic.value.DoubleValue
486.581

@<SCITEGIC>MOL_PROPERTY
E
SciTegic.value.DoubleValue
309.041

@<SCITEGIC>MOL_PROPERTY
-TS
SciTegic.value.DoubleValue
177.540

@<SCITEGIC>MOL_PROPERTY
U+W
SciTegic.value.DoubleValue
186.530

@<SCITEGIC>MOL_PROPERTY
U
SciTegic.value.DoubleValue
258.577

@<SCITEGIC>MOL_PROPERTY
W
SciTegic.value.DoubleValue
-72.047

@<SCITEGIC>MOL_PROPERTY
W(PB)
SciTegic.value.DoubleValue
-78.007

@<SCITEGIC>MOL_PROPERTY
W(SA)
SciTegic.value.DoubleValue
5.960

@<SCITEGIC>MOL_PROPERTY
Valence
SciTegic.value.DoubleValue
151.559

@<SCITEGIC>MOL_PROPERTY
Coulomb
SciTegic.value.DoubleValue
128.899

@<SCITEGIC>MOL_PROPERTY
VdW
SciTegic.value.DoubleValue
-21.882

@<SCITEGIC>MOL_PROPERTY
VdW6
SciTegic.value.DoubleValue
-178.009

@<SCITEGIC>MOL_PROPERTY
VdW12
SciTegic.value.DoubleValue
156.128

@<SCITEGIC>MOL_PROPERTY
Bond
SciTegic.value.DoubleValue
5.151

@<SCITEGIC>MOL_PROPERTY
Angle
SciTegic.value.DoubleValue
15.541

@<SCITEGIC>MOL_PROPERTY
Pdih
SciTegic.value.DoubleValue
130.861

@<SCITEGIC>MOL_PROPERTY
Idih
SciTegic.value.DoubleValue
0.007

@<SCITEGIC>MOL_PROPERTY
Tether
SciTegic.value.DoubleValue
0.000

@<TRIPOS>MOLECULE
CD_guest-6_fast_vm2_rndm.mol2 : feprocess host+ligand conformer 25
         139         144           2
SMALL
USER_CHARGES
 
@<TRIPOS>ATOM
       1    C1      16.134754   15.158636   20.430951 C.3        1 MOL1         0.2972
       2    H1      15.072302   15.093146   20.163524 H          1 MOL1         0.0751
       3    O1      16.501904   16.499360   20.819071 O.3        1 MOL1        -0.3740
       4    C2      16.498310   14.158432   21.558141 C.3        1 MOL1         0.1003
       5    H2      16.348897   13.150724   21.148634 H          1 MOL1         0.0783
       6    O2      15.661349   14.309713   22.713895 O.3        1 MOL1        -0.5519
       7    H3      15.865973   15.198756   23.099723 H          1 MOL1         0.3769
       8    C3      17.991632   14.295190   21.942513 C.3        1 MOL1         0.1053
       9    H4      18.138022   15.284864   22.398047 H          1 MOL1         0.0783
      10    O3      18.306200   13.266226   22.888406 O.3        1 MOL1        -0.5519
      11    H5      17.514444   13.206321   23.470756 H          1 MOL1         0.3769
      12    C4      18.917294   14.195882   20.694751 C.3        1 MOL1         0.1018
      13    H6      19.023829   13.141019   20.412959 H          1 MOL1         0.0783
      14    C5      18.379970   15.000989   19.475377 C.3        1 MOL1         0.1043
      15    H7      18.559692   16.065121   19.669102 H          1 MOL1         0.0783
      16    O4      16.955146   14.794007   19.301226 O.3        1 MOL1        -0.3740
      17    C6      19.100879   14.670236   18.145780 C.3        1 MOL1         0.0138
      18    H8      20.124601   15.065423   18.196463 H          1 MOL1         0.0794
      19    H9      18.589148   15.202134   17.332840 H          1 MOL1         0.0794
      20    O5      19.135049   13.264626   17.867825 O.3        1 MOL1        -0.5486
      21    H10     19.801961   12.861051   18.463524 H          1 MOL1         0.3769
      22    C7      15.221820   20.142661   22.235850 C.3        1 MOL1         0.2972
      23    H11     14.689023   21.000948   22.662607 H          1 MOL1         0.0751
      24    O6      16.464092   20.539045   21.628267 O.3        1 MOL1        -0.3740
      25    C8      15.519045   19.102731   23.344256 C.3        1 MOL1         0.1003
      26    H12     14.551746   18.766674   23.739163 H          1 MOL1         0.0783
      27    O7      16.283299   19.683812   24.411765 O.3        1 MOL1        -0.5519
      28    H13     17.179212   19.915114   24.034892 H          1 MOL1         0.3769
      29    C9      16.254656   17.871358   22.769670 C.3        1 MOL1         0.1053
      30    H14     17.259007   18.190070   22.463199 H          1 MOL1         0.0783
      31    O8      16.359866   16.875902   23.792661 O.3        1 MOL1        -0.5519
      32    H15     16.770777   17.342466   24.554965 H          1 MOL1         0.3769
      33    C10     15.527737   17.290941   21.527857 C.3        1 MOL1         0.1018
      34    H16     14.669905   16.693142   21.862554 H          1 MOL1         0.0783
      35    C11     15.055836   18.388115   20.531964 C.3        1 MOL1         0.1043
      36    H17     15.946554   18.759206   20.013650 H          1 MOL1         0.0783
      37    O9      14.420228   19.493778   21.224498 O.3        1 MOL1        -0.3740
      38    C12     14.086473   17.861764   19.446842 C.3        1 MOL1         0.0138
      39    H18     14.650040   17.213746   18.761980 H          1 MOL1         0.0794
      40    H19     13.719286   18.714337   18.859918 H          1 MOL1         0.0794
      41    O10     12.988085   17.134281   20.010393 O.3        1 MOL1        -0.5486
      42    H20     12.378310   16.899353   19.277155 H          1 MOL1         0.3769
      43    C13     18.565935   23.929496   20.537654 C.3        1 MOL1         0.2972
      44    H21     18.939671   24.871532   20.116152 H          1 MOL1         0.0751
      45    O11     19.627309   23.138064   21.101348 O.3        1 MOL1        -0.3740
      46    C14     17.506769   24.182982   21.639204 C.3        1 MOL1         0.1003
      47    H22     16.667794   24.706224   21.162310 H          1 MOL1         0.0783
      48    O12     18.030066   25.008338   22.691852 O.3        1 MOL1        -0.5519
      49    H23     18.832837   24.551075   23.050448 H          1 MOL1         0.3769
      50    C15     16.966348   22.846703   22.211606 C.3        1 MOL1         0.1053
      51    H24     17.770769   22.363493   22.785032 H          1 MOL1         0.0783
      52    O13     15.861211   23.147451   23.070877 O.3        1 MOL1        -0.5519
      53    H25     16.190173   23.845441   23.678529 H          1 MOL1         0.3769
      54    C16     16.525765   21.870079   21.083025 C.3        1 MOL1         0.1018
      55    H26     15.550451   22.192831   20.697704 H          1 MOL1         0.0783
      56    C17     17.548124   21.802082   19.912941 C.3        1 MOL1         0.1043
      57    H27     18.437543   21.269338   20.271543 H          1 MOL1         0.0783
      58    O14     17.926427   23.141241   19.511208 O.3        1 MOL1        -0.3740
      59    C18     17.049506   21.028216   18.665605 C.3        1 MOL1         0.0138
      60    H28     17.267131   19.962681   18.811069 H          1 MOL1         0.0794
      61    H29     17.636333   21.351217   17.795509 H          1 MOL1         0.0794
      62    O15     15.650050   21.208198   18.411070 O.3        1 MOL1        -0.5486
      63    H30     15.162806   20.837249   19.179219 H          1 MOL1         0.3769
      64    C19     23.596797   22.885819   21.971083 C.3        1 MOL1         0.2972
      65    H31     24.664235   23.004091   22.197597 H          1 MOL1         0.0751
      66    O16     23.240330   21.505145   21.771172 O.3        1 MOL1        -0.3740
      67    C20     22.748309   23.434721   23.140297 C.3        1 MOL1         0.1003
      68    H32     22.955953   24.509282   23.225871 H          1 MOL1         0.0783
      69    O17     23.106835   22.781799   24.368492 O.3        1 MOL1        -0.5519
      70    H33     23.417751   21.873770   24.130332 H          1 MOL1         0.3769
      71    C21     21.240350   23.259987   22.849126 C.3        1 MOL1         0.1053
      72    H34     21.011540   22.185991   22.879909 H          1 MOL1         0.0783
      73    O18     20.485457   23.937141   23.859171 O.3        1 MOL1        -0.5519
      74    H35     20.856518   23.614140   24.710356 H          1 MOL1         0.3769
      75    C22     20.852912   23.803515   21.448069 C.3        1 MOL1         0.1018
      76    H36     20.730159   24.892764   21.512693 H          1 MOL1         0.0783
      77    C23     21.872218   23.436362   20.329686 C.3        1 MOL1         0.1043
      78    H37     21.717381   22.378766   20.080206 H          1 MOL1         0.0783
      79    O19     23.239424   23.616468   20.781184 O.3        1 MOL1        -0.3740
      80    C24     21.675882   24.240867   19.022811 C.3        1 MOL1         0.0138
      81    H38     20.746522   23.905013   18.543135 H          1 MOL1         0.0794
      82    H39     22.500547   24.003037   18.337460 H          1 MOL1         0.0794
      83    O20     21.617468   25.652515   19.261380 O.3        1 MOL1        -0.5486
      84    H40     21.571484   26.100853   18.388758 H          1 MOL1         0.3769
      85    C25     24.917859   17.767834   21.008277 C.3        1 MOL1         0.2972
      86    H41     25.600844   16.951361   20.744717 H          1 MOL1         0.0751
      87    O21     23.552915   17.300515   21.082897 O.3        1 MOL1        -0.3740
      88    C26     25.347711   18.440841   22.344057 C.3        1 MOL1         0.1003
      89    H42     26.357659   18.840361   22.184103 H          1 MOL1         0.0783
      90    O22     25.395359   17.509967   23.435267 O.3        1 MOL1        -0.5519
      91    H43     24.458018   17.251933   23.627999 H          1 MOL1         0.3769
      92    C27     24.422092   19.633777   22.684153 C.3        1 MOL1         0.1053
      93    H44     23.416786   19.245852   22.897334 H          1 MOL1         0.0783
      94    O23     24.929155   20.325603   23.830764 O.3        1 MOL1        -0.5519
      95    H45     25.147570   19.622641   24.481932 H          1 MOL1         0.3769
      96    C28     24.326070   20.608553   21.486121 C.3        1 MOL1         0.1018
      97    H46     25.284123   21.136168   21.390216 H          1 MOL1         0.0783
      98    C29     24.015108   19.875147   20.151759 C.3        1 MOL1         0.1043
      99    H47     22.999819   19.465688   20.207230 H          1 MOL1         0.0783
     100    O24     24.961341   18.788753   19.985245 O.3        1 MOL1        -0.3740
     101    C30     24.056246   20.775100   18.889014 C.3        1 MOL1         0.0138
     102    H48     23.050263   21.178802   18.718875 H          1 MOL1         0.0794
     103    H49     24.294682   20.146852   18.020459 H          1 MOL1         0.0794
     104    O25     24.993377   21.854446   18.987683 O.3        1 MOL1        -0.5486
     105    H50     24.582406   22.539591   19.564774 H          1 MOL1         0.3769
     106    C31     21.126170   14.009955   21.789323 C.3        1 MOL1         0.2972
     107    H51     20.707333   13.032882   22.061005 H          1 MOL1         0.0751
     108    O26     20.199301   14.784723   21.000408 O.3        1 MOL1        -0.3740
     109    C32     21.520078   14.811330   23.060578 C.3        1 MOL1         0.1003
     110    H52     22.287939   14.228423   23.585107 H          1 MOL1         0.0783
     111    O27     20.396822   14.991123   23.936879 O.3        1 MOL1        -0.5519
     112    H53     19.722348   14.314699   23.694304 H          1 MOL1         0.3769
     113    C33     22.142236   16.175328   22.670107 C.3        1 MOL1         0.1053
     114    H54     21.360792   16.775260   22.188622 H          1 MOL1         0.0783
     115    O28     22.619535   16.858980   23.834670 O.3        1 MOL1        -0.5519
     116    H55     21.848001   17.415408   24.133188 H          1 MOL1         0.3769
     117    C34     23.302380   15.999284   21.656693 C.3        1 MOL1         0.1018
     118    H56     24.175738   15.605975   22.190710 H          1 MOL1         0.0783
     119    C35     22.929351   15.043714   20.488652 C.3        1 MOL1         0.1043
     120    H57     22.207595   15.562957   19.843746 H          1 MOL1         0.0783
     121    O29     22.323887   13.831459   21.004776 O.3        1 MOL1        -0.3740
     122    C36     24.134014   14.644636   19.601567 C.3        1 MOL1         0.0138
     123    H58     24.502040   15.539786   19.082360 H          1 MOL1         0.0794
     124    H59     23.778991   13.949250   18.829459 H          1 MOL1         0.0794
     125    O30     25.195875   14.038059   20.351292 O.3        1 MOL1        -0.5486
     126    H60     25.546481   14.697984   20.983840 H          1 MOL1         0.3769
     127    C1      19.901760   19.410764   23.182872 C.2        1 MOL1         0.6021
     128    O1      18.894230   20.028483   23.469257 O.co2      1 MOL1        -0.6904
     129    O2      20.552354   18.761030   23.979476 O.co2      1 MOL1        -0.6904
     130    C2      20.388392   19.453965   21.736431 C.3        1 MOL1        -0.2102
     131    H1      21.426974   19.112910   21.728537 H          1 MOL1         0.0687
     132    H2      20.389693   20.498130   21.408888 H          1 MOL1         0.0687
     133    C3      19.547480   18.591499   20.764716 C.3        1 MOL1        -0.1974
     134    H3      19.491055   17.563482   21.144847 H          1 MOL1         0.0689
     135    H4      18.519246   18.970587   20.736094 H          1 MOL1         0.0689
     136    C4      20.141397   18.594505   19.341539 C.3        1 MOL1        -0.2987
     137    H5      21.139171   18.136860   19.336010 H          1 MOL1         0.0700
     138    H6      19.503358   18.026374   18.653380 H          1 MOL1         0.0700
     139    H7      20.229064   19.618456   18.956135 H          1 MOL1         0.0700
@<TRIPOS>BOND
    1     1     2    1
    2     1     3    1
    3     1     4    1
    4     4     5    1
    5     4     6    1
    6     6     7    1
    7     4     8    1
    8     8     9    1
    9     8    10    1
   10    10    11    1
   11     8    12    1
   12    12    13    1
   13    12    14    1
   14    14    15    1
   15     1    16    1
   16    14    16    1
   17    14    17    1
   18    17    18    1
   19    17    19    1
   20    17    20    1
   21    20    21    1
   22    22    23    1
   23    22    24    1
   24    22    25    1
   25    25    26    1
   26    25    27    1
   27    27    28    1
   28    25    29    1
   29    29    30    1
   30    29    31    1
   31    31    32    1
   32     3    33    1
   33    29    33    1
   34    33    34    1
   35    33    35    1
   36    35    36    1
   37    22    37    1
   38    35    37    1
   39    35    38    1
   40    38    39    1
   41    38    40    1
   42    38    41    1
   43    41    42    1
   44    43    44    1
   45    43    45    1
   46    43    46    1
   47    46    47    1
   48    46    48    1
   49    48    49    1
   50    46    50    1
   51    50    51    1
   52    50    52    1
   53    52    53    1
   54    24    54    1
   55    50    54    1
   56    54    55    1
   57    54    56    1
   58    56    57    1
   59    43    58    1
   60    56    58    1
   61    56    59    1
   62    59    60    1
   63    59    61    1
   64    59    62    1
   65    62    63    1
   66    64    65    1
   67    64    66    1
   68    64    67    1
   69    67    68    1
   70    67    69    1
   71    69    70    1
   72    67    71    1
   73    71    72    1
   74    71    73    1
   75    73    74    1
   76    45    75    1
   77    71    75    1
   78    75    76    1
   79    75    77    1
   80    77    78    1
   81    64    79    1
   82    77    79    1
   83    77    80    1
   84    80    81    1
   85    80    82    1
   86    80    83    1
   87    83    84    1
   88    85    86    1
   89    85    87    1
   90    85    88    1
   91    88    89    1
   92    88    90    1
   93    90    91    1
   94    88    92    1
   95    92    93    1
   96    92    94    1
   97    94    95    1
   98    66    96    1
   99    92    96    1
  100    96    97    1
  101    96    98    1
  102    98    99    1
  103    85   100    1
  104    98   100    1
  105    98   101    1
  106   101   102    1
  107   101   103    1
  108   101   104    1
  109   104   105    1
  110   106   107    1
  111    12   108    1
  112   106   108    1
  113   106   109    1
  114   109   110    1
  115   109   111    1
  116   111   112    1
  117   109   113    1
  118   113   114    1
  119   113   115    1
  120   115   116    1
  121    87   117    1
  122   113   117    1
  123   117   118    1
  124   117   119    1
  125   119   120    1
  126   106   121    1
  127   119   121    1
  128   119   122    1
  129   122   123    1
  130   122   124    1
  131   122   125    1
  132   125   126    1
  133   127   128    1
  134   127   129    2
  135   127   130    1
  136   130   131    1
  137   130   132    1
  138   130   133    1
  139   133   134    1
  140   133   135    1
  141   133   136    1
  142   136   137    1
  143   136   138    1
  144   136   139    1
@<TRIPOS>SUBSTRUCTURE
       1 MOL1            1 RESIDUE      1      MOL     
       2 MOL1          139 RESIDUE      1      MOL     
@<SCITEGIC>MOL_PROPERTY
feprocess Rank
SciTegic.value.IntegerValue
25

@<SCITEGIC>MOL_PROPERTY
Conf_Id
SciTegic.value.IntegerValue
357

@<SCITEGIC>MOL_PROPERTY
Probability
SciTegic.value.DoubleValue
0.04

@<SCITEGIC>MOL_PROPERTY
G
SciTegic.value.DoubleValue
486.619

@<SCITEGIC>MOL_PROPERTY
E
SciTegic.value.DoubleValue
309.217

@<SCITEGIC>MOL_PROPERTY
-TS
SciTegic.value.DoubleValue
177.402

@<SCITEGIC>MOL_PROPERTY
U+W
SciTegic.value.DoubleValue
186.706

@<SCITEGIC>MOL_PROPERTY
U
SciTegic.value.DoubleValue
261.934

@<SCITEGIC>MOL_PROPERTY
W
SciTegic.value.DoubleValue
-75.228

@<SCITEGIC>MOL_PROPERTY
W(PB)
SciTegic.value.DoubleValue
-81.115

@<SCITEGIC>MOL_PROPERTY
W(SA)
SciTegic.value.DoubleValue
5.887

@<SCITEGIC>MOL_PROPERTY
Valence
SciTegic.value.DoubleValue
149.843

@<SCITEGIC>MOL_PROPERTY
Coulomb
SciTegic.value.DoubleValue
135.126

@<SCITEGIC>MOL_PROPERTY
VdW
SciTegic.value.DoubleValue
-23.036

@<SCITEGIC>MOL_PROPERTY
VdW6
SciTegic.value.DoubleValue
-178.749

@<SCITEGIC>MOL_PROPERTY
VdW12
SciTegic.value.DoubleValue
155.714

@<SCITEGIC>MOL_PROPERTY
Bond
SciTegic.value.DoubleValue
5.085

@<SCITEGIC>MOL_PROPERTY
Angle
SciTegic.value.DoubleValue
15.312

@<SCITEGIC>MOL_PROPERTY
Pdih
SciTegic.value.DoubleValue
129.446

@<SCITEGIC>MOL_PROPERTY
Idih
SciTegic.value.DoubleValue
0.000

@<SCITEGIC>MOL_PROPERTY
Tether
SciTegic.value.DoubleValue
0.000

@<TRIPOS>MOLECULE
CD_guest-6_fast_vm2_rndm.mol2 : feprocess host+ligand conformer 26
         139         144           2
SMALL
USER_CHARGES
 
@<TRIPOS>ATOM
       1    C1      16.294695   15.285612   21.384011 C.3        1 MOL1         0.2972
       2    H1      15.229255   15.105890   21.190389 H          1 MOL1         0.0751
       3    O1      16.605065   16.692623   21.363070 O.3        1 MOL1        -0.3740
       4    C2      16.668539   14.738583   22.782064 C.3        1 MOL1         0.1003
       5    H2      16.459026   13.661376   22.790233 H          1 MOL1         0.0783
       6    O2      15.856530   15.387795   23.774666 O.3        1 MOL1        -0.5519
       7    H3      15.650777   16.287264   23.425956 H          1 MOL1         0.3769
       8    C3      18.182179   14.932918   23.055873 C.3        1 MOL1         0.1053
       9    H4      18.377844   16.011859   23.126167 H          1 MOL1         0.0783
      10    O3      18.555929   14.300018   24.283840 O.3        1 MOL1        -0.5519
      11    H5      19.219713   14.917055   24.691410 H          1 MOL1         0.3769
      12    C4      19.039176   14.357072   21.896564 C.3        1 MOL1         0.1018
      13    H6      18.981407   13.261440   21.932481 H          1 MOL1         0.0783
      14    C5      18.541831   14.863110   20.509907 C.3        1 MOL1         0.1043
      15    H7      18.741146   15.941214   20.458652 H          1 MOL1         0.0783
      16    O4      17.114268   14.632135   20.392522 O.3        1 MOL1        -0.3740
      17    C6      19.221335   14.213108   19.276232 C.3        1 MOL1         0.0138
      18    H8      20.095037   14.812388   18.996967 H          1 MOL1         0.0794
      19    H9      18.526055   14.265057   18.427627 H          1 MOL1         0.0794
      20    O5      19.617818   12.855384   19.496806 O.3        1 MOL1        -0.5486
      21    H10     20.464589   12.886018   20.000457 H          1 MOL1         0.3769
      22    C7      15.175449   20.359395   20.028133 C.3        1 MOL1         0.2972
      23    H11     14.650134   21.179195   19.521446 H          1 MOL1         0.0751
      24    O6      16.322778   20.836359   20.759920 O.3        1 MOL1        -0.3740
      25    C8      14.234151   19.598760   21.000729 C.3        1 MOL1         0.1003
      26    H12     13.431783   19.158047   20.394822 H          1 MOL1         0.0783
      27    O7      13.648416   20.473728   21.976310 O.3        1 MOL1        -0.5519
      28    H13     14.392387   20.873979   22.493617 H          1 MOL1         0.3769
      29    C9      14.997873   18.442192   21.691715 C.3        1 MOL1         0.1053
      30    H14     15.778168   18.877130   22.332107 H          1 MOL1         0.0783
      31    O8      14.090063   17.674207   22.487970 O.3        1 MOL1        -0.5519
      32    H15     13.544364   18.336077   22.968094 H          1 MOL1         0.3769
      33    C10     15.681945   17.529036   20.643512 C.3        1 MOL1         0.1018
      34    H16     14.904820   16.944649   20.133694 H          1 MOL1         0.0783
      35    C11     16.487053   18.337560   19.587325 C.3        1 MOL1         0.1043
      36    H17     17.356741   18.782234   20.083789 H          1 MOL1         0.0783
      37    O9      15.648916   19.396531   19.058108 O.3        1 MOL1        -0.3740
      38    C12     17.039429   17.497432   18.406090 C.3        1 MOL1         0.0138
      39    H18     18.040066   17.137294   18.675448 H          1 MOL1         0.0794
      40    H19     17.165169   18.157184   17.537269 H          1 MOL1         0.0794
      41    O10     16.207971   16.383065   18.060589 O.3        1 MOL1        -0.5486
      42    H20     16.348248   15.694372   18.751309 H          1 MOL1         0.3769
      43    C13     18.342410   24.092599   22.194553 C.3        1 MOL1         0.2972
      44    H21     18.724569   25.057299   22.552128 H          1 MOL1         0.0751
      45    O11     19.386202   23.111029   22.071766 O.3        1 MOL1        -0.3740
      46    C14     17.299030   23.530417   23.186197 C.3        1 MOL1         0.1003
      47    H22     16.450307   24.226265   23.210831 H          1 MOL1         0.0783
      48    O12     17.867652   23.421647   24.501313 O.3        1 MOL1        -0.5519
      49    H23     18.835621   23.255794   24.382371 H          1 MOL1         0.3769
      50    C15     16.782689   22.154452   22.703893 C.3        1 MOL1         0.1053
      51    H24     17.613424   21.439814   22.772564 H          1 MOL1         0.0783
      52    O13     15.717999   21.728922   23.559733 O.3        1 MOL1        -0.5519
      53    H25     16.052629   21.883015   24.471659 H          1 MOL1         0.3769
      54    C16     16.302845   22.198966   21.228044 C.3        1 MOL1         0.1018
      55    H26     15.295102   22.633841   21.196275 H          1 MOL1         0.0783
      56    C17     17.262718   22.992254   20.292843 C.3        1 MOL1         0.1043
      57    H27     18.138957   22.356984   20.110757 H          1 MOL1         0.0783
      58    O14     17.701991   24.231204   20.910075 O.3        1 MOL1        -0.3740
      59    C18     16.648986   23.322787   18.911573 C.3        1 MOL1         0.0138
      60    H28     16.560954   22.390632   18.337253 H          1 MOL1         0.0794
      61    H29     17.343145   23.976936   18.367014 H          1 MOL1         0.0794
      62    O15     15.363893   23.945928   19.026801 O.3        1 MOL1        -0.5486
      63    H30     15.073088   24.199294   18.123548 H          1 MOL1         0.3769
      64    C19     23.504576   22.625543   21.812791 C.3        1 MOL1         0.2972
      65    H31     24.586994   22.796229   21.746350 H          1 MOL1         0.0751
      66    O16     23.191572   21.220866   21.724773 O.3        1 MOL1        -0.3740
      67    C20     22.977463   23.154250   23.170956 C.3        1 MOL1         0.1003
      68    H32     23.207335   24.226430   23.222292 H          1 MOL1         0.0783
      69    O17     23.628650   22.476081   24.255421 O.3        1 MOL1        -0.5519
      70    H33     23.823807   21.564780   23.933468 H          1 MOL1         0.3769
      71    C21     21.443739   22.987549   23.273335 C.3        1 MOL1         0.1053
      72    H34     21.221269   21.912348   23.309419 H          1 MOL1         0.0783
      73    O18     20.966000   23.618707   24.466042 O.3        1 MOL1        -0.5519
      74    H35     21.583651   23.326390   25.172952 H          1 MOL1         0.3769
      75    C22     20.738184   23.592036   22.035623 C.3        1 MOL1         0.1018
      76    H36     20.795874   24.687136   22.088782 H          1 MOL1         0.0783
      77    C23     21.373387   23.094418   20.709164 C.3        1 MOL1         0.1043
      78    H37     21.171850   22.019154   20.634772 H          1 MOL1         0.0783
      79    O19     22.807585   23.310171   20.747136 O.3        1 MOL1        -0.3740
      80    C24     20.803704   23.750251   19.423526 C.3        1 MOL1         0.0138
      81    H38     19.961073   23.144775   19.067602 H          1 MOL1         0.0794
      82    H39     21.571722   23.712593   18.639473 H          1 MOL1         0.0794
      83    O20     20.370059   25.100766   19.619775 O.3        1 MOL1        -0.5486
      84    H40     19.486887   25.056461   20.054133 H          1 MOL1         0.3769
      85    C25     24.666495   17.622190   20.233187 C.3        1 MOL1         0.2972
      86    H41     25.206173   16.829714   19.698887 H          1 MOL1         0.0751
      87    O21     23.500050   17.109341   20.904356 O.3        1 MOL1        -0.3740
      88    C26     25.582455   18.339889   21.260652 C.3        1 MOL1         0.1003
      89    H42     26.393355   18.812637   20.691380 H          1 MOL1         0.0783
      90    O22     26.157619   17.421657   22.201873 O.3        1 MOL1        -0.5519
      91    H43     25.407321   17.008738   22.700158 H          1 MOL1         0.3769
      92    C27     24.801957   19.461303   21.991022 C.3        1 MOL1         0.1053
      93    H44     24.015968   18.995323   22.602621 H          1 MOL1         0.0783
      94    O23     25.698804   20.197293   22.829496 O.3        1 MOL1        -0.5519
      95    H45     26.217463   19.517000   23.313092 H          1 MOL1         0.3769
      96    C28     24.127183   20.419825   20.975918 C.3        1 MOL1         0.1018
      97    H46     24.910716   21.032223   20.510728 H          1 MOL1         0.0783
      98    C29     23.352249   19.656200   19.861514 C.3        1 MOL1         0.1043
      99    H47     22.469058   19.187089   20.313307 H          1 MOL1         0.0783
     100    O24     24.211646   18.629166   19.303334 O.3        1 MOL1        -0.3740
     101    C30     22.839907   20.536262   18.691604 C.3        1 MOL1         0.0138
     102    H48     21.827669   20.882204   18.930489 H          1 MOL1         0.0794
     103    H49     22.748998   19.905896   17.796948 H          1 MOL1         0.0794
     104    O25     23.683582   21.659896   18.412002 O.3        1 MOL1        -0.5486
     105    H50     23.549065   22.311692   19.139124 H          1 MOL1         0.3769
     106    C31     21.430195   13.841637   22.212039 C.3        1 MOL1         0.2972
     107    H51     21.035334   12.871847   22.540200 H          1 MOL1         0.0751
     108    O26     20.384621   14.833152   22.107057 O.3        1 MOL1        -0.3740
     109    C32     22.505390   14.336614   23.211352 C.3        1 MOL1         0.1003
     110    H52     23.357057   13.647950   23.141052 H          1 MOL1         0.0783
     111    O27     22.012037   14.314978   24.558979 O.3        1 MOL1        -0.5519
     112    H53     21.434461   15.115466   24.681091 H          1 MOL1         0.3769
     113    C33     22.993959   15.741441   22.788186 C.3        1 MOL1         0.1053
     114    H54     22.134237   16.417323   22.815723 H          1 MOL1         0.0783
     115    O28     23.996760   16.230975   23.684668 O.3        1 MOL1        -0.5519
     116    H55     23.478666   16.646841   24.426178 H          1 MOL1         0.3769
     117    C34     23.515411   15.733748   21.330635 C.3        1 MOL1         0.1018
     118    H56     24.523213   15.298509   21.309902 H          1 MOL1         0.0783
     119    C35     22.565708   14.974588   20.356850 C.3        1 MOL1         0.1043
     120    H57     21.706949   15.632559   20.174254 H          1 MOL1         0.0783
     121    O29     22.080737   13.728405   20.928085 O.3        1 MOL1        -0.3740
     122    C36     23.207367   14.669171   18.982673 C.3        1 MOL1         0.0138
     123    H58     23.327567   15.614365   18.436167 H          1 MOL1         0.0794
     124    H59     22.515933   14.042515   18.403438 H          1 MOL1         0.0794
     125    O30     24.477125   14.018805   19.114226 O.3        1 MOL1        -0.5486
     126    H60     24.787414   13.784397   18.212354 H          1 MOL1         0.3769
     127    C1      20.831253   17.486032   24.831654 C.2        1 MOL1         0.6021
     128    O1      22.001313   17.661308   25.113204 O.co2      1 MOL1        -0.6904
     129    O2      20.256273   16.431825   25.025679 O.co2      1 MOL1        -0.6904
     130    C2      20.104686   18.564958   24.031998 C.3        1 MOL1        -0.2102
     131    H1      20.411001   19.542909   24.421642 H          1 MOL1         0.0687
     132    H2      19.029789   18.461754   24.223291 H          1 MOL1         0.0687
     133    C3      20.383195   18.486211   22.510132 C.3        1 MOL1        -0.1974
     134    H3      21.456771   18.629460   22.331499 H          1 MOL1         0.0689
     135    H4      20.125106   17.485406   22.142450 H          1 MOL1         0.0689
     136    C4      19.580348   19.535764   21.721944 C.3        1 MOL1        -0.2987
     137    H5      19.858701   20.546737   22.033725 H          1 MOL1         0.0700
     138    H6      19.767452   19.444645   20.644919 H          1 MOL1         0.0700
     139    H7      18.505707   19.408885   21.899725 H          1 MOL1         0.0700
@<TRIPOS>BOND
    1     1     2    1
    2     1     3    1
    3     1     4    1
    4     4     5    1
    5     4     6    1
    6     6     7    1
    7     4     8    1
    8     8     9    1
    9     8    10    1
   10    10    11    1
   11     8    12    1
   12    12    13    1
   13    12    14    1
   14    14    15    1
   15     1    16    1
   16    14    16    1
   17    14    17    1
   18    17    18    1
   19    17    19    1
   20    17    20    1
   21    20    21    1
   22    22    23    1
   23    22    24    1
   24    22    25    1
   25    25    26    1
   26    25    27    1
   27    27    28    1
   28    25    29    1
   29    29    30    1
   30    29    31    1
   31    31    32    1
   32     3    33    1
   33    29    33    1
   34    33    34    1
   35    33    35    1
   36    35    36    1
   37    22    37    1
   38    35    37    1
   39    35    38    1
   40    38    39    1
   41    38    40    1
   42    38    41    1
   43    41    42    1
   44    43    44    1
   45    43    45    1
   46    43    46    1
   47    46    47    1
   48    46    48    1
   49    48    49    1
   50    46    50    1
   51    50    51    1
   52    50    52    1
   53    52    53    1
   54    24    54    1
   55    50    54    1
   56    54    55    1
   57    54    56    1
   58    56    57    1
   59    43    58    1
   60    56    58    1
   61    56    59    1
   62    59    60    1
   63    59    61    1
   64    59    62    1
   65    62    63    1
   66    64    65    1
   67    64    66    1
   68    64    67    1
   69    67    68    1
   70    67    69    1
   71    69    70    1
   72    67    71    1
   73    71    72    1
   74    71    73    1
   75    73    74    1
   76    45    75    1
   77    71    75    1
   78    75    76    1
   79    75    77    1
   80    77    78    1
   81    64    79    1
   82    77    79    1
   83    77    80    1
   84    80    81    1
   85    80    82    1
   86    80    83    1
   87    83    84    1
   88    85    86    1
   89    85    87    1
   90    85    88    1
   91    88    89    1
   92    88    90    1
   93    90    91    1
   94    88    92    1
   95    92    93    1
   96    92    94    1
   97    94    95    1
   98    66    96    1
   99    92    96    1
  100    96    97    1
  101    96    98    1
  102    98    99    1
  103    85   100    1
  104    98   100    1
  105    98   101    1
  106   101   102    1
  107   101   103    1
  108   101   104    1
  109   104   105    1
  110   106   107    1
  111    12   108    1
  112   106   108    1
  113   106   109    1
  114   109   110    1
  115   109   111    1
  116   111   112    1
  117   109   113    1
  118   113   114    1
  119   113   115    1
  120   115   116    1
  121    87   117    1
  122   113   117    1
  123   117   118    1
  124   117   119    1
  125   119   120    1
  126   106   121    1
  127   119   121    1
  128   119   122    1
  129   122   123    1
  130   122   124    1
  131   122   125    1
  132   125   126    1
  133   127   128    1
  134   127   129    2
  135   127   130    1
  136   130   131    1
  137   130   132    1
  138   130   133    1
  139   133   134    1
  140   133   135    1
  141   133   136    1
  142   136   137    1
  143   136   138    1
  144   136   139    1
@<TRIPOS>SUBSTRUCTURE
       1 MOL1            1 RESIDUE      1      MOL     
       2 MOL1          139 RESIDUE      1      MOL     
@<SCITEGIC>MOL_PROPERTY
feprocess Rank
SciTegic.value.IntegerValue
26

@<SCITEGIC>MOL_PROPERTY
Conf_Id
SciTegic.value.IntegerValue
513

@<SCITEGIC>MOL_PROPERTY
Probability
SciTegic.value.DoubleValue
0.04

@<SCITEGIC>MOL_PROPERTY
G
SciTegic.value.DoubleValue
486.675

@<SCITEGIC>MOL_PROPERTY
E
SciTegic.value.DoubleValue
309.728

@<SCITEGIC>MOL_PROPERTY
-TS
SciTegic.value.DoubleValue
176.947

@<SCITEGIC>MOL_PROPERTY
U+W
SciTegic.value.DoubleValue
187.217

@<SCITEGIC>MOL_PROPERTY
U
SciTegic.value.DoubleValue
262.658

@<SCITEGIC>MOL_PROPERTY
W
SciTegic.value.DoubleValue
-75.442

@<SCITEGIC>MOL_PROPERTY
W(PB)
SciTegic.value.DoubleValue
-81.364

@<SCITEGIC>MOL_PROPERTY
W(SA)
SciTegic.value.DoubleValue
5.922

@<SCITEGIC>MOL_PROPERTY
Valence
SciTegic.value.DoubleValue
155.804

@<SCITEGIC>MOL_PROPERTY
Coulomb
SciTegic.value.DoubleValue
127.763

@<SCITEGIC>MOL_PROPERTY
VdW
SciTegic.value.DoubleValue
-20.909

@<SCITEGIC>MOL_PROPERTY
VdW6
SciTegic.value.DoubleValue
-177.438

@<SCITEGIC>MOL_PROPERTY
VdW12
SciTegic.value.DoubleValue
156.529

@<SCITEGIC>MOL_PROPERTY
Bond
SciTegic.value.DoubleValue
5.130

@<SCITEGIC>MOL_PROPERTY
Angle
SciTegic.value.DoubleValue
14.970

@<SCITEGIC>MOL_PROPERTY
Pdih
SciTegic.value.DoubleValue
135.656

@<SCITEGIC>MOL_PROPERTY
Idih
SciTegic.value.DoubleValue
0.047

@<SCITEGIC>MOL_PROPERTY
Tether
SciTegic.value.DoubleValue
0.000

@<TRIPOS>MOLECULE
CD_guest-6_fast_vm2_rndm.mol2 : feprocess host+ligand conformer 27
         139         144           2
SMALL
USER_CHARGES
 
@<TRIPOS>ATOM
       1    C1      16.195519   15.165573   21.581364 C.3        1 MOL1         0.2972
       2    H1      15.108088   15.054213   21.682909 H          1 MOL1         0.0751
       3    O1      16.578938   16.545117   21.444644 O.3        1 MOL1        -0.3740
       4    C2      16.905638   14.595717   22.830873 C.3        1 MOL1         0.1003
       5    H2      16.673654   13.524094   22.885046 H          1 MOL1         0.0783
       6    O2      16.429833   15.245865   24.020495 O.3        1 MOL1        -0.5519
       7    H3      15.983400   16.078717   23.730297 H          1 MOL1         0.3769
       8    C3      18.438979   14.750935   22.703823 C.3        1 MOL1         0.1053
       9    H4      18.675263   15.822595   22.737157 H          1 MOL1         0.0783
      10    O3      19.066912   14.089008   23.805182 O.3        1 MOL1        -0.5519
      11    H5      18.559219   14.383109   24.594802 H          1 MOL1         0.3769
      12    C4      18.965770   14.176601   21.362130 C.3        1 MOL1         0.1018
      13    H6      19.009406   13.082797   21.440230 H          1 MOL1         0.0783
      14    C5      18.097956   14.601671   20.141931 C.3        1 MOL1         0.1043
      15    H7      18.313295   15.659288   19.944948 H          1 MOL1         0.0783
      16    O4      16.681905   14.453815   20.425048 O.3        1 MOL1        -0.3740
      17    C6      18.419307   13.823543   18.842847 C.3        1 MOL1         0.0138
      18    H8      19.444090   14.064483   18.529057 H          1 MOL1         0.0794
      19    H9      17.748287   14.181508   18.050624 H          1 MOL1         0.0794
      20    O5      18.272137   12.406176   19.000577 O.3        1 MOL1        -0.5486
      21    H10     18.985048   12.084796   19.589437 H          1 MOL1         0.3769
      22    C7      14.904847   20.299836   20.742099 C.3        1 MOL1         0.2972
      23    H11     14.264284   21.127260   20.410458 H          1 MOL1         0.0751
      24    O6      16.152346   20.772525   21.284629 O.3        1 MOL1        -0.3740
      25    C8      14.204800   19.454240   21.839545 C.3        1 MOL1         0.1003
      26    H12     13.283645   19.047965   21.402019 H          1 MOL1         0.0783
      27    O7      13.866670   20.257596   22.981228 O.3        1 MOL1        -0.5519
      28    H13     14.679361   20.763022   23.239525 H          1 MOL1         0.3769
      29    C9      15.099778   18.261300   22.261548 C.3        1 MOL1         0.1053
      30    H14     15.998413   18.660302   22.753008 H          1 MOL1         0.0783
      31    O8      14.384591   17.418242   23.170877 O.3        1 MOL1        -0.5519
      32    H15     13.948642   18.034645   23.801118 H          1 MOL1         0.3769
      33    C10     15.546503   17.449275   21.020737 C.3        1 MOL1         0.1018
      34    H16     14.677177   16.917441   20.611911 H          1 MOL1         0.0783
      35    C11     16.147867   18.361190   19.917481 C.3        1 MOL1         0.1043
      36    H17     17.081796   18.796367   20.295257 H          1 MOL1         0.0783
      37    O9      15.207265   19.424924   19.630831 O.3        1 MOL1        -0.3740
      38    C12     16.499179   17.627463   18.596602 C.3        1 MOL1         0.0138
      39    H18     17.538833   17.282508   18.659823 H          1 MOL1         0.0794
      40    H19     16.456691   18.351253   17.771870 H          1 MOL1         0.0794
      41    O10     15.641069   16.513180   18.318829 O.3        1 MOL1        -0.5486
      42    H20     15.857215   15.807751   18.972208 H          1 MOL1         0.3769
      43    C13     18.469750   24.116459   21.916984 C.3        1 MOL1         0.2972
      44    H21     18.884284   25.120161   22.076971 H          1 MOL1         0.0751
      45    O11     19.517995   23.134765   21.794271 O.3        1 MOL1        -0.3740
      46    C14     17.530334   23.747489   23.093712 C.3        1 MOL1         0.1003
      47    H22     16.693477   24.457255   23.067175 H          1 MOL1         0.0783
      48    O12     18.192488   23.871344   24.360087 O.3        1 MOL1        -0.5519
      49    H23     18.845072   23.119039   24.423207 H          1 MOL1         0.3769
      50    C15     16.950011   22.327879   22.906511 C.3        1 MOL1         0.1053
      51    H24     17.776621   21.607400   22.961496 H          1 MOL1         0.0783
      52    O13     16.001273   22.054056   23.943243 O.3        1 MOL1        -0.5519
      53    H25     16.476470   22.264655   24.778193 H          1 MOL1         0.3769
      54    C16     16.270983   22.186934   21.523177 C.3        1 MOL1         0.1018
      55    H26     15.293375   22.685732   21.559317 H          1 MOL1         0.0783
      56    C17     17.133369   22.765969   20.366070 C.3        1 MOL1         0.1043
      57    H27     17.958870   22.063037   20.208503 H          1 MOL1         0.0783
      58    O14     17.680848   24.069068   20.707543 O.3        1 MOL1        -0.3740
      59    C18     16.368957   22.889778   19.026166 C.3        1 MOL1         0.0138
      60    H28     16.185086   21.880340   18.634238 H          1 MOL1         0.0794
      61    H29     17.010016   23.408069   18.300534 H          1 MOL1         0.0794
      62    O15     15.125844   23.585744   19.178961 O.3        1 MOL1        -0.5486
      63    H30     14.731727   23.691496   18.285663 H          1 MOL1         0.3769
      64    C19     23.519380   22.648745   20.804465 C.3        1 MOL1         0.2972
      65    H31     24.542576   22.731019   20.415956 H          1 MOL1         0.0751
      66    O16     23.262368   21.343204   21.354445 O.3        1 MOL1        -0.3740
      67    C20     23.254400   23.707860   21.903082 C.3        1 MOL1         0.1003
      68    H32     23.399817   24.692863   21.440941 H          1 MOL1         0.0783
      69    O17     24.177729   23.564716   22.994166 O.3        1 MOL1        -0.5519
      70    H33     24.112083   22.629127   23.311703 H          1 MOL1         0.3769
      71    C21     21.791244   23.637152   22.411569 C.3        1 MOL1         0.1053
      72    H34     21.671412   22.711905   22.991990 H          1 MOL1         0.0783
      73    O18     21.543367   24.775293   23.243824 O.3        1 MOL1        -0.5519
      74    H35     22.229260   24.738180   23.944904 H          1 MOL1         0.3769
      75    C22     20.765361   23.611090   21.245519 C.3        1 MOL1         0.1018
      76    H36     20.674449   24.630233   20.848173 H          1 MOL1         0.0783
      77    C23     21.179923   22.650955   20.091027 C.3        1 MOL1         0.1043
      78    H37     21.061558   21.618855   20.441738 H          1 MOL1         0.0783
      79    O19     22.567224   22.881963   19.746617 O.3        1 MOL1        -0.3740
      80    C24     20.343822   22.779254   18.789785 C.3        1 MOL1         0.0138
      81    H38     19.530126   22.045807   18.821094 H          1 MOL1         0.0794
      82    H39     20.978853   22.496201   17.939647 H          1 MOL1         0.0794
      83    O20     19.809181   24.092173   18.579245 O.3        1 MOL1        -0.5486
      84    H40     19.114270   24.238882   19.263410 H          1 MOL1         0.3769
      85    C25     24.976751   17.650871   22.013321 C.3        1 MOL1         0.2972
      86    H41     25.643712   16.797006   22.189836 H          1 MOL1         0.0751
      87    O21     23.613373   17.221346   21.822603 O.3        1 MOL1        -0.3740
      88    C26     25.018380   18.601555   23.234066 C.3        1 MOL1         0.1003
      89    H42     26.049499   18.959715   23.347910 H          1 MOL1         0.0783
      90    O22     24.633588   17.874935   24.411884 O.3        1 MOL1        -0.5519
      91    H43     23.966715   17.210205   24.122682 H          1 MOL1         0.3769
      92    C27     24.107563   19.832672   23.000324 C.3        1 MOL1         0.1053
      93    H44     23.067817   19.481509   22.990206 H          1 MOL1         0.0783
      94    O23     24.277518   20.796897   24.045993 O.3        1 MOL1        -0.5519
      95    H45     23.416829   20.783584   24.548769 H          1 MOL1         0.3769
      96    C28     24.403669   20.512529   21.640061 C.3        1 MOL1         0.1018
      97    H46     25.327424   21.098809   21.734736 H          1 MOL1         0.0783
      98    C29     24.527050   19.495960   20.471002 C.3        1 MOL1         0.1043
      99    H47     23.518449   19.118660   20.262296 H          1 MOL1         0.0783
     100    O24     25.384363   18.385623   20.841092 O.3        1 MOL1        -0.3740
     101    C30     25.068646   20.113054   19.159136 C.3        1 MOL1         0.0138
     102    H48     24.295754   20.768919   18.736177 H          1 MOL1         0.0794
     103    H49     25.240307   19.304881   18.435457 H          1 MOL1         0.0794
     104    O25     26.275175   20.856475   19.370914 O.3        1 MOL1        -0.5486
     105    H50     26.604020   21.147680   18.492573 H          1 MOL1         0.3769
     106    C31     21.350005   13.891623   20.772751 C.3        1 MOL1         0.2972
     107    H51     20.985927   12.928430   20.394932 H          1 MOL1         0.0751
     108    O26     20.266116   14.761591   21.155951 O.3        1 MOL1        -0.3740
     109    C32     22.284855   13.696121   21.994152 C.3        1 MOL1         0.1003
     110    H52     23.150583   13.114942   21.650717 H          1 MOL1         0.0783
     111    O27     21.631809   12.974520   23.049226 O.3        1 MOL1        -0.5519
     112    H53     20.793937   13.457593   23.264746 H          1 MOL1         0.3769
     113    C33     22.803137   15.064968   22.500119 C.3        1 MOL1         0.1053
     114    H54     21.948736   15.636829   22.888430 H          1 MOL1         0.0783
     115    O28     23.761193   14.857108   23.542491 O.3        1 MOL1        -0.5519
     116    H55     23.362214   14.174793   24.126834 H          1 MOL1         0.3769
     117    C34     23.445749   15.873490   21.344140 C.3        1 MOL1         0.1018
     118    H56     24.405384   15.405420   21.088383 H          1 MOL1         0.0783
     119    C35     22.546227   15.913191   20.074574 C.3        1 MOL1         0.1043
     120    H57     21.665632   16.528388   20.292568 H          1 MOL1         0.0783
     121    O29     22.116883   14.566427   19.751280 O.3        1 MOL1        -0.3740
     122    C36     23.215751   16.527685   18.817068 C.3        1 MOL1         0.0138
     123    H58     23.000369   17.602685   18.797409 H          1 MOL1         0.0794
     124    H59     22.741073   16.098063   17.924820 H          1 MOL1         0.0794
     125    O30     24.632540   16.319681   18.765063 O.3        1 MOL1        -0.5486
     126    H60     25.038989   16.921676   19.431840 H          1 MOL1         0.3769
     127    C1      20.480584   20.695960   24.533096 C.2        1 MOL1         0.6021
     128    O1      21.640423   20.796851   24.883524 O.co2      1 MOL1        -0.6904
     129    O2      19.637297   21.545900   24.738585 O.co2      1 MOL1        -0.6904
     130    C2      20.059980   19.433284   23.786823 C.3        1 MOL1        -0.2102
     131    H1      19.042794   19.174943   24.104609 H          1 MOL1         0.0687
     132    H2      20.716658   18.615277   24.106719 H          1 MOL1         0.0687
     133    C3      20.111349   19.582657   22.247058 C.3        1 MOL1        -0.1974
     134    H3      19.444145   20.394492   21.931340 H          1 MOL1         0.0689
     135    H4      21.124990   19.863205   21.940376 H          1 MOL1         0.0689
     136    C4      19.706493   18.276652   21.542991 C.3        1 MOL1        -0.2987
     137    H5      18.677668   18.008893   21.804739 H          1 MOL1         0.0700
     138    H6      19.771804   18.379769   20.452799 H          1 MOL1         0.0700
     139    H7      20.360303   17.453942   21.855392 H          1 MOL1         0.0700
@<TRIPOS>BOND
    1     1     2    1
    2     1     3    1
    3     1     4    1
    4     4     5    1
    5     4     6    1
    6     6     7    1
    7     4     8    1
    8     8     9    1
    9     8    10    1
   10    10    11    1
   11     8    12    1
   12    12    13    1
   13    12    14    1
   14    14    15    1
   15     1    16    1
   16    14    16    1
   17    14    17    1
   18    17    18    1
   19    17    19    1
   20    17    20    1
   21    20    21    1
   22    22    23    1
   23    22    24    1
   24    22    25    1
   25    25    26    1
   26    25    27    1
   27    27    28    1
   28    25    29    1
   29    29    30    1
   30    29    31    1
   31    31    32    1
   32     3    33    1
   33    29    33    1
   34    33    34    1
   35    33    35    1
   36    35    36    1
   37    22    37    1
   38    35    37    1
   39    35    38    1
   40    38    39    1
   41    38    40    1
   42    38    41    1
   43    41    42    1
   44    43    44    1
   45    43    45    1
   46    43    46    1
   47    46    47    1
   48    46    48    1
   49    48    49    1
   50    46    50    1
   51    50    51    1
   52    50    52    1
   53    52    53    1
   54    24    54    1
   55    50    54    1
   56    54    55    1
   57    54    56    1
   58    56    57    1
   59    43    58    1
   60    56    58    1
   61    56    59    1
   62    59    60    1
   63    59    61    1
   64    59    62    1
   65    62    63    1
   66    64    65    1
   67    64    66    1
   68    64    67    1
   69    67    68    1
   70    67    69    1
   71    69    70    1
   72    67    71    1
   73    71    72    1
   74    71    73    1
   75    73    74    1
   76    45    75    1
   77    71    75    1
   78    75    76    1
   79    75    77    1
   80    77    78    1
   81    64    79    1
   82    77    79    1
   83    77    80    1
   84    80    81    1
   85    80    82    1
   86    80    83    1
   87    83    84    1
   88    85    86    1
   89    85    87    1
   90    85    88    1
   91    88    89    1
   92    88    90    1
   93    90    91    1
   94    88    92    1
   95    92    93    1
   96    92    94    1
   97    94    95    1
   98    66    96    1
   99    92    96    1
  100    96    97    1
  101    96    98    1
  102    98    99    1
  103    85   100    1
  104    98   100    1
  105    98   101    1
  106   101   102    1
  107   101   103    1
  108   101   104    1
  109   104   105    1
  110   106   107    1
  111    12   108    1
  112   106   108    1
  113   106   109    1
  114   109   110    1
  115   109   111    1
  116   111   112    1
  117   109   113    1
  118   113   114    1
  119   113   115    1
  120   115   116    1
  121    87   117    1
  122   113   117    1
  123   117   118    1
  124   117   119    1
  125   119   120    1
  126   106   121    1
  127   119   121    1
  128   119   122    1
  129   122   123    1
  130   122   124    1
  131   122   125    1
  132   125   126    1
  133   127   128    1
  134   127   129    2
  135   127   130    1
  136   130   131    1
  137   130   132    1
  138   130   133    1
  139   133   134    1
  140   133   135    1
  141   133   136    1
  142   136   137    1
  143   136   138    1
  144   136   139    1
@<TRIPOS>SUBSTRUCTURE
       1 MOL1            1 RESIDUE      1      MOL     
       2 MOL1          139 RESIDUE      1      MOL     
@<SCITEGIC>MOL_PROPERTY
feprocess Rank
SciTegic.value.IntegerValue
27

@<SCITEGIC>MOL_PROPERTY
Conf_Id
SciTegic.value.IntegerValue
557

@<SCITEGIC>MOL_PROPERTY
Probability
SciTegic.value.DoubleValue
0.03

@<SCITEGIC>MOL_PROPERTY
G
SciTegic.value.DoubleValue
486.879

@<SCITEGIC>MOL_PROPERTY
E
SciTegic.value.DoubleValue
311.793

@<SCITEGIC>MOL_PROPERTY
-TS
SciTegic.value.DoubleValue
175.086

@<SCITEGIC>MOL_PROPERTY
U+W
SciTegic.value.DoubleValue
189.282

@<SCITEGIC>MOL_PROPERTY
U
SciTegic.value.DoubleValue
266.612

@<SCITEGIC>MOL_PROPERTY
W
SciTegic.value.DoubleValue
-77.331

@<SCITEGIC>MOL_PROPERTY
W(PB)
SciTegic.value.DoubleValue
-83.261

@<SCITEGIC>MOL_PROPERTY
W(SA)
SciTegic.value.DoubleValue
5.930

@<SCITEGIC>MOL_PROPERTY
Valence
SciTegic.value.DoubleValue
153.312

@<SCITEGIC>MOL_PROPERTY
Coulomb
SciTegic.value.DoubleValue
134.575

@<SCITEGIC>MOL_PROPERTY
VdW
SciTegic.value.DoubleValue
-21.275

@<SCITEGIC>MOL_PROPERTY
VdW6
SciTegic.value.DoubleValue
-172.662

@<SCITEGIC>MOL_PROPERTY
VdW12
SciTegic.value.DoubleValue
151.387

@<SCITEGIC>MOL_PROPERTY
Bond
SciTegic.value.DoubleValue
4.936

@<SCITEGIC>MOL_PROPERTY
Angle
SciTegic.value.DoubleValue
13.634

@<SCITEGIC>MOL_PROPERTY
Pdih
SciTegic.value.DoubleValue
134.742

@<SCITEGIC>MOL_PROPERTY
Idih
SciTegic.value.DoubleValue
0.000

@<SCITEGIC>MOL_PROPERTY
Tether
SciTegic.value.DoubleValue
0.000

@<TRIPOS>MOLECULE
CD_guest-6_fast_vm2_rndm.mol2 : feprocess host+ligand conformer 28
         139         144           2
SMALL
USER_CHARGES
 
@<TRIPOS>ATOM
       1    C1      16.600494   15.583907   22.515078 C.3        1 MOL1         0.2972
       2    H1      15.598542   15.632995   22.958170 H          1 MOL1         0.0751
       3    O1      16.912391   16.784636   21.783326 O.3        1 MOL1        -0.3740
       4    C2      17.655853   15.385159   23.630032 C.3        1 MOL1         0.1003
       5    H2      17.413676   14.444340   24.140720 H          1 MOL1         0.0783
       6    O2      17.615080   16.463413   24.578347 O.3        1 MOL1        -0.5519
       7    H3      17.908348   17.286333   24.094498 H          1 MOL1         0.3769
       8    C3      19.079987   15.262440   23.046271 C.3        1 MOL1         0.1053
       9    H4      19.364091   16.249246   22.673024 H          1 MOL1         0.0783
      10    O3      19.979533   14.878578   24.090472 O.3        1 MOL1        -0.5519
      11    H5      19.801684   15.512882   24.821091 H          1 MOL1         0.3769
      12    C4      19.176183   14.273736   21.855519 C.3        1 MOL1         0.1018
      13    H6      19.301182   13.253305   22.240591 H          1 MOL1         0.0783
      14    C5      17.957533   14.343499   20.891227 C.3        1 MOL1         0.1043
      15    H7      18.091145   15.235554   20.271473 H          1 MOL1         0.0783
      16    O4      16.703143   14.463213   21.610151 O.3        1 MOL1        -0.3740
      17    C6      17.864704   13.136721   19.927633 C.3        1 MOL1         0.0138
      18    H8      18.694939   13.198946   19.211156 H          1 MOL1         0.0794
      19    H9      16.932124   13.216350   19.353001 H          1 MOL1         0.0794
      20    O5      17.915879   11.885380   20.623506 O.3        1 MOL1        -0.5486
      21    H10     17.778687   11.170947   19.963513 H          1 MOL1         0.3769
      22    C7      15.023781   20.188281   20.296856 C.3        1 MOL1         0.2972
      23    H11     14.362275   20.898656   19.784551 H          1 MOL1         0.0751
      24    O6      16.218253   20.827075   20.787071 O.3        1 MOL1        -0.3740
      25    C8      14.304792   19.533779   21.502495 C.3        1 MOL1         0.1003
      26    H12     13.429464   19.003584   21.105235 H          1 MOL1         0.0783
      27    O7      13.859009   20.524701   22.442447 O.3        1 MOL1        -0.5519
      28    H13     14.613776   21.148105   22.596797 H          1 MOL1         0.3769
      29    C9      15.211991   18.485834   22.199197 C.3        1 MOL1         0.1053
      30    H14     16.047638   19.011076   22.684422 H          1 MOL1         0.0783
      31    O8      14.423238   17.800851   23.177967 O.3        1 MOL1        -0.5519
      32    H15     13.985910   18.511619   23.696374 H          1 MOL1         0.3769
      33    C10     15.804312   17.477567   21.174134 C.3        1 MOL1         0.1018
      34    H16     15.014291   16.779529   20.869638 H          1 MOL1         0.0783
      35    C11     16.376063   18.189023   19.916024 C.3        1 MOL1         0.1043
      36    H17     17.278109   18.735331   20.216472 H          1 MOL1         0.0783
      37    O9      15.405320   19.127744   19.395819 O.3        1 MOL1        -0.3740
      38    C12     16.787851   17.227296   18.772344 C.3        1 MOL1         0.0138
      39    H18     17.808641   16.876792   18.967400 H          1 MOL1         0.0794
      40    H19     16.825257   17.795540   17.833417 H          1 MOL1         0.0794
      41    O10     15.906550   16.104667   18.634281 O.3        1 MOL1        -0.5486
      42    H20     15.954568   15.589300   19.469119 H          1 MOL1         0.3769
      43    C13     18.435947   24.269447   20.845356 C.3        1 MOL1         0.2972
      44    H21     18.879261   25.270187   20.774490 H          1 MOL1         0.0751
      45    O11     19.444087   23.261259   21.092129 O.3        1 MOL1        -0.3740
      46    C14     17.329127   24.222221   21.929894 C.3        1 MOL1         0.1003
      47    H22     16.512472   24.866754   21.578797 H          1 MOL1         0.0783
      48    O12     17.783365   24.721699   23.195228 O.3        1 MOL1        -0.5519
      49    H23     18.435434   24.063172   23.542217 H          1 MOL1         0.3769
      50    C15     16.771300   22.783612   22.049818 C.3        1 MOL1         0.1053
      51    H24     17.574506   22.122737   22.404635 H          1 MOL1         0.0783
      52    O13     15.685583   22.770814   22.982677 O.3        1 MOL1        -0.5519
      53    H25     16.002540   23.290096   23.754728 H          1 MOL1         0.3769
      54    C16     16.285714   22.261214   20.672868 C.3        1 MOL1         0.1018
      55    H26     15.301656   22.703741   20.469987 H          1 MOL1         0.0783
      56    C17     17.264253   22.583790   19.502552 C.3        1 MOL1         0.1043
      57    H27     18.108917   21.888611   19.559546 H          1 MOL1         0.0783
      58    O14     17.777772   23.937856   19.604466 O.3        1 MOL1        -0.3740
      59    C18     16.628126   22.398952   18.104487 C.3        1 MOL1         0.0138
      60    H28     16.468693   21.325350   17.934964 H          1 MOL1         0.0794
      61    H29     17.342759   22.745941   17.346238 H          1 MOL1         0.0794
      62    O15     15.385195   23.101650   17.977671 O.3        1 MOL1        -0.5486
      63    H30     15.072640   22.988577   17.053488 H          1 MOL1         0.3769
      64    C19     23.115379   22.320337   22.747693 C.3        1 MOL1         0.2972
      65    H31     24.081013   22.300674   23.267317 H          1 MOL1         0.0751
      66    O16     22.918791   21.139070   21.949308 O.3        1 MOL1        -0.3740
      67    C20     21.965300   22.429927   23.777677 C.3        1 MOL1         0.1003
      68    H32     22.110022   23.373631   24.319024 H          1 MOL1         0.0783
      69    O17     21.999253   21.346482   24.719086 O.3        1 MOL1        -0.5519
      70    H33     21.748860   20.519339   24.219256 H          1 MOL1         0.3769
      71    C21     20.589143   22.490174   23.076344 C.3        1 MOL1         0.1053
      72    H34     20.404290   21.519278   22.603176 H          1 MOL1         0.0783
      73    O18     19.590988   22.733387   24.070588 O.3        1 MOL1        -0.5519
      74    H35     19.731037   22.026811   24.741175 H          1 MOL1         0.3769
      75    C22     20.547338   23.580636   21.970151 C.3        1 MOL1         0.1018
      76    H36     20.428977   24.563365   22.443464 H          1 MOL1         0.0783
      77    C23     21.821912   23.568911   21.076472 C.3        1 MOL1         0.1043
      78    H37     21.755563   22.690816   20.423306 H          1 MOL1         0.0783
      79    O19     23.029047   23.468353   21.875787 O.3        1 MOL1        -0.3740
      80    C24     21.945317   24.808307   20.157235 C.3        1 MOL1         0.0138
      81    H38     21.118102   24.795767   19.434549 H          1 MOL1         0.0794
      82    H39     22.876539   24.721213   19.581870 H          1 MOL1         0.0794
      83    O20     21.939552   26.040613   20.890329 O.3        1 MOL1        -0.5486
      84    H40     21.048309   26.166627   21.275970 H          1 MOL1         0.3769
      85    C25     24.947193   17.718252   20.768628 C.3        1 MOL1         0.2972
      86    H41     25.660112   16.983366   20.375004 H          1 MOL1         0.0751
      87    O21     23.675659   17.119170   21.085800 O.3        1 MOL1        -0.3740
      88    C26     25.501431   18.365711   22.060154 C.3        1 MOL1         0.1003
      89    H42     26.438342   18.871092   21.791913 H          1 MOL1         0.0783
      90    O22     25.779491   17.368309   23.056160 O.3        1 MOL1        -0.5519
      91    H43     25.043253   16.706102   23.024686 H          1 MOL1         0.3769
      92    C27     24.530973   19.439372   22.614488 C.3        1 MOL1         0.1053
      93    H44     23.626903   18.935770   22.986369 H          1 MOL1         0.0783
      94    O23     25.192977   20.120437   23.685505 O.3        1 MOL1        -0.5519
      95    H45     25.521178   19.407863   24.276586 H          1 MOL1         0.3769
      96    C28     24.104378   20.447840   21.510344 C.3        1 MOL1         0.1018
      97    H46     24.931221   21.145894   21.328758 H          1 MOL1         0.0783
      98    C29     23.720789   19.744821   20.177725 C.3        1 MOL1         0.1043
      99    H47     22.771450   19.221456   20.335173 H          1 MOL1         0.0783
     100    O24     24.732945   18.775901   19.810774 O.3        1 MOL1        -0.3740
     101    C30     23.503165   20.715717   18.989122 C.3        1 MOL1         0.0138
     102    H48     22.488700   21.127276   19.058912 H          1 MOL1         0.0794
     103    H49     23.547468   20.140399   18.054948 H          1 MOL1         0.0794
     104    O25     24.455396   21.786314   18.955428 O.3        1 MOL1        -0.5486
     105    H50     24.286160   22.353277   19.739259 H          1 MOL1         0.3769
     106    C31     21.314180   13.747432   20.710561 C.3        1 MOL1         0.2972
     107    H51     20.868332   12.765889   20.504770 H          1 MOL1         0.0751
     108    O26     20.311326   14.714949   21.081599 O.3        1 MOL1        -0.3740
     109    C32     22.404816   13.656053   21.811752 C.3        1 MOL1         0.1003
     110    H52     23.208848   13.024505   21.411739 H          1 MOL1         0.0783
     111    O27     21.912867   13.055727   23.018696 O.3        1 MOL1        -0.5519
     112    H53     21.230765   13.670220   23.389327 H          1 MOL1         0.3769
     113    C33     23.002262   15.056414   22.093663 C.3        1 MOL1         0.1053
     114    H54     22.213923   15.691726   22.522097 H          1 MOL1         0.0783
     115    O28     24.084280   14.932670   23.022273 O.3        1 MOL1        -0.5519
     116    H55     23.755288   14.324699   23.721407 H          1 MOL1         0.3769
     117    C34     23.507115   15.720989   20.787329 C.3        1 MOL1         0.1018
     118    H56     24.451267   15.241083   20.499758 H          1 MOL1         0.0783
     119    C35     22.481907   15.610242   19.621697 C.3        1 MOL1         0.1043
     120    H57     21.647505   16.290205   19.833818 H          1 MOL1         0.0783
     121    O29     21.972563   14.253408   19.528074 O.3        1 MOL1        -0.3740
     122    C36     23.050143   16.023857   18.242322 C.3        1 MOL1         0.0138
     123    H58     23.194576   17.112751   18.232748 H          1 MOL1         0.0794
     124    H59     22.297759   15.792313   17.476803 H          1 MOL1         0.0794
     125    O30     24.283715   15.364203   17.930889 O.3        1 MOL1        -0.5486
     126    H60     25.010278   15.885439   18.332121 H          1 MOL1         0.3769
     127    C1      19.932527   18.809489   22.792841 C.2        1 MOL1         0.6021
     128    O1      18.832158   18.682611   23.296295 O.co2      1 MOL1        -0.6904
     129    O2      20.928915   19.128789   23.412323 O.co2      1 MOL1        -0.6904
     130    C2      20.087418   18.493857   21.306127 C.3        1 MOL1        -0.2102
     131    H1      19.330588   17.753423   21.028814 H          1 MOL1         0.0687
     132    H2      21.064176   18.021238   21.170216 H          1 MOL1         0.0687
     133    C3      19.956845   19.738544   20.399157 C.3        1 MOL1        -0.1974
     134    H3      18.996249   20.223744   20.606856 H          1 MOL1         0.0689
     135    H4      20.734843   20.463744   20.659141 H          1 MOL1         0.0689
     136    C4      20.064245   19.387189   18.901354 C.3        1 MOL1        -0.2987
     137    H5      20.001674   20.295057   18.287908 H          1 MOL1         0.0700
     138    H6      21.016860   18.890150   18.680011 H          1 MOL1         0.0700
     139    H7      19.253912   18.717201   18.594657 H          1 MOL1         0.0700
@<TRIPOS>BOND
    1     1     2    1
    2     1     3    1
    3     1     4    1
    4     4     5    1
    5     4     6    1
    6     6     7    1
    7     4     8    1
    8     8     9    1
    9     8    10    1
   10    10    11    1
   11     8    12    1
   12    12    13    1
   13    12    14    1
   14    14    15    1
   15     1    16    1
   16    14    16    1
   17    14    17    1
   18    17    18    1
   19    17    19    1
   20    17    20    1
   21    20    21    1
   22    22    23    1
   23    22    24    1
   24    22    25    1
   25    25    26    1
   26    25    27    1
   27    27    28    1
   28    25    29    1
   29    29    30    1
   30    29    31    1
   31    31    32    1
   32     3    33    1
   33    29    33    1
   34    33    34    1
   35    33    35    1
   36    35    36    1
   37    22    37    1
   38    35    37    1
   39    35    38    1
   40    38    39    1
   41    38    40    1
   42    38    41    1
   43    41    42    1
   44    43    44    1
   45    43    45    1
   46    43    46    1
   47    46    47    1
   48    46    48    1
   49    48    49    1
   50    46    50    1
   51    50    51    1
   52    50    52    1
   53    52    53    1
   54    24    54    1
   55    50    54    1
   56    54    55    1
   57    54    56    1
   58    56    57    1
   59    43    58    1
   60    56    58    1
   61    56    59    1
   62    59    60    1
   63    59    61    1
   64    59    62    1
   65    62    63    1
   66    64    65    1
   67    64    66    1
   68    64    67    1
   69    67    68    1
   70    67    69    1
   71    69    70    1
   72    67    71    1
   73    71    72    1
   74    71    73    1
   75    73    74    1
   76    45    75    1
   77    71    75    1
   78    75    76    1
   79    75    77    1
   80    77    78    1
   81    64    79    1
   82    77    79    1
   83    77    80    1
   84    80    81    1
   85    80    82    1
   86    80    83    1
   87    83    84    1
   88    85    86    1
   89    85    87    1
   90    85    88    1
   91    88    89    1
   92    88    90    1
   93    90    91    1
   94    88    92    1
   95    92    93    1
   96    92    94    1
   97    94    95    1
   98    66    96    1
   99    92    96    1
  100    96    97    1
  101    96    98    1
  102    98    99    1
  103    85   100    1
  104    98   100    1
  105    98   101    1
  106   101   102    1
  107   101   103    1
  108   101   104    1
  109   104   105    1
  110   106   107    1
  111    12   108    1
  112   106   108    1
  113   106   109    1
  114   109   110    1
  115   109   111    1
  116   111   112    1
  117   109   113    1
  118   113   114    1
  119   113   115    1
  120   115   116    1
  121    87   117    1
  122   113   117    1
  123   117   118    1
  124   117   119    1
  125   119   120    1
  126   106   121    1
  127   119   121    1
  128   119   122    1
  129   122   123    1
  130   122   124    1
  131   122   125    1
  132   125   126    1
  133   127   128    1
  134   127   129    2
  135   127   130    1
  136   130   131    1
  137   130   132    1
  138   130   133    1
  139   133   134    1
  140   133   135    1
  141   133   136    1
  142   136   137    1
  143   136   138    1
  144   136   139    1
@<TRIPOS>SUBSTRUCTURE
       1 MOL1            1 RESIDUE      1      MOL     
       2 MOL1          139 RESIDUE      1      MOL     
@<SCITEGIC>MOL_PROPERTY
feprocess Rank
SciTegic.value.IntegerValue
28

@<SCITEGIC>MOL_PROPERTY
Conf_Id
SciTegic.value.IntegerValue
642

@<SCITEGIC>MOL_PROPERTY
Probability
SciTegic.value.DoubleValue
0.02

@<SCITEGIC>MOL_PROPERTY
G
SciTegic.value.DoubleValue
486.992

@<SCITEGIC>MOL_PROPERTY
E
SciTegic.value.DoubleValue
309.993

@<SCITEGIC>MOL_PROPERTY
-TS
SciTegic.value.DoubleValue
177.000

@<SCITEGIC>MOL_PROPERTY
U+W
SciTegic.value.DoubleValue
187.481

@<SCITEGIC>MOL_PROPERTY
U
SciTegic.value.DoubleValue
259.717

@<SCITEGIC>MOL_PROPERTY
W
SciTegic.value.DoubleValue
-72.235

@<SCITEGIC>MOL_PROPERTY
W(PB)
SciTegic.value.DoubleValue
-78.152

@<SCITEGIC>MOL_PROPERTY
W(SA)
SciTegic.value.DoubleValue
5.917

@<SCITEGIC>MOL_PROPERTY
Valence
SciTegic.value.DoubleValue
149.954

@<SCITEGIC>MOL_PROPERTY
Coulomb
SciTegic.value.DoubleValue
133.533

@<SCITEGIC>MOL_PROPERTY
VdW
SciTegic.value.DoubleValue
-23.770

@<SCITEGIC>MOL_PROPERTY
VdW6
SciTegic.value.DoubleValue
-177.882

@<SCITEGIC>MOL_PROPERTY
VdW12
SciTegic.value.DoubleValue
154.112

@<SCITEGIC>MOL_PROPERTY
Bond
SciTegic.value.DoubleValue
5.048

@<SCITEGIC>MOL_PROPERTY
Angle
SciTegic.value.DoubleValue
15.803

@<SCITEGIC>MOL_PROPERTY
Pdih
SciTegic.value.DoubleValue
129.098

@<SCITEGIC>MOL_PROPERTY
Idih
SciTegic.value.DoubleValue
0.005

@<SCITEGIC>MOL_PROPERTY
Tether
SciTegic.value.DoubleValue
0.000

@<TRIPOS>MOLECULE
CD_guest-6_fast_vm2_rndm.mol2 : feprocess host+ligand conformer 29
         139         144           2
SMALL
USER_CHARGES
 
@<TRIPOS>ATOM
       1    C1      16.367836   15.351066   20.407095 C.3        1 MOL1         0.2972
       2    H1      15.425598   15.139735   19.885256 H          1 MOL1         0.0751
       3    O1      16.371286   16.668683   20.983622 O.3        1 MOL1        -0.3740
       4    C2      16.585350   14.345000   21.565289 C.3        1 MOL1         0.1003
       5    H2      16.557066   13.338145   21.128992 H          1 MOL1         0.0783
       6    O2      15.533566   14.468351   22.537769 O.3        1 MOL1        -0.5519
       7    H3      15.402920   15.436745   22.697673 H          1 MOL1         0.3769
       8    C3      17.970247   14.529018   22.242650 C.3        1 MOL1         0.1053
       9    H4      17.956970   15.468781   22.813811 H          1 MOL1         0.0783
      10    O3      18.187491   13.418746   23.120267 O.3        1 MOL1        -0.5519
      11    H5      17.400154   13.395499   23.706337 H          1 MOL1         0.3769
      12    C4      19.114842   14.618776   21.196047 C.3        1 MOL1         0.1018
      13    H6      19.289938   13.621597   20.771953 H          1 MOL1         0.0783
      14    C5      18.766187   15.605028   20.050679 C.3        1 MOL1         0.1043
      15    H7      18.711986   16.614181   20.475645 H          1 MOL1         0.0783
      16    O4      17.481200   15.244764   19.495300 O.3        1 MOL1        -0.3740
      17    C6      19.802800   15.652292   18.899928 C.3        1 MOL1         0.0138
      18    H8      20.569939   16.392628   19.159059 H          1 MOL1         0.0794
      19    H9      19.304879   16.021780   17.993670 H          1 MOL1         0.0794
      20    O5      20.415275   14.381142   18.643124 O.3        1 MOL1        -0.5486
      21    H10     20.887097   14.112507   19.463421 H          1 MOL1         0.3769
      22    C7      14.585143   20.359452   20.721505 C.3        1 MOL1         0.2972
      23    H11     13.953601   21.244053   20.568973 H          1 MOL1         0.0751
      24    O6      15.954360   20.728160   20.991507 O.3        1 MOL1        -0.3740
      25    C8      14.035343   19.463498   21.862843 C.3        1 MOL1         0.1003
      26    H12     13.062699   19.080674   21.527249 H          1 MOL1         0.0783
      27    O7      13.838322   20.196627   23.080299 O.3        1 MOL1        -0.5519
      28    H13     14.730998   20.505968   23.376756 H          1 MOL1         0.3769
      29    C9      14.967490   18.246583   22.081708 C.3        1 MOL1         0.1053
      30    H14     15.937742   18.610303   22.449997 H          1 MOL1         0.0783
      31    O8      14.383463   17.357901   23.042339 O.3        1 MOL1        -0.5519
      32    H15     14.154716   17.924761   23.811213 H          1 MOL1         0.3769
      33    C10     15.204480   17.479800   20.756117 C.3        1 MOL1         0.1018
      34    H16     14.315233   16.866796   20.559233 H          1 MOL1         0.0783
      35    C11     15.490434   18.410838   19.538753 C.3        1 MOL1         0.1043
      36    H17     16.518485   18.782929   19.626233 H          1 MOL1         0.0783
      37    O9      14.581227   19.541846   19.532898 O.3        1 MOL1        -0.3740
      38    C12     15.380080   17.700332   18.167956 C.3        1 MOL1         0.0138
      39    H18     16.243650   17.033529   18.047658 H          1 MOL1         0.0794
      40    H19     15.445776   18.458576   17.376241 H          1 MOL1         0.0794
      41    O10     14.164140   16.951987   18.039820 O.3        1 MOL1        -0.5486
      42    H20     14.135615   16.584913   17.129349 H          1 MOL1         0.3769
      43    C13     18.491210   23.742905   22.214630 C.3        1 MOL1         0.2972
      44    H21     18.963602   24.660124   22.588473 H          1 MOL1         0.0751
      45    O11     19.445283   22.881497   21.560838 O.3        1 MOL1        -0.3740
      46    C14     17.838920   22.959225   23.381407 C.3        1 MOL1         0.1003
      47    H22     17.064739   23.603560   23.817121 H          1 MOL1         0.0783
      48    O12     18.816102   22.651994   24.390059 O.3        1 MOL1        -0.5519
      49    H23     19.645556   23.127052   24.145640 H          1 MOL1         0.3769
      50    C15     17.150512   21.675074   22.852727 C.3        1 MOL1         0.1053
      51    H24     17.931218   21.002982   22.479617 H          1 MOL1         0.0783
      52    O13     16.436049   21.024355   23.907914 O.3        1 MOL1        -0.5519
      53    H25     17.034656   20.275838   24.183838 H          1 MOL1         0.3769
      54    C16     16.189202   21.978008   21.673468 C.3        1 MOL1         0.1018
      55    H26     15.263112   22.410663   22.074255 H          1 MOL1         0.0783
      56    C17     16.814620   22.936845   20.620442 C.3        1 MOL1         0.1043
      57    H27     17.570874   22.372517   20.059627 H          1 MOL1         0.0783
      58    O14     17.454049   24.067023   21.265573 O.3        1 MOL1        -0.3740
      59    C18     15.790210   23.472111   19.591507 C.3        1 MOL1         0.0138
      60    H28     15.491067   22.643046   18.935905 H          1 MOL1         0.0794
      61    H29     16.285747   24.223289   18.961994 H          1 MOL1         0.0794
      62    O15     14.632237   24.034614   20.221672 O.3        1 MOL1        -0.5486
      63    H30     14.065800   24.417400   19.516508 H          1 MOL1         0.3769
      64    C19     23.591220   22.683098   21.009820 C.3        1 MOL1         0.2972
      65    H31     24.630901   22.927468   20.759138 H          1 MOL1         0.0751
      66    O16     23.432463   21.291246   21.343236 O.3        1 MOL1        -0.3740
      67    C20     23.132076   23.508612   22.237476 C.3        1 MOL1         0.1003
      68    H32     23.225852   24.569647   21.971745 H          1 MOL1         0.0783
      69    O17     23.963481   23.235129   23.377058 O.3        1 MOL1        -0.5519
      70    H33     24.209291   22.276364   23.338590 H          1 MOL1         0.3769
      71    C21     21.644986   23.233142   22.572089 C.3        1 MOL1         0.1053
      72    H34     21.552346   22.190255   22.906067 H          1 MOL1         0.0783
      73    O18     21.244811   24.120802   23.621195 O.3        1 MOL1        -0.5519
      74    H35     22.004461   24.126036   24.247553 H          1 MOL1         0.3769
      75    C22     20.756214   23.422757   21.312854 C.3        1 MOL1         0.1018
      76    H36     20.705539   24.490393   21.063235 H          1 MOL1         0.0783
      77    C23     21.324295   22.641053   20.097516 C.3        1 MOL1         0.1043
      78    H37     21.249397   21.568563   20.314924 H          1 MOL1         0.0783
      79    O19     22.716792   22.991609   19.902513 O.3        1 MOL1        -0.3740
      80    C24     20.550831   22.885347   18.777616 C.3        1 MOL1         0.0138
      81    H38     19.632305   22.283861   18.799145 H          1 MOL1         0.0794
      82    H39     21.158483   22.515178   17.941376 H          1 MOL1         0.0794
      83    O20     20.216856   24.263858   18.574865 O.3        1 MOL1        -0.5486
      84    H40     19.527190   24.495074   19.234595 H          1 MOL1         0.3769
      85    C25     25.173577   17.553894   21.107003 C.3        1 MOL1         0.2972
      86    H41     25.806600   16.671116   20.949403 H          1 MOL1         0.0751
      87    O21     23.814203   17.187585   21.419844 O.3        1 MOL1        -0.3740
      88    C26     25.727261   18.454107   22.242134 C.3        1 MOL1         0.1003
      89    H42     26.704764   18.828630   21.911306 H          1 MOL1         0.0783
      90    O22     25.902538   17.726675   23.466663 O.3        1 MOL1        -0.5519
      91    H43     25.018737   17.355062   23.716243 H          1 MOL1         0.3769
      92    C27     24.797120   19.673957   22.452537 C.3        1 MOL1         0.1053
      93    H44     23.825274   19.309850   22.814892 H          1 MOL1         0.0783
      94    O23     25.373384   20.557438   23.420228 O.3        1 MOL1        -0.5519
      95    H45     25.687955   19.972929   24.145585 H          1 MOL1         0.3769
      96    C28     24.567964   20.434514   21.121776 C.3        1 MOL1         0.1018
      97    H46     25.478664   21.002830   20.893392 H          1 MOL1         0.0783
      98    C29     24.228519   19.487557   19.933857 C.3        1 MOL1         0.1043
      99    H47     23.210859   19.106820   20.076265 H          1 MOL1         0.0783
     100    O24     25.146027   18.364471   19.911792 O.3        1 MOL1        -0.3740
     101    C30     24.254407   20.175466   18.546910 C.3        1 MOL1         0.0138
     102    H48     23.365598   20.813665   18.453842 H          1 MOL1         0.0794
     103    H49     24.173960   19.398396   17.775282 H          1 MOL1         0.0794
     104    O25     25.437954   20.954754   18.334933 O.3        1 MOL1        -0.5486
     105    H50     25.255404   21.861716   18.660217 H          1 MOL1         0.3769
     106    C31     21.213763   14.158790   22.370960 C.3        1 MOL1         0.2972
     107    H51     20.694564   13.237827   22.664540 H          1 MOL1         0.0751
     108    O26     20.296709   15.134051   21.839685 O.3        1 MOL1        -0.3740
     109    C32     21.950170   14.761659   23.592565 C.3        1 MOL1         0.1003
     110    H52     22.713976   14.036021   23.900388 H          1 MOL1         0.0783
     111    O27     21.053342   14.985176   24.689983 O.3        1 MOL1        -0.5519
     112    H53     20.413874   15.694913   24.398159 H          1 MOL1         0.3769
     113    C33     22.666401   16.073504   23.204173 C.3        1 MOL1         0.1053
     114    H54     21.899133   16.812843   22.945570 H          1 MOL1         0.0783
     115    O28     23.424756   16.542067   24.323288 O.3        1 MOL1        -0.5519
     116    H55     22.800754   16.493997   25.082282 H          1 MOL1         0.3769
     117    C34     23.586542   15.876133   21.972346 C.3        1 MOL1         0.1018
     118    H56     24.518009   15.394898   22.298706 H          1 MOL1         0.0783
     119    C35     22.916443   15.046557   20.839435 C.3        1 MOL1         0.1043
     120    H57     22.195123   15.707275   20.348144 H          1 MOL1         0.0783
     121    O29     22.209034   13.888645   21.358830 O.3        1 MOL1        -0.3740
     122    C36     23.910587   14.572625   19.752691 C.3        1 MOL1         0.0138
     123    H58     24.248054   15.449400   19.183390 H          1 MOL1         0.0794
     124    H59     23.379208   13.914505   19.052110 H          1 MOL1         0.0794
     125    O30     25.040320   13.894185   20.315377 O.3        1 MOL1        -0.5486
     126    H60     25.587040   13.558268   19.571760 H          1 MOL1         0.3769
     127    C1      19.212427   18.344498   23.709762 C.2        1 MOL1         0.6021
     128    O1      18.130373   18.828721   23.982275 O.co2      1 MOL1        -0.6904
     129    O2      19.549154   17.221588   24.033188 O.co2      1 MOL1        -0.6904
     130    C2      20.246769   19.222056   23.002103 C.3        1 MOL1        -0.2102
     131    H1      21.198685   19.085414   23.527999 H          1 MOL1         0.0687
     132    H2      19.968842   20.273372   23.133470 H          1 MOL1         0.0687
     133    C3      20.444286   18.899163   21.498187 C.3        1 MOL1        -0.1974
     134    H3      21.337986   19.420257   21.141506 H          1 MOL1         0.0689
     135    H4      20.635167   17.825874   21.377540 H          1 MOL1         0.0689
     136    C4      19.240334   19.311315   20.628457 C.3        1 MOL1        -0.2987
     137    H5      19.110334   20.398747   20.626591 H          1 MOL1         0.0700
     138    H6      19.377434   18.984362   19.590409 H          1 MOL1         0.0700
     139    H7      18.316477   18.862183   21.014321 H          1 MOL1         0.0700
@<TRIPOS>BOND
    1     1     2    1
    2     1     3    1
    3     1     4    1
    4     4     5    1
    5     4     6    1
    6     6     7    1
    7     4     8    1
    8     8     9    1
    9     8    10    1
   10    10    11    1
   11     8    12    1
   12    12    13    1
   13    12    14    1
   14    14    15    1
   15     1    16    1
   16    14    16    1
   17    14    17    1
   18    17    18    1
   19    17    19    1
   20    17    20    1
   21    20    21    1
   22    22    23    1
   23    22    24    1
   24    22    25    1
   25    25    26    1
   26    25    27    1
   27    27    28    1
   28    25    29    1
   29    29    30    1
   30    29    31    1
   31    31    32    1
   32     3    33    1
   33    29    33    1
   34    33    34    1
   35    33    35    1
   36    35    36    1
   37    22    37    1
   38    35    37    1
   39    35    38    1
   40    38    39    1
   41    38    40    1
   42    38    41    1
   43    41    42    1
   44    43    44    1
   45    43    45    1
   46    43    46    1
   47    46    47    1
   48    46    48    1
   49    48    49    1
   50    46    50    1
   51    50    51    1
   52    50    52    1
   53    52    53    1
   54    24    54    1
   55    50    54    1
   56    54    55    1
   57    54    56    1
   58    56    57    1
   59    43    58    1
   60    56    58    1
   61    56    59    1
   62    59    60    1
   63    59    61    1
   64    59    62    1
   65    62    63    1
   66    64    65    1
   67    64    66    1
   68    64    67    1
   69    67    68    1
   70    67    69    1
   71    69    70    1
   72    67    71    1
   73    71    72    1
   74    71    73    1
   75    73    74    1
   76    45    75    1
   77    71    75    1
   78    75    76    1
   79    75    77    1
   80    77    78    1
   81    64    79    1
   82    77    79    1
   83    77    80    1
   84    80    81    1
   85    80    82    1
   86    80    83    1
   87    83    84    1
   88    85    86    1
   89    85    87    1
   90    85    88    1
   91    88    89    1
   92    88    90    1
   93    90    91    1
   94    88    92    1
   95    92    93    1
   96    92    94    1
   97    94    95    1
   98    66    96    1
   99    92    96    1
  100    96    97    1
  101    96    98    1
  102    98    99    1
  103    85   100    1
  104    98   100    1
  105    98   101    1
  106   101   102    1
  107   101   103    1
  108   101   104    1
  109   104   105    1
  110   106   107    1
  111    12   108    1
  112   106   108    1
  113   106   109    1
  114   109   110    1
  115   109   111    1
  116   111   112    1
  117   109   113    1
  118   113   114    1
  119   113   115    1
  120   115   116    1
  121    87   117    1
  122   113   117    1
  123   117   118    1
  124   117   119    1
  125   119   120    1
  126   106   121    1
  127   119   121    1
  128   119   122    1
  129   122   123    1
  130   122   124    1
  131   122   125    1
  132   125   126    1
  133   127   128    1
  134   127   129    2
  135   127   130    1
  136   130   131    1
  137   130   132    1
  138   130   133    1
  139   133   134    1
  140   133   135    1
  141   133   136    1
  142   136   137    1
  143   136   138    1
  144   136   139    1
@<TRIPOS>SUBSTRUCTURE
       1 MOL1            1 RESIDUE      1      MOL     
       2 MOL1          139 RESIDUE      1      MOL     
@<SCITEGIC>MOL_PROPERTY
feprocess Rank
SciTegic.value.IntegerValue
29

@<SCITEGIC>MOL_PROPERTY
Conf_Id
SciTegic.value.IntegerValue
144

@<SCITEGIC>MOL_PROPERTY
Probability
SciTegic.value.DoubleValue
0.02

@<SCITEGIC>MOL_PROPERTY
G
SciTegic.value.DoubleValue
487.048

@<SCITEGIC>MOL_PROPERTY
E
SciTegic.value.DoubleValue
310.717

@<SCITEGIC>MOL_PROPERTY
-TS
SciTegic.value.DoubleValue
176.331

@<SCITEGIC>MOL_PROPERTY
U+W
SciTegic.value.DoubleValue
188.205

@<SCITEGIC>MOL_PROPERTY
U
SciTegic.value.DoubleValue
266.705

@<SCITEGIC>MOL_PROPERTY
W
SciTegic.value.DoubleValue
-78.500

@<SCITEGIC>MOL_PROPERTY
W(PB)
SciTegic.value.DoubleValue
-84.447

@<SCITEGIC>MOL_PROPERTY
W(SA)
SciTegic.value.DoubleValue
5.948

@<SCITEGIC>MOL_PROPERTY
Valence
SciTegic.value.DoubleValue
151.044

@<SCITEGIC>MOL_PROPERTY
Coulomb
SciTegic.value.DoubleValue
138.152

@<SCITEGIC>MOL_PROPERTY
VdW
SciTegic.value.DoubleValue
-22.491

@<SCITEGIC>MOL_PROPERTY
VdW6
SciTegic.value.DoubleValue
-176.073

@<SCITEGIC>MOL_PROPERTY
VdW12
SciTegic.value.DoubleValue
153.582

@<SCITEGIC>MOL_PROPERTY
Bond
SciTegic.value.DoubleValue
4.976

@<SCITEGIC>MOL_PROPERTY
Angle
SciTegic.value.DoubleValue
14.296

@<SCITEGIC>MOL_PROPERTY
Pdih
SciTegic.value.DoubleValue
131.760

@<SCITEGIC>MOL_PROPERTY
Idih
SciTegic.value.DoubleValue
0.012

@<SCITEGIC>MOL_PROPERTY
Tether
SciTegic.value.DoubleValue
0.000

@<TRIPOS>MOLECULE
CD_guest-6_fast_vm2_rndm.mol2 : feprocess host+ligand conformer 30
         139         144           2
SMALL
USER_CHARGES
 
@<TRIPOS>ATOM
       1    C1      16.339956   15.342904   20.664638 C.3        1 MOL1         0.2972
       2    H1      15.314655   15.243886   20.285446 H          1 MOL1         0.0751
       3    O1      16.610148   16.683323   21.120416 O.3        1 MOL1        -0.3740
       4    C2      16.604878   14.352427   21.830640 C.3        1 MOL1         0.1003
       5    H2      16.460705   13.339051   21.433990 H          1 MOL1         0.0783
       6    O2      15.692130   14.559973   22.919454 O.3        1 MOL1        -0.5519
       7    H3      15.782921   15.504980   23.204281 H          1 MOL1         0.3769
       8    C3      18.069534   14.466833   22.320780 C.3        1 MOL1         0.1053
       9    H4      18.199037   15.457403   22.775989 H          1 MOL1         0.0783
      10    O3      18.334661   13.450015   23.292679 O.3        1 MOL1        -0.5519
      11    H5      17.562327   13.466682   23.900273 H          1 MOL1         0.3769
      12    C4      19.064562   14.339942   21.139629 C.3        1 MOL1         0.1018
      13    H6      19.072921   13.295270   20.801903 H          1 MOL1         0.0783
      14    C5      18.680124   15.261143   19.947363 C.3        1 MOL1         0.1043
      15    H7      18.822034   16.304751   20.258394 H          1 MOL1         0.0783
      16    O4      17.286412   15.042001   19.615864 O.3        1 MOL1        -0.3740
      17    C6      19.521624   15.055621   18.659791 C.3        1 MOL1         0.0138
      18    H8      20.373390   15.745495   18.684070 H          1 MOL1         0.0794
      19    H9      18.910420   15.345778   17.794748 H          1 MOL1         0.0794
      20    O5      19.994417   13.713226   18.494850 O.3        1 MOL1        -0.5486
      21    H10     20.735636   13.587107   19.132611 H          1 MOL1         0.3769
      22    C7      14.919387   20.381496   21.787307 C.3        1 MOL1         0.2972
      23    H11     14.275129   21.248920   21.981061 H          1 MOL1         0.0751
      24    O6      16.270678   20.787635   21.498192 O.3        1 MOL1        -0.3740
      25    C8      14.908368   19.435938   23.014488 C.3        1 MOL1         0.1003
      26    H12     13.882698   19.059516   23.119923 H          1 MOL1         0.0783
      27    O7      15.268938   20.126210   24.219433 O.3        1 MOL1        -0.5519
      28    H13     16.233069   20.373406   24.141429 H          1 MOL1         0.3769
      29    C9      15.834824   18.224260   22.774484 C.3        1 MOL1         0.1053
      30    H14     16.866533   18.593214   22.696382 H          1 MOL1         0.0783
      31    O8      15.722832   17.314550   23.874295 O.3        1 MOL1        -0.5519
      32    H15     15.843158   17.874222   24.673927 H          1 MOL1         0.3769
      33    C10     15.472765   17.502795   21.453337 C.3        1 MOL1         0.1018
      34    H16     14.566031   16.905100   21.616684 H          1 MOL1         0.0783
      35    C11     15.263471   18.487531   20.266242 C.3        1 MOL1         0.1043
      36    H17     16.255852   18.849417   19.975425 H          1 MOL1         0.0783
      37    O9      14.442782   19.623883   20.652878 O.3        1 MOL1        -0.3740
      38    C12     14.631859   17.828792   19.016486 C.3        1 MOL1         0.0138
      39    H18     15.372103   17.154147   18.565463 H          1 MOL1         0.0794
      40    H19     14.413340   18.611654   18.277805 H          1 MOL1         0.0794
      41    O10     13.440919   17.099501   19.336739 O.3        1 MOL1        -0.5486
      42    H20     13.049739   16.782061   18.493606 H          1 MOL1         0.3769
      43    C13     18.594563   24.006283   20.359486 C.3        1 MOL1         0.2972
      44    H21     19.037424   24.916466   19.935331 H          1 MOL1         0.0751
      45    O11     19.604618   23.135398   20.906255 O.3        1 MOL1        -0.3740
      46    C14     17.527314   24.345349   21.434615 C.3        1 MOL1         0.1003
      47    H22     16.734768   24.906734   20.922863 H          1 MOL1         0.0783
      48    O12     18.059785   25.165868   22.485137 O.3        1 MOL1        -0.5519
      49    H23     18.717383   24.610660   22.975319 H          1 MOL1         0.3769
      50    C15     16.886844   23.058516   22.014233 C.3        1 MOL1         0.1053
      51    H24     17.639911   22.537338   22.621845 H          1 MOL1         0.0783
      52    O13     15.769403   23.431272   22.828076 O.3        1 MOL1        -0.5519
      53    H25     16.122852   24.075653   23.478530 H          1 MOL1         0.3769
      54    C16     16.415788   22.089255   20.896485 C.3        1 MOL1         0.1018
      55    H26     15.464696   22.464019   20.496880 H          1 MOL1         0.0783
      56    C17     17.437183   21.945379   19.730692 C.3        1 MOL1         0.1043
      57    H27     18.283777   21.347565   20.093463 H          1 MOL1         0.0783
      58    O14     17.910263   23.257713   19.331306 O.3        1 MOL1        -0.3740
      59    C18     16.892801   21.217621   18.471939 C.3        1 MOL1         0.0138
      60    H28     17.147606   20.153793   18.547494 H          1 MOL1         0.0794
      61    H29     17.423871   21.600845   17.590334 H          1 MOL1         0.0794
      62    O15     15.478174   21.363559   18.290451 O.3        1 MOL1        -0.5486
      63    H30     15.035135   20.885464   19.029759 H          1 MOL1         0.3769
      64    C19     23.340128   22.576416   22.411811 C.3        1 MOL1         0.2972
      65    H31     24.349800   22.611219   22.839944 H          1 MOL1         0.0751
      66    O16     23.017167   21.250763   21.936710 O.3        1 MOL1        -0.3740
      67    C20     22.306429   23.011549   23.479137 C.3        1 MOL1         0.1003
      68    H32     22.518946   24.058646   23.730115 H          1 MOL1         0.0783
      69    O17     22.435720   22.214668   24.668320 O.3        1 MOL1        -0.5519
      70    H33     21.594833   21.697308   24.780712 H          1 MOL1         0.3769
      71    C21     20.876469   22.943994   22.896128 C.3        1 MOL1         0.1053
      72    H34     20.655926   21.891783   22.678382 H          1 MOL1         0.0783
      73    O18     19.928162   23.447379   23.845075 O.3        1 MOL1        -0.5519
      74    H35     19.763767   22.693185   24.472684 H          1 MOL1         0.3769
      75    C22     20.749326   23.717138   21.560708 C.3        1 MOL1         0.1018
      76    H36     20.619700   24.787303   21.768124 H          1 MOL1         0.0783
      77    C23     21.952028   23.486666   20.600468 C.3        1 MOL1         0.1043
      78    H37     21.809628   22.499932   20.150294 H          1 MOL1         0.0783
      79    O19     23.224245   23.493066   21.300916 O.3        1 MOL1        -0.3740
      80    C24     22.019390   24.507295   19.439796 C.3        1 MOL1         0.0138
      81    H38     21.177288   24.318655   18.760371 H          1 MOL1         0.0794
      82    H39     22.942212   24.333016   18.870282 H          1 MOL1         0.0794
      83    O20     21.971963   25.859827   19.909373 O.3        1 MOL1        -0.5486
      84    H40     22.093315   26.449867   19.133484 H          1 MOL1         0.3769
      85    C25     24.889919   17.667955   20.941629 C.3        1 MOL1         0.2972
      86    H41     25.550204   16.883770   20.549056 H          1 MOL1         0.0751
      87    O21     23.660372   17.125815   21.453895 O.3        1 MOL1        -0.3740
      88    C26     25.573080   18.445157   22.093385 C.3        1 MOL1         0.1003
      89    H42     26.493288   18.884305   21.686599 H          1 MOL1         0.0783
      90    O22     25.911123   17.562181   23.176241 O.3        1 MOL1        -0.5519
      91    H43     25.102749   17.028989   23.386081 H          1 MOL1         0.3769
      92    C27     24.677816   19.604875   22.603606 C.3        1 MOL1         0.1053
      93    H44     23.820908   19.170756   23.137913 H          1 MOL1         0.0783
      94    O23     25.456000   20.408373   23.496155 O.3        1 MOL1        -0.5519
      95    H45     25.847766   19.776865   24.138437 H          1 MOL1         0.3769
      96    C28     24.127051   20.474759   21.438128 C.3        1 MOL1         0.1018
      97    H46     24.936483   21.118632   21.070625 H          1 MOL1         0.0783
      98    C29     23.583375   19.616596   20.260623 C.3        1 MOL1         0.1043
      99    H47     22.660163   19.122686   20.592109 H          1 MOL1         0.0783
     100    O24     24.564217   18.614583   19.903175 O.3        1 MOL1        -0.3740
     101    C30     23.228016   20.420065   18.982950 C.3        1 MOL1         0.0138
     102    H48     22.183546   20.746133   19.058016 H          1 MOL1         0.0794
     103    H49     23.280602   19.744318   18.118850 H          1 MOL1         0.0794
     104    O25     24.081582   21.552863   18.770825 O.3        1 MOL1        -0.5486
     105    H50     23.963153   22.160605   19.535055 H          1 MOL1         0.3769
     106    C31     21.368480   13.743732   21.695292 C.3        1 MOL1         0.2972
     107    H51     20.934278   12.736994   21.749037 H          1 MOL1         0.0751
     108    O26     20.348609   14.759628   21.634709 O.3        1 MOL1        -0.3740
     109    C32     22.233926   14.009468   22.949148 C.3        1 MOL1         0.1003
     110    H52     23.055614   13.281552   22.950289 H          1 MOL1         0.0783
     111    O27     21.447145   13.843912   24.138726 O.3        1 MOL1        -0.5519
     112    H53     20.524189   14.101853   23.903202 H          1 MOL1         0.3769
     113    C33     22.846262   15.427540   22.894209 C.3        1 MOL1         0.1053
     114    H54     22.027460   16.151553   22.982267 H          1 MOL1         0.0783
     115    O28     23.761643   15.602763   23.980965 O.3        1 MOL1        -0.5519
     116    H55     23.269859   15.298391   24.775748 H          1 MOL1         0.3769
     117    C34     23.569545   15.693544   21.552557 C.3        1 MOL1         0.1018
     118    H56     24.557171   15.214590   21.585423 H          1 MOL1         0.0783
     119    C35     22.765674   15.205189   20.312999 C.3        1 MOL1         0.1043
     120    H57     21.943355   15.914907   20.162090 H          1 MOL1         0.0783
     121    O29     22.211626   13.881456   20.533206 O.3        1 MOL1        -0.3740
     122    C36     23.591630   15.176933   19.004676 C.3        1 MOL1         0.0138
     123    H58     23.781826   16.211242   18.688104 H          1 MOL1         0.0794
     124    H59     22.988363   14.702607   18.218874 H          1 MOL1         0.0794
     125    O30     24.833878   14.481642   19.166798 O.3        1 MOL1        -0.5486
     126    H60     25.266883   14.435661   18.286448 H          1 MOL1         0.3769
     127    C1      19.211371   20.244528   24.301047 C.2        1 MOL1         0.6021
     128    O1      18.017443   20.458756   24.243263 O.co2      1 MOL1        -0.6904
     129    O2      19.973559   20.889158   24.997974 O.co2      1 MOL1        -0.6904
     130    C2      19.807887   19.256237   23.301751 C.3        1 MOL1        -0.2102
     131    H1      20.867279   19.499269   23.153906 H          1 MOL1         0.0687
     132    H2      19.305823   19.419489   22.340739 H          1 MOL1         0.0687
     133    C3      19.657440   17.772530   23.717121 C.3        1 MOL1        -0.1974
     134    H3      18.601827   17.551555   23.920980 H          1 MOL1         0.0689
     135    H4      19.957897   17.137015   22.875461 H          1 MOL1         0.0689
     136    C4      20.504729   17.419697   24.956679 C.3        1 MOL1        -0.2987
     137    H5      20.175092   17.994422   25.832044 H          1 MOL1         0.0700
     138    H6      20.413355   16.353223   25.198052 H          1 MOL1         0.0700
     139    H7      21.565528   17.643755   24.785369 H          1 MOL1         0.0700
@<TRIPOS>BOND
    1     1     2    1
    2     1     3    1
    3     1     4    1
    4     4     5    1
    5     4     6    1
    6     6     7    1
    7     4     8    1
    8     8     9    1
    9     8    10    1
   10    10    11    1
   11     8    12    1
   12    12    13    1
   13    12    14    1
   14    14    15    1
   15     1    16    1
   16    14    16    1
   17    14    17    1
   18    17    18    1
   19    17    19    1
   20    17    20    1
   21    20    21    1
   22    22    23    1
   23    22    24    1
   24    22    25    1
   25    25    26    1
   26    25    27    1
   27    27    28    1
   28    25    29    1
   29    29    30    1
   30    29    31    1
   31    31    32    1
   32     3    33    1
   33    29    33    1
   34    33    34    1
   35    33    35    1
   36    35    36    1
   37    22    37    1
   38    35    37    1
   39    35    38    1
   40    38    39    1
   41    38    40    1
   42    38    41    1
   43    41    42    1
   44    43    44    1
   45    43    45    1
   46    43    46    1
   47    46    47    1
   48    46    48    1
   49    48    49    1
   50    46    50    1
   51    50    51    1
   52    50    52    1
   53    52    53    1
   54    24    54    1
   55    50    54    1
   56    54    55    1
   57    54    56    1
   58    56    57    1
   59    43    58    1
   60    56    58    1
   61    56    59    1
   62    59    60    1
   63    59    61    1
   64    59    62    1
   65    62    63    1
   66    64    65    1
   67    64    66    1
   68    64    67    1
   69    67    68    1
   70    67    69    1
   71    69    70    1
   72    67    71    1
   73    71    72    1
   74    71    73    1
   75    73    74    1
   76    45    75    1
   77    71    75    1
   78    75    76    1
   79    75    77    1
   80    77    78    1
   81    64    79    1
   82    77    79    1
   83    77    80    1
   84    80    81    1
   85    80    82    1
   86    80    83    1
   87    83    84    1
   88    85    86    1
   89    85    87    1
   90    85    88    1
   91    88    89    1
   92    88    90    1
   93    90    91    1
   94    88    92    1
   95    92    93    1
   96    92    94    1
   97    94    95    1
   98    66    96    1
   99    92    96    1
  100    96    97    1
  101    96    98    1
  102    98    99    1
  103    85   100    1
  104    98   100    1
  105    98   101    1
  106   101   102    1
  107   101   103    1
  108   101   104    1
  109   104   105    1
  110   106   107    1
  111    12   108    1
  112   106   108    1
  113   106   109    1
  114   109   110    1
  115   109   111    1
  116   111   112    1
  117   109   113    1
  118   113   114    1
  119   113   115    1
  120   115   116    1
  121    87   117    1
  122   113   117    1
  123   117   118    1
  124   117   119    1
  125   119   120    1
  126   106   121    1
  127   119   121    1
  128   119   122    1
  129   122   123    1
  130   122   124    1
  131   122   125    1
  132   125   126    1
  133   127   128    1
  134   127   129    2
  135   127   130    1
  136   130   131    1
  137   130   132    1
  138   130   133    1
  139   133   134    1
  140   133   135    1
  141   133   136    1
  142   136   137    1
  143   136   138    1
  144   136   139    1
@<TRIPOS>SUBSTRUCTURE
       1 MOL1            1 RESIDUE      1      MOL     
       2 MOL1          139 RESIDUE      1      MOL     
@<SCITEGIC>MOL_PROPERTY
feprocess Rank
SciTegic.value.IntegerValue
30

@<SCITEGIC>MOL_PROPERTY
Conf_Id
SciTegic.value.IntegerValue
307

@<SCITEGIC>MOL_PROPERTY
Probability
SciTegic.value.DoubleValue
0.02

@<SCITEGIC>MOL_PROPERTY
G
SciTegic.value.DoubleValue
487.082

@<SCITEGIC>MOL_PROPERTY
E
SciTegic.value.DoubleValue
310.387

@<SCITEGIC>MOL_PROPERTY
-TS
SciTegic.value.DoubleValue
176.696

@<SCITEGIC>MOL_PROPERTY
U+W
SciTegic.value.DoubleValue
187.875

@<SCITEGIC>MOL_PROPERTY
U
SciTegic.value.DoubleValue
261.412

@<SCITEGIC>MOL_PROPERTY
W
SciTegic.value.DoubleValue
-73.536

@<SCITEGIC>MOL_PROPERTY
W(PB)
SciTegic.value.DoubleValue
-79.543

@<SCITEGIC>MOL_PROPERTY
W(SA)
SciTegic.value.DoubleValue
6.006

@<SCITEGIC>MOL_PROPERTY
Valence
SciTegic.value.DoubleValue
151.605

@<SCITEGIC>MOL_PROPERTY
Coulomb
SciTegic.value.DoubleValue
128.100

@<SCITEGIC>MOL_PROPERTY
VdW
SciTegic.value.DoubleValue
-18.293

@<SCITEGIC>MOL_PROPERTY
VdW6
SciTegic.value.DoubleValue
-172.088

@<SCITEGIC>MOL_PROPERTY
VdW12
SciTegic.value.DoubleValue
153.794

@<SCITEGIC>MOL_PROPERTY
Bond
SciTegic.value.DoubleValue
5.104

@<SCITEGIC>MOL_PROPERTY
Angle
SciTegic.value.DoubleValue
15.079

@<SCITEGIC>MOL_PROPERTY
Pdih
SciTegic.value.DoubleValue
131.367

@<SCITEGIC>MOL_PROPERTY
Idih
SciTegic.value.DoubleValue
0.055

@<SCITEGIC>MOL_PROPERTY
Tether
SciTegic.value.DoubleValue
0.000

@<TRIPOS>MOLECULE
CD_guest-6_fast_vm2_rndm.mol2 : feprocess host+ligand conformer 31
         139         144           2
SMALL
USER_CHARGES
 
@<TRIPOS>ATOM
       1    C1      16.105989   15.173955   21.661846 C.3        1 MOL1         0.2972
       2    H1      15.029470   15.000931   21.788082 H          1 MOL1         0.0751
       3    O1      16.403454   16.569549   21.476661 O.3        1 MOL1        -0.3740
       4    C2      16.866751   14.691208   22.919176 C.3        1 MOL1         0.1003
       5    H2      16.694831   13.611545   23.018545 H          1 MOL1         0.0783
       6    O2      16.372972   15.362320   24.089574 O.3        1 MOL1        -0.5519
       7    H3      15.995960   16.223711   23.785427 H          1 MOL1         0.3769
       8    C3      18.387413   14.923105   22.761254 C.3        1 MOL1         0.1053
       9    H4      18.567656   16.006698   22.760877 H          1 MOL1         0.0783
      10    O3      19.076178   14.321717   23.863015 O.3        1 MOL1        -0.5519
      11    H5      18.586310   14.622258   24.660670 H          1 MOL1         0.3769
      12    C4      18.918518   14.338122   21.428158 C.3        1 MOL1         0.1018
      13    H6      19.012653   13.249526   21.537991 H          1 MOL1         0.0783
      14    C5      18.012594   14.680225   20.207824 C.3        1 MOL1         0.1043
      15    H7      18.157072   15.742323   19.973236 H          1 MOL1         0.0783
      16    O4      16.613107   14.452958   20.520357 O.3        1 MOL1        -0.3740
      17    C6      18.360699   13.881654   18.928972 C.3        1 MOL1         0.0138
      18    H8      19.318468   14.249919   18.537132 H          1 MOL1         0.0794
      19    H9      17.596700   14.089100   18.167689 H          1 MOL1         0.0794
      20    O5      18.445851   12.473079   19.178200 O.3        1 MOL1        -0.5486
      21    H10     18.584503   12.025447   18.315112 H          1 MOL1         0.3769
      22    C7      14.793315   20.244843   20.529468 C.3        1 MOL1         0.2972
      23    H11     14.194895   21.098937   20.189812 H          1 MOL1         0.0751
      24    O6      16.148776   20.642472   20.850042 O.3        1 MOL1        -0.3740
      25    C8      14.130734   19.544792   21.746128 C.3        1 MOL1         0.1003
      26    H12     13.178913   19.125593   21.394412 H          1 MOL1         0.0783
      27    O7      13.854656   20.458845   22.815934 O.3        1 MOL1        -0.5519
      28    H13     14.730426   20.748294   23.175199 H          1 MOL1         0.3769
      29    C9      15.016409   18.368080   22.221950 C.3        1 MOL1         0.1053
      30    H14     15.971346   18.774791   22.582706 H          1 MOL1         0.0783
      31    O8      14.362189   17.660471   23.280669 O.3        1 MOL1        -0.5519
      32    H15     14.010385   18.356508   23.878871 H          1 MOL1         0.3769
      33    C10     15.311372   17.400125   21.048616 C.3        1 MOL1         0.1018
      34    H16     14.402024   16.818940   20.848119 H          1 MOL1         0.0783
      35    C11     15.750813   18.131784   19.745151 C.3        1 MOL1         0.1043
      36    H17     16.761493   18.523505   19.889409 H          1 MOL1         0.0783
      37    O9      14.861432   19.247529   19.483597 O.3        1 MOL1        -0.3740
      38    C12     15.822216   17.227139   18.486624 C.3        1 MOL1         0.0138
      39    H18     16.838912   16.820772   18.411540 H          1 MOL1         0.0794
      40    H19     15.664841   17.851941   17.597358 H          1 MOL1         0.0794
      41    O10     14.880796   16.147444   18.502651 O.3        1 MOL1        -0.5486
      42    H20     15.240854   15.463069   19.112879 H          1 MOL1         0.3769
      43    C13     18.630600   23.752450   22.068721 C.3        1 MOL1         0.2972
      44    H21     19.057570   24.699758   22.422296 H          1 MOL1         0.0751
      45    O11     19.657016   22.846938   21.627574 O.3        1 MOL1        -0.3740
      46    C14     17.811148   23.087669   23.201365 C.3        1 MOL1         0.1003
      47    H22     16.973531   23.762125   23.421395 H          1 MOL1         0.0783
      48    O12     18.581591   22.923433   24.402306 O.3        1 MOL1        -0.5519
      49    H23     19.346464   22.311053   24.212217 H          1 MOL1         0.3769
      50    C15     17.213512   21.743174   22.729655 C.3        1 MOL1         0.1053
      51    H24     18.039839   21.055661   22.506024 H          1 MOL1         0.0783
      52    O13     16.411209   21.211588   23.787160 O.3        1 MOL1        -0.5519
      53    H25     16.966057   21.315129   24.593417 H          1 MOL1         0.3769
      54    C16     16.370925   21.943314   21.439364 C.3        1 MOL1         0.1018
      55    H26     15.429587   22.441711   21.703215 H          1 MOL1         0.0783
      56    C17     17.137901   22.780110   20.373884 C.3        1 MOL1         0.1043
      57    H27     17.936121   22.140335   19.979872 H          1 MOL1         0.0783
      58    O14     17.733576   23.971621   20.956657 O.3        1 MOL1        -0.3740
      59    C18     16.260460   23.211128   19.173439 C.3        1 MOL1         0.0138
      60    H28     15.938055   22.312519   18.630099 H          1 MOL1         0.0794
      61    H29     16.880023   23.798863   18.483104 H          1 MOL1         0.0794
      62    O15     15.118684   23.979063   19.576213 O.3        1 MOL1        -0.5486
      63    H30     14.519290   23.397637   20.087143 H          1 MOL1         0.3769
      64    C19     23.658779   22.672388   20.623487 C.3        1 MOL1         0.2972
      65    H31     24.678736   22.805202   20.240675 H          1 MOL1         0.0751
      66    O16     23.443027   21.328985   21.098365 O.3        1 MOL1        -0.3740
      67    C20     23.341475   23.685916   21.754179 C.3        1 MOL1         0.1003
      68    H32     23.407916   24.687254   21.309227 H          1 MOL1         0.0783
      69    O17     24.287193   23.599509   22.830816 O.3        1 MOL1        -0.5519
      70    H33     24.176572   22.703777   23.239310 H          1 MOL1         0.3769
      71    C21     21.894063   23.500300   22.277592 C.3        1 MOL1         0.1053
      72    H34     21.842017   22.544956   22.817898 H          1 MOL1         0.0783
      73    O18     21.585590   24.584318   23.160709 O.3        1 MOL1        -0.5519
      74    H35     22.293270   24.575578   23.840733 H          1 MOL1         0.3769
      75    C22     20.859531   23.456481   21.119068 C.3        1 MOL1         0.1018
      76    H36     20.680591   24.484078   20.777812 H          1 MOL1         0.0783
      77    C23     21.322644   22.591282   19.911525 C.3        1 MOL1         0.1043
      78    H37     21.264945   21.535521   20.203804 H          1 MOL1         0.0783
      79    O19     22.695366   22.915151   19.574063 O.3        1 MOL1        -0.3740
      80    C24     20.444489   22.736075   18.640656 C.3        1 MOL1         0.0138
      81    H38     19.652951   21.977554   18.680939 H          1 MOL1         0.0794
      82    H39     21.059050   22.499990   17.761723 H          1 MOL1         0.0794
      83    O20     19.858459   24.036617   18.495329 O.3        1 MOL1        -0.5486
      84    H40     19.225094   24.158735   19.239220 H          1 MOL1         0.3769
      85    C25     24.916421   17.738292   22.285132 C.3        1 MOL1         0.2972
      86    H41     25.460389   16.846445   22.621705 H          1 MOL1         0.0751
      87    O21     23.583243   17.405127   21.840658 O.3        1 MOL1        -0.3740
      88    C26     24.836800   18.771763   23.435433 C.3        1 MOL1         0.1003
      89    H42     25.860167   19.111693   23.639525 H          1 MOL1         0.0783
      90    O22     24.303670   18.173240   24.627212 O.3        1 MOL1        -0.5519
      91    H43     23.361682   18.477838   24.717516 H          1 MOL1         0.3769
      92    C27     24.008293   19.995905   22.981401 C.3        1 MOL1         0.1053
      93    H44     22.992531   19.646874   22.773589 H          1 MOL1         0.0783
      94    O23     23.953327   20.986209   24.014469 O.3        1 MOL1        -0.5519
      95    H45     23.217887   20.684799   24.611261 H          1 MOL1         0.3769
      96    C28     24.552849   20.605753   21.665531 C.3        1 MOL1         0.1018
      97    H46     25.408862   21.255068   21.891115 H          1 MOL1         0.0783
      98    C29     24.936274   19.531278   20.604581 C.3        1 MOL1         0.1043
      99    H47     23.999186   19.190358   20.153859 H          1 MOL1         0.0783
     100    O24     25.605597   18.381563   21.190338 O.3        1 MOL1        -0.3740
     101    C30     25.813544   20.083623   19.456525 C.3        1 MOL1         0.0138
     102    H48     25.203801   20.765973   18.849071 H          1 MOL1         0.0794
     103    H49     26.111570   19.248718   18.808064 H          1 MOL1         0.0794
     104    O25     26.970600   20.770985   19.947470 O.3        1 MOL1        -0.5486
     105    H50     27.516624   21.027783   19.172396 H          1 MOL1         0.3769
     106    C31     21.258031   14.142197   20.701130 C.3        1 MOL1         0.2972
     107    H51     20.875121   13.208733   20.269102 H          1 MOL1         0.0751
     108    O26     20.193117   14.969686   21.204498 O.3        1 MOL1        -0.3740
     109    C32     22.245990   13.855315   21.860707 C.3        1 MOL1         0.1003
     110    H52     23.063313   13.253128   21.443087 H          1 MOL1         0.0783
     111    O27     21.610110   13.112735   22.913794 O.3        1 MOL1        -0.5519
     112    H53     20.803468   13.620421   23.185257 H          1 MOL1         0.3769
     113    C33     22.862357   15.163923   22.420739 C.3        1 MOL1         0.1053
     114    H54     22.077073   15.713072   22.959433 H          1 MOL1         0.0783
     115    O28     23.921566   14.813161   23.317002 O.3        1 MOL1        -0.5519
     116    H55     23.530999   14.160456   23.938127 H          1 MOL1         0.3769
     117    C34     23.403266   16.083949   21.291672 C.3        1 MOL1         0.1018
     118    H56     24.348594   15.666895   20.921113 H          1 MOL1         0.0783
     119    C35     22.404141   16.216459   20.107659 C.3        1 MOL1         0.1043
     120    H57     21.537672   16.795068   20.452148 H          1 MOL1         0.0783
     121    O29     21.970457   14.897267   19.698671 O.3        1 MOL1        -0.3740
     122    C36     22.964257   16.951682   18.862521 C.3        1 MOL1         0.0138
     123    H58     22.728749   18.018779   18.956792 H          1 MOL1         0.0794
     124    H59     22.427466   16.593672   17.973878 H          1 MOL1         0.0794
     125    O30     24.376617   16.774963   18.685864 O.3        1 MOL1        -0.5486
     126    H60     24.824289   17.171417   19.467804 H          1 MOL1         0.3769
     127    C1      20.846969   19.814159   24.399890 C.2        1 MOL1         0.6021
     128    O1      20.591522   21.001502   24.423985 O.co2      1 MOL1        -0.6904
     129    O2      21.784670   19.321503   24.997683 O.co2      1 MOL1        -0.6904
     130    C2      20.034298   18.925771   23.462794 C.3        1 MOL1        -0.2102
     131    H1      18.977484   19.074987   23.712820 H          1 MOL1         0.0687
     132    H2      20.271340   17.875695   23.672622 H          1 MOL1         0.0687
     133    C3      20.279941   19.238848   21.965654 C.3        1 MOL1        -0.1974
     134    H3      20.234768   20.323001   21.816043 H          1 MOL1         0.0689
     135    H4      21.284834   18.917001   21.669806 H          1 MOL1         0.0689
     136    C4      19.235502   18.564382   21.064695 C.3        1 MOL1        -0.2987
     137    H5      19.369175   18.862060   20.017279 H          1 MOL1         0.0700
     138    H6      19.311319   17.474442   21.127020 H          1 MOL1         0.0700
     139    H7      18.230093   18.856456   21.385635 H          1 MOL1         0.0700
@<TRIPOS>BOND
    1     1     2    1
    2     1     3    1
    3     1     4    1
    4     4     5    1
    5     4     6    1
    6     6     7    1
    7     4     8    1
    8     8     9    1
    9     8    10    1
   10    10    11    1
   11     8    12    1
   12    12    13    1
   13    12    14    1
   14    14    15    1
   15     1    16    1
   16    14    16    1
   17    14    17    1
   18    17    18    1
   19    17    19    1
   20    17    20    1
   21    20    21    1
   22    22    23    1
   23    22    24    1
   24    22    25    1
   25    25    26    1
   26    25    27    1
   27    27    28    1
   28    25    29    1
   29    29    30    1
   30    29    31    1
   31    31    32    1
   32     3    33    1
   33    29    33    1
   34    33    34    1
   35    33    35    1
   36    35    36    1
   37    22    37    1
   38    35    37    1
   39    35    38    1
   40    38    39    1
   41    38    40    1
   42    38    41    1
   43    41    42    1
   44    43    44    1
   45    43    45    1
   46    43    46    1
   47    46    47    1
   48    46    48    1
   49    48    49    1
   50    46    50    1
   51    50    51    1
   52    50    52    1
   53    52    53    1
   54    24    54    1
   55    50    54    1
   56    54    55    1
   57    54    56    1
   58    56    57    1
   59    43    58    1
   60    56    58    1
   61    56    59    1
   62    59    60    1
   63    59    61    1
   64    59    62    1
   65    62    63    1
   66    64    65    1
   67    64    66    1
   68    64    67    1
   69    67    68    1
   70    67    69    1
   71    69    70    1
   72    67    71    1
   73    71    72    1
   74    71    73    1
   75    73    74    1
   76    45    75    1
   77    71    75    1
   78    75    76    1
   79    75    77    1
   80    77    78    1
   81    64    79    1
   82    77    79    1
   83    77    80    1
   84    80    81    1
   85    80    82    1
   86    80    83    1
   87    83    84    1
   88    85    86    1
   89    85    87    1
   90    85    88    1
   91    88    89    1
   92    88    90    1
   93    90    91    1
   94    88    92    1
   95    92    93    1
   96    92    94    1
   97    94    95    1
   98    66    96    1
   99    92    96    1
  100    96    97    1
  101    96    98    1
  102    98    99    1
  103    85   100    1
  104    98   100    1
  105    98   101    1
  106   101   102    1
  107   101   103    1
  108   101   104    1
  109   104   105    1
  110   106   107    1
  111    12   108    1
  112   106   108    1
  113   106   109    1
  114   109   110    1
  115   109   111    1
  116   111   112    1
  117   109   113    1
  118   113   114    1
  119   113   115    1
  120   115   116    1
  121    87   117    1
  122   113   117    1
  123   117   118    1
  124   117   119    1
  125   119   120    1
  126   106   121    1
  127   119   121    1
  128   119   122    1
  129   122   123    1
  130   122   124    1
  131   122   125    1
  132   125   126    1
  133   127   128    1
  134   127   129    2
  135   127   130    1
  136   130   131    1
  137   130   132    1
  138   130   133    1
  139   133   134    1
  140   133   135    1
  141   133   136    1
  142   136   137    1
  143   136   138    1
  144   136   139    1
@<TRIPOS>SUBSTRUCTURE
       1 MOL1            1 RESIDUE      1      MOL     
       2 MOL1          139 RESIDUE      1      MOL     
@<SCITEGIC>MOL_PROPERTY
feprocess Rank
SciTegic.value.IntegerValue
31

@<SCITEGIC>MOL_PROPERTY
Conf_Id
SciTegic.value.IntegerValue
194

@<SCITEGIC>MOL_PROPERTY
Probability
SciTegic.value.DoubleValue
0.01

@<SCITEGIC>MOL_PROPERTY
G
SciTegic.value.DoubleValue
487.214

@<SCITEGIC>MOL_PROPERTY
E
SciTegic.value.DoubleValue
309.547

@<SCITEGIC>MOL_PROPERTY
-TS
SciTegic.value.DoubleValue
177.668

@<SCITEGIC>MOL_PROPERTY
U+W
SciTegic.value.DoubleValue
187.035

@<SCITEGIC>MOL_PROPERTY
U
SciTegic.value.DoubleValue
259.983

@<SCITEGIC>MOL_PROPERTY
W
SciTegic.value.DoubleValue
-72.948

@<SCITEGIC>MOL_PROPERTY
W(PB)
SciTegic.value.DoubleValue
-78.906

@<SCITEGIC>MOL_PROPERTY
W(SA)
SciTegic.value.DoubleValue
5.958

@<SCITEGIC>MOL_PROPERTY
Valence
SciTegic.value.DoubleValue
152.939

@<SCITEGIC>MOL_PROPERTY
Coulomb
SciTegic.value.DoubleValue
127.710

@<SCITEGIC>MOL_PROPERTY
VdW
SciTegic.value.DoubleValue
-20.665

@<SCITEGIC>MOL_PROPERTY
VdW6
SciTegic.value.DoubleValue
-177.255

@<SCITEGIC>MOL_PROPERTY
VdW12
SciTegic.value.DoubleValue
156.589

@<SCITEGIC>MOL_PROPERTY
Bond
SciTegic.value.DoubleValue
5.320

@<SCITEGIC>MOL_PROPERTY
Angle
SciTegic.value.DoubleValue
16.012

@<SCITEGIC>MOL_PROPERTY
Pdih
SciTegic.value.DoubleValue
131.580

@<SCITEGIC>MOL_PROPERTY
Idih
SciTegic.value.DoubleValue
0.026

@<SCITEGIC>MOL_PROPERTY
Tether
SciTegic.value.DoubleValue
0.000

@<TRIPOS>MOLECULE
CD_guest-6_fast_vm2_rndm.mol2 : feprocess host+ligand conformer 32
         139         144           2
SMALL
USER_CHARGES
 
@<TRIPOS>ATOM
       1    C1      16.176638   15.054067   21.752380 C.3        1 MOL1         0.2972
       2    H1      15.103839   14.921920   21.942920 H          1 MOL1         0.0751
       3    O1      16.547762   16.448176   21.709084 O.3        1 MOL1        -0.3740
       4    C2      16.998079   14.370523   22.870378 C.3        1 MOL1         0.1003
       5    H2      16.800531   13.291886   22.825056 H          1 MOL1         0.0783
       6    O2      16.588550   14.874031   24.151466 O.3        1 MOL1        -0.5519
       7    H3      16.370900   15.829839   24.031980 H          1 MOL1         0.3769
       8    C3      18.509578   14.591746   22.621847 C.3        1 MOL1         0.1053
       9    H4      18.708453   15.663801   22.722802 H          1 MOL1         0.0783
      10    O3      19.299838   13.876606   23.578011 O.3        1 MOL1        -0.5519
      11    H5      19.424998   14.521766   24.326327 H          1 MOL1         0.3769
      12    C4      18.925561   14.177203   21.189236 C.3        1 MOL1         0.1018
      13    H6      19.037223   13.085289   21.155806 H          1 MOL1         0.0783
      14    C5      17.931380   14.661011   20.091782 C.3        1 MOL1         0.1043
      15    H7      18.099214   15.736093   19.950690 H          1 MOL1         0.0783
      16    O4      16.552960   14.452910   20.496810 O.3        1 MOL1        -0.3740
      17    C6      18.144917   13.986024   18.716011 C.3        1 MOL1         0.0138
      18    H8      19.080513   14.364490   18.282595 H          1 MOL1         0.0794
      19    H9      17.329509   14.290315   18.045980 H          1 MOL1         0.0794
      20    O5      18.198985   12.557982   18.818351 O.3        1 MOL1        -0.5486
      21    H10     18.250675   12.195224   17.907058 H          1 MOL1         0.3769
      22    C7      14.821441   20.248486   21.401570 C.3        1 MOL1         0.2972
      23    H11     14.097618   21.061062   21.258010 H          1 MOL1         0.0751
      24    O6      16.154316   20.757107   21.594041 O.3        1 MOL1        -0.3740
      25    C8      14.442268   19.429727   22.661329 C.3        1 MOL1         0.1003
      26    H12     13.426016   19.043107   22.510176 H          1 MOL1         0.0783
      27    O7      14.460737   20.268757   23.827268 O.3        1 MOL1        -0.5519
      28    H13     15.071094   21.019972   23.626454 H          1 MOL1         0.3769
      29    C9      15.389980   18.220624   22.847141 C.3        1 MOL1         0.1053
      30    H14     16.394642   18.600071   23.081357 H          1 MOL1         0.0783
      31    O8      14.914702   17.406093   23.922918 O.3        1 MOL1        -0.5519
      32    H15     14.707065   18.038423   24.646719 H          1 MOL1         0.3769
      33    C10     15.473389   17.389627   21.544097 C.3        1 MOL1         0.1018
      34    H16     14.508814   16.892278   21.377009 H          1 MOL1         0.0783
      35    C11     15.805807   18.286360   20.321108 C.3        1 MOL1         0.1043
      36    H17     16.811121   18.701221   20.470582 H          1 MOL1         0.0783
      37    O9      14.841857   19.368865   20.254290 O.3        1 MOL1        -0.3740
      38    C12     15.818205   17.547105   18.957350 C.3        1 MOL1         0.0138
      39    H18     16.829060   17.159130   18.780867 H          1 MOL1         0.0794
      40    H19     15.616183   18.276372   18.161406 H          1 MOL1         0.0794
      41    O10     14.875528   16.470803   18.888023 O.3        1 MOL1        -0.5486
      42    H20     15.259285   15.718330   19.395567 H          1 MOL1         0.3769
      43    C13     18.475030   24.155699   20.897812 C.3        1 MOL1         0.2972
      44    H21     18.828959   25.142343   20.573247 H          1 MOL1         0.0751
      45    O11     19.524453   23.407096   21.541331 O.3        1 MOL1        -0.3740
      46    C14     17.332340   24.323543   21.931273 C.3        1 MOL1         0.1003
      47    H22     16.533122   24.904873   21.453429 H          1 MOL1         0.0783
      48    O12     17.814231   25.028834   23.085880 O.3        1 MOL1        -0.5519
      49    H23     18.728857   24.695122   23.251892 H          1 MOL1         0.3769
      50    C15     16.747740   22.951819   22.348027 C.3        1 MOL1         0.1053
      51    H24     17.511109   22.419224   22.928105 H          1 MOL1         0.0783
      52    O13     15.582555   23.148108   23.156010 O.3        1 MOL1        -0.5519
      53    H25     15.838583   23.831659   23.814405 H          1 MOL1         0.3769
      54    C16     16.393909   22.091784   21.111323 C.3        1 MOL1         0.1018
      55    H26     15.507997   22.524135   20.627829 H          1 MOL1         0.0783
      56    C17     17.560181   22.038691   20.087200 C.3        1 MOL1         0.1043
      57    H27     18.398480   21.499468   20.547378 H          1 MOL1         0.0783
      58    O14     17.973209   23.393681   19.777652 O.3        1 MOL1        -0.3740
      59    C18     17.225613   21.306908   18.760652 C.3        1 MOL1         0.0138
      60    H28     17.446446   20.239873   18.887255 H          1 MOL1         0.0794
      61    H29     17.896617   21.678224   17.975219 H          1 MOL1         0.0794
      62    O15     15.862807   21.467267   18.351182 O.3        1 MOL1        -0.5486
      63    H30     15.324733   20.850910   18.900513 H          1 MOL1         0.3769
      64    C19     23.642723   22.731892   21.307712 C.3        1 MOL1         0.2972
      65    H31     24.720933   22.823756   21.123636 H          1 MOL1         0.0751
      66    O16     23.288003   21.409929   21.754572 O.3        1 MOL1        -0.3740
      67    C20     23.183057   23.738006   22.392124 C.3        1 MOL1         0.1003
      68    H32     23.442184   24.744511   22.038941 H          1 MOL1         0.0783
      69    O17     23.852766   23.483588   23.638405 O.3        1 MOL1        -0.5519
      70    H33     23.784850   22.510877   23.815345 H          1 MOL1         0.3769
      71    C21     21.647790   23.678455   22.587022 C.3        1 MOL1         0.1053
      72    H34     21.406771   22.709782   23.044213 H          1 MOL1         0.0783
      73    O18     21.238494   24.739333   23.457914 O.3        1 MOL1        -0.5519
      74    H35     21.858631   24.700523   24.219118 H          1 MOL1         0.3769
      75    C22     20.885107   23.779809   21.239852 C.3        1 MOL1         0.1018
      76    H36     20.954380   24.816547   20.885559 H          1 MOL1         0.0783
      77    C23     21.474529   22.812010   20.169991 C.3        1 MOL1         0.1043
      78    H37     21.263573   21.781637   20.483528 H          1 MOL1         0.0783
      79    O19     22.907029   23.008290   20.098780 O.3        1 MOL1        -0.3740
      80    C24     20.918644   22.968585   18.732214 C.3        1 MOL1         0.0138
      81    H38     20.024254   22.343190   18.632430 H          1 MOL1         0.0794
      82    H39     21.659917   22.567176   18.028343 H          1 MOL1         0.0794
      83    O20     20.605332   24.322597   18.389444 O.3        1 MOL1        -0.5486
      84    H40     19.651917   24.447400   18.592639 H          1 MOL1         0.3769
      85    C25     24.839917   17.600369   22.157455 C.3        1 MOL1         0.2972
      86    H41     25.466081   16.709297   22.295233 H          1 MOL1         0.0751
      87    O21     23.481237   17.235461   21.840042 O.3        1 MOL1        -0.3740
      88    C26     24.880429   18.470184   23.440752 C.3        1 MOL1         0.1003
      89    H42     25.913950   18.823655   23.549925 H          1 MOL1         0.0783
      90    O22     24.538016   17.719611   24.614388 O.3        1 MOL1        -0.5519
      91    H43     23.599299   17.396231   24.513207 H          1 MOL1         0.3769
      92    C27     23.979509   19.714186   23.282920 C.3        1 MOL1         0.1053
      93    H44     22.939918   19.377095   23.171912 H          1 MOL1         0.0783
      94    O23     24.104308   20.553978   24.436625 O.3        1 MOL1        -0.5519
      95    H45     24.013182   19.944024   25.202319 H          1 MOL1         0.3769
      96    C28     24.380991   20.510703   22.019572 C.3        1 MOL1         0.1018
      97    H46     25.313801   21.049230   22.233868 H          1 MOL1         0.0783
      98    C29     24.557562   19.605607   20.766577 C.3        1 MOL1         0.1043
      99    H47     23.552469   19.303966   20.456086 H          1 MOL1         0.0783
     100    O24     25.335718   18.415402   21.071995 O.3        1 MOL1        -0.3740
     101    C30     25.220860   20.322547   19.565380 C.3        1 MOL1         0.0138
     102    H48     24.506744   21.045515   19.149453 H          1 MOL1         0.0794
     103    H49     25.424395   19.582391   18.780135 H          1 MOL1         0.0794
     104    O25     26.430232   20.992879   19.940921 O.3        1 MOL1        -0.5486
     105    H50     26.834802   21.357622   19.123739 H          1 MOL1         0.3769
     106    C31     21.211768   14.122720   20.285852 C.3        1 MOL1         0.2972
     107    H51     20.812764   13.258515   19.739248 H          1 MOL1         0.0751
     108    O26     20.168599   14.861428   20.946590 O.3        1 MOL1        -0.3740
     109    C32     22.261191   13.684272   21.338728 C.3        1 MOL1         0.1003
     110    H52     23.071006   13.182709   20.793137 H          1 MOL1         0.0783
     111    O27     21.697261   12.761885   22.284710 O.3        1 MOL1        -0.5519
     112    H53     20.919228   13.209650   22.704237 H          1 MOL1         0.3769
     113    C33     22.872534   14.907766   22.069373 C.3        1 MOL1         0.1053
     114    H54     22.102080   15.333599   22.725936 H          1 MOL1         0.0783
     115    O28     23.990386   14.463220   22.845541 O.3        1 MOL1        -0.5519
     116    H55     23.637509   13.758666   23.430778 H          1 MOL1         0.3769
     117    C34     23.331207   16.015497   21.081030 C.3        1 MOL1         0.1018
     118    H56     24.280567   15.698006   20.630666 H          1 MOL1         0.0783
     119    C35     22.299722   16.285130   19.946156 C.3        1 MOL1         0.1043
     120    H57     21.435195   16.802515   20.382802 H          1 MOL1         0.0783
     121    O29     21.871964   15.024560   19.375536 O.3        1 MOL1        -0.3740
     122    C36     22.816105   17.173566   18.783540 C.3        1 MOL1         0.0138
     123    H58     22.557605   18.216882   18.997282 H          1 MOL1         0.0794
     124    H59     22.268760   16.904004   17.870340 H          1 MOL1         0.0794
     125    O30     24.226467   17.053274   18.556452 O.3        1 MOL1        -0.5486
     126    H60     24.686387   17.407377   19.353030 H          1 MOL1         0.3769
     127    C1      20.687929   16.995293   24.515439 C.2        1 MOL1         0.6021
     128    O1      21.883321   16.967847   24.727318 O.co2      1 MOL1        -0.6904
     129    O2      19.894845   16.216418   25.008266 O.co2      1 MOL1        -0.6904
     130    C2      20.166646   18.043377   23.537535 C.3        1 MOL1        -0.2102
     131    H1      19.178188   17.733438   23.182198 H          1 MOL1         0.0687
     132    H2      20.836238   18.055348   22.669748 H          1 MOL1         0.0687
     133    C3      20.068775   19.454901   24.159184 C.3        1 MOL1        -0.1974
     134    H3      19.381516   19.429940   25.015909 H          1 MOL1         0.0689
     135    H4      21.050105   19.760719   24.546514 H          1 MOL1         0.0689
     136    C4      19.573608   20.483650   23.128098 C.3        1 MOL1        -0.2987
     137    H5      18.586219   20.202701   22.741660 H          1 MOL1         0.0700
     138    H6      19.492678   21.474962   23.589969 H          1 MOL1         0.0700
     139    H7      20.268911   20.554459   22.282625 H          1 MOL1         0.0700
@<TRIPOS>BOND
    1     1     2    1
    2     1     3    1
    3     1     4    1
    4     4     5    1
    5     4     6    1
    6     6     7    1
    7     4     8    1
    8     8     9    1
    9     8    10    1
   10    10    11    1
   11     8    12    1
   12    12    13    1
   13    12    14    1
   14    14    15    1
   15     1    16    1
   16    14    16    1
   17    14    17    1
   18    17    18    1
   19    17    19    1
   20    17    20    1
   21    20    21    1
   22    22    23    1
   23    22    24    1
   24    22    25    1
   25    25    26    1
   26    25    27    1
   27    27    28    1
   28    25    29    1
   29    29    30    1
   30    29    31    1
   31    31    32    1
   32     3    33    1
   33    29    33    1
   34    33    34    1
   35    33    35    1
   36    35    36    1
   37    22    37    1
   38    35    37    1
   39    35    38    1
   40    38    39    1
   41    38    40    1
   42    38    41    1
   43    41    42    1
   44    43    44    1
   45    43    45    1
   46    43    46    1
   47    46    47    1
   48    46    48    1
   49    48    49    1
   50    46    50    1
   51    50    51    1
   52    50    52    1
   53    52    53    1
   54    24    54    1
   55    50    54    1
   56    54    55    1
   57    54    56    1
   58    56    57    1
   59    43    58    1
   60    56    58    1
   61    56    59    1
   62    59    60    1
   63    59    61    1
   64    59    62    1
   65    62    63    1
   66    64    65    1
   67    64    66    1
   68    64    67    1
   69    67    68    1
   70    67    69    1
   71    69    70    1
   72    67    71    1
   73    71    72    1
   74    71    73    1
   75    73    74    1
   76    45    75    1
   77    71    75    1
   78    75    76    1
   79    75    77    1
   80    77    78    1
   81    64    79    1
   82    77    79    1
   83    77    80    1
   84    80    81    1
   85    80    82    1
   86    80    83    1
   87    83    84    1
   88    85    86    1
   89    85    87    1
   90    85    88    1
   91    88    89    1
   92    88    90    1
   93    90    91    1
   94    88    92    1
   95    92    93    1
   96    92    94    1
   97    94    95    1
   98    66    96    1
   99    92    96    1
  100    96    97    1
  101    96    98    1
  102    98    99    1
  103    85   100    1
  104    98   100    1
  105    98   101    1
  106   101   102    1
  107   101   103    1
  108   101   104    1
  109   104   105    1
  110   106   107    1
  111    12   108    1
  112   106   108    1
  113   106   109    1
  114   109   110    1
  115   109   111    1
  116   111   112    1
  117   109   113    1
  118   113   114    1
  119   113   115    1
  120   115   116    1
  121    87   117    1
  122   113   117    1
  123   117   118    1
  124   117   119    1
  125   119   120    1
  126   106   121    1
  127   119   121    1
  128   119   122    1
  129   122   123    1
  130   122   124    1
  131   122   125    1
  132   125   126    1
  133   127   128    1
  134   127   129    2
  135   127   130    1
  136   130   131    1
  137   130   132    1
  138   130   133    1
  139   133   134    1
  140   133   135    1
  141   133   136    1
  142   136   137    1
  143   136   138    1
  144   136   139    1
@<TRIPOS>SUBSTRUCTURE
       1 MOL1            1 RESIDUE      1      MOL     
       2 MOL1          139 RESIDUE      1      MOL     
@<SCITEGIC>MOL_PROPERTY
feprocess Rank
SciTegic.value.IntegerValue
32

@<SCITEGIC>MOL_PROPERTY
Conf_Id
SciTegic.value.IntegerValue
757

@<SCITEGIC>MOL_PROPERTY
Probability
SciTegic.value.DoubleValue
0.01

@<SCITEGIC>MOL_PROPERTY
G
SciTegic.value.DoubleValue
487.307

@<SCITEGIC>MOL_PROPERTY
E
SciTegic.value.DoubleValue
312.532

@<SCITEGIC>MOL_PROPERTY
-TS
SciTegic.value.DoubleValue
174.774

@<SCITEGIC>MOL_PROPERTY
U+W
SciTegic.value.DoubleValue
190.021

@<SCITEGIC>MOL_PROPERTY
U
SciTegic.value.DoubleValue
270.375

@<SCITEGIC>MOL_PROPERTY
W
SciTegic.value.DoubleValue
-80.355

@<SCITEGIC>MOL_PROPERTY
W(PB)
SciTegic.value.DoubleValue
-86.328

@<SCITEGIC>MOL_PROPERTY
W(SA)
SciTegic.value.DoubleValue
5.973

@<SCITEGIC>MOL_PROPERTY
Valence
SciTegic.value.DoubleValue
153.437

@<SCITEGIC>MOL_PROPERTY
Coulomb
SciTegic.value.DoubleValue
137.765

@<SCITEGIC>MOL_PROPERTY
VdW
SciTegic.value.DoubleValue
-20.827

@<SCITEGIC>MOL_PROPERTY
VdW6
SciTegic.value.DoubleValue
-170.725

@<SCITEGIC>MOL_PROPERTY
VdW12
SciTegic.value.DoubleValue
149.898

@<SCITEGIC>MOL_PROPERTY
Bond
SciTegic.value.DoubleValue
4.904

@<SCITEGIC>MOL_PROPERTY
Angle
SciTegic.value.DoubleValue
13.699

@<SCITEGIC>MOL_PROPERTY
Pdih
SciTegic.value.DoubleValue
134.831

@<SCITEGIC>MOL_PROPERTY
Idih
SciTegic.value.DoubleValue
0.003

@<SCITEGIC>MOL_PROPERTY
Tether
SciTegic.value.DoubleValue
0.000

@<TRIPOS>MOLECULE
CD_guest-6_fast_vm2_rndm.mol2 : feprocess host+ligand conformer 33
         139         144           2
SMALL
USER_CHARGES
 
@<TRIPOS>ATOM
       1    C1      16.111125   15.140312   21.161472 C.3        1 MOL1         0.2972
       2    H1      15.027641   15.067676   21.001156 H          1 MOL1         0.0751
       3    O1      16.529321   16.502905   21.380108 O.3        1 MOL1        -0.3740
       4    C2      16.556007   14.276456   22.368402 C.3        1 MOL1         0.1003
       5    H2      16.326437   13.231208   22.123603 H          1 MOL1         0.0783
       6    O2      15.852495   14.639847   23.565938 O.3        1 MOL1        -0.5519
       7    H3      15.979701   15.613720   23.699337 H          1 MOL1         0.3769
       8    C3      18.085079   14.391737   22.574495 C.3        1 MOL1         0.1053
       9    H4      18.310327   15.422755   22.878099 H          1 MOL1         0.0783
      10    O3      18.501235   13.484330   23.601745 O.3        1 MOL1        -0.5519
      11    H5      17.863799   13.619223   24.337238 H          1 MOL1         0.3769
      12    C4      18.863041   14.088752   21.268211 C.3        1 MOL1         0.1018
      13    H6      18.871024   13.000121   21.126666 H          1 MOL1         0.0783
      14    C5      18.252855   14.787965   20.013894 C.3        1 MOL1         0.1043
      15    H7      18.504871   15.855767   20.059853 H          1 MOL1         0.0783
      16    O4      16.811034   14.640490   20.006104 O.3        1 MOL1        -0.3740
      17    C6      18.770613   14.243278   18.659449 C.3        1 MOL1         0.0138
      18    H8      19.781251   14.628500   18.481599 H          1 MOL1         0.0794
      19    H9      18.134328   14.643573   17.858768 H          1 MOL1         0.0794
      20    O5      18.776775   12.810527   18.614960 O.3        1 MOL1        -0.5486
      21    H10     19.060596   12.542614   17.713813 H          1 MOL1         0.3769
      22    C7      15.100191   20.363113   21.805227 C.3        1 MOL1         0.2972
      23    H11     14.506390   21.273027   21.960089 H          1 MOL1         0.0751
      24    O6      16.440566   20.675003   21.381271 O.3        1 MOL1        -0.3740
      25    C8      15.150704   19.538144   23.115511 C.3        1 MOL1         0.1003
      26    H12     14.123459   19.217847   23.332279 H          1 MOL1         0.0783
      27    O7      15.626774   20.320932   24.219303 O.3        1 MOL1        -0.5519
      28    H13     16.588079   20.524021   24.043265 H          1 MOL1         0.3769
      29    C9      16.011097   18.270069   22.922247 C.3        1 MOL1         0.1053
      30    H14     17.044322   18.579840   22.713712 H          1 MOL1         0.0783
      31    O8      15.968668   17.483756   24.117321 O.3        1 MOL1        -0.5519
      32    H15     16.170469   18.119457   24.840236 H          1 MOL1         0.3769
      33    C10     15.491767   17.443473   21.720501 C.3        1 MOL1         0.1018
      34    H16     14.562531   16.941383   22.021353 H          1 MOL1         0.0783
      35    C11     15.241242   18.316490   20.456710 C.3        1 MOL1         0.1043
      36    H17     16.222772   18.593476   20.056121 H          1 MOL1         0.0783
      37    O9      14.507365   19.527259   20.786061 O.3        1 MOL1        -0.3740
      38    C12     14.480450   17.572025   19.333491 C.3        1 MOL1         0.0138
      39    H18     15.145943   16.808456   18.908292 H          1 MOL1         0.0794
      40    H19     14.249568   18.285777   18.531304 H          1 MOL1         0.0794
      41    O10     13.279279   16.955963   19.814289 O.3        1 MOL1        -0.5486
      42    H20     12.813903   16.567467   19.041574 H          1 MOL1         0.3769
      43    C13     18.752660   23.814055   19.979784 C.3        1 MOL1         0.2972
      44    H21     19.176035   24.685969   19.465088 H          1 MOL1         0.0751
      45    O11     19.779883   23.047841   20.640250 O.3        1 MOL1        -0.3740
      46    C14     17.646088   24.236441   20.985333 C.3        1 MOL1         0.1003
      47    H22     16.857138   24.719840   20.394525 H          1 MOL1         0.0783
      48    O12     18.125221   25.177466   21.957580 O.3        1 MOL1        -0.5519
      49    H23     18.761797   24.686117   22.535933 H          1 MOL1         0.3769
      50    C15     17.014808   23.005158   21.683768 C.3        1 MOL1         0.1053
      51    H24     17.759546   22.566756   22.362160 H          1 MOL1         0.0783
      52    O13     15.869678   23.442635   22.423695 O.3        1 MOL1        -0.5519
      53    H25     16.191135   24.174128   22.993908 H          1 MOL1         0.3769
      54    C16     16.596915   21.913342   20.662517 C.3        1 MOL1         0.1018
      55    H26     15.660334   22.226203   20.183379 H          1 MOL1         0.0783
      56    C17     17.670929   21.660603   19.567687 C.3        1 MOL1         0.1043
      57    H27     18.517209   21.141084   20.036509 H          1 MOL1         0.0783
      58    O14     18.122642   22.929021   19.026548 O.3        1 MOL1        -0.3740
      59    C18     17.196104   20.757756   18.398440 C.3        1 MOL1         0.0138
      60    H28     17.424382   19.715451   18.653164 H          1 MOL1         0.0794
      61    H29     17.789334   20.998934   17.506295 H          1 MOL1         0.0794
      62    O15     15.797783   20.887143   18.108463 O.3        1 MOL1        -0.5486
      63    H30     15.302629   20.561395   18.894441 H          1 MOL1         0.3769
      64    C19     23.443825   22.814920   22.393318 C.3        1 MOL1         0.2972
      65    H31     24.427913   22.918390   22.868513 H          1 MOL1         0.0751
      66    O16     23.166351   21.444356   22.039529 O.3        1 MOL1        -0.3740
      67    C20     22.338736   23.329244   23.345995 C.3        1 MOL1         0.1003
      68    H32     22.485283   24.410581   23.463167 H          1 MOL1         0.0783
      69    O17     22.438174   22.707855   24.636857 O.3        1 MOL1        -0.5519
      70    H33     21.805188   21.940644   24.648013 H          1 MOL1         0.3769
      71    C21     20.953754   23.099148   22.699740 C.3        1 MOL1         0.1053
      72    H34     20.827314   22.020516   22.553962 H          1 MOL1         0.0783
      73    O18     19.912847   23.581228   23.556558 O.3        1 MOL1        -0.5519
      74    H35     19.781145   22.854905   24.219490 H          1 MOL1         0.3769
      75    C22     20.862099   23.741274   21.293876 C.3        1 MOL1         0.1018
      76    H36     20.679023   24.818984   21.392117 H          1 MOL1         0.0783
      77    C23     22.128347   23.475776   20.424571 C.3        1 MOL1         0.1043
      78    H37     22.052998   22.444509   20.063298 H          1 MOL1         0.0783
      79    O19     23.360411   23.606117   21.187081 O.3        1 MOL1        -0.3740
      80    C24     22.220720   24.384954   19.176729 C.3        1 MOL1         0.0138
      81    H38     21.424658   24.098067   18.476525 H          1 MOL1         0.0794
      82    H39     23.179612   24.197210   18.674964 H          1 MOL1         0.0794
      83    O20     22.096775   25.772108   19.512263 O.3        1 MOL1        -0.5486
      84    H40     22.238198   26.291886   18.690881 H          1 MOL1         0.3769
      85    C25     24.967657   17.730790   21.622483 C.3        1 MOL1         0.2972
      86    H41     25.673349   16.908590   21.447331 H          1 MOL1         0.0751
      87    O21     23.628991   17.239250   21.832263 O.3        1 MOL1        -0.3740
      88    C26     25.397336   18.515104   22.884435 C.3        1 MOL1         0.1003
      89    H42     26.421023   18.872383   22.712539 H          1 MOL1         0.0783
      90    O22     25.385306   17.649594   24.030964 O.3        1 MOL1        -0.5519
      91    H43     24.701528   16.958257   23.854871 H          1 MOL1         0.3769
      92    C27     24.499727   19.752754   23.127920 C.3        1 MOL1         0.1053
      93    H44     23.511869   19.403880   23.459505 H          1 MOL1         0.0783
      94    O23     25.104942   20.554983   24.146135 O.3        1 MOL1        -0.5519
      95    H45     25.247835   19.947283   24.903899 H          1 MOL1         0.3769
      96    C28     24.308269   20.592351   21.837057 C.3        1 MOL1         0.1018
      97    H46     25.223458   21.168437   21.647858 H          1 MOL1         0.0783
      98    C29     23.986845   19.714033   20.597464 C.3        1 MOL1         0.1043
      99    H47     22.983858   19.292039   20.741508 H          1 MOL1         0.0783
     100    O24     24.951866   18.638159   20.500606 O.3        1 MOL1        -0.3740
     101    C30     23.965596   20.478385   19.246722 C.3        1 MOL1         0.0138
     102    H48     22.935600   20.795467   19.043555 H          1 MOL1         0.0794
     103    H49     24.239938   19.781062   18.443745 H          1 MOL1         0.0794
     104    O25     24.835850   21.617303   19.222593 O.3        1 MOL1        -0.5486
     105    H50     24.483947   22.272153   19.869063 H          1 MOL1         0.3769
     106    C31     21.277924   13.891130   20.877326 C.3        1 MOL1         0.2972
     107    H51     20.950334   12.924225   20.473980 H          1 MOL1         0.0751
     108    O26     20.189819   14.603982   21.493487 O.3        1 MOL1        -0.3740
     109    C32     22.356069   13.681750   21.971748 C.3        1 MOL1         0.1003
     110    H52     23.180025   13.111949   21.523011 H          1 MOL1         0.0783
     111    O27     21.804738   12.942294   23.073681 O.3        1 MOL1        -0.5519
     112    H53     20.903732   13.313757   23.237372 H          1 MOL1         0.3769
     113    C33     22.920363   15.036754   22.468875 C.3        1 MOL1         0.1053
     114    H54     22.122520   15.555761   23.014561 H          1 MOL1         0.0783
     115    O28     24.033062   14.804394   23.339552 O.3        1 MOL1        -0.5519
     116    H55     23.728569   14.112344   23.967193 H          1 MOL1         0.3769
     117    C34     23.353602   15.934888   21.285189 C.3        1 MOL1         0.1018
     118    H56     24.241119   15.487662   20.818377 H          1 MOL1         0.0783
     119    C35     22.226551   16.052264   20.223389 C.3        1 MOL1         0.1043
     120    H57     21.370405   16.568936   20.676004 H          1 MOL1         0.0783
     121    O29     21.837223   14.715293   19.832263 O.3        1 MOL1        -0.3740
     122    C36     22.602898   16.831012   18.937115 C.3        1 MOL1         0.0138
     123    H58     22.406397   17.896689   19.102361 H          1 MOL1         0.0794
     124    H59     21.932725   16.510074   18.128574 H          1 MOL1         0.0794
     125    O30     23.966931   16.646268   18.542440 O.3        1 MOL1        -0.5486
     126    H60     24.511769   17.233282   19.116529 H          1 MOL1         0.3769
     127    C1      19.542753   20.269018   24.033201 C.2        1 MOL1         0.6021
     128    O1      18.365656   20.562741   23.982732 O.co2      1 MOL1        -0.6904
     129    O2      20.346150   20.866244   24.724744 O.co2      1 MOL1        -0.6904
     130    C2      20.067203   19.251977   23.020826 C.3        1 MOL1        -0.2102
     131    H1      21.107403   19.500401   22.780142 H          1 MOL1         0.0687
     132    H2      19.487632   19.379776   22.098838 H          1 MOL1         0.0687
     133    C3      19.964362   17.780518   23.493563 C.3        1 MOL1        -0.1974
     134    H3      18.936875   17.570649   23.819106 H          1 MOL1         0.0689
     135    H4      20.170330   17.115154   22.646442 H          1 MOL1         0.0689
     136    C4      20.945315   17.459574   24.639406 C.3        1 MOL1        -0.2987
     137    H5      20.742554   18.087490   25.516849 H          1 MOL1         0.0700
     138    H6      20.852084   16.409734   24.945453 H          1 MOL1         0.0700
     139    H7      21.983078   17.635044   24.328367 H          1 MOL1         0.0700
@<TRIPOS>BOND
    1     1     2    1
    2     1     3    1
    3     1     4    1
    4     4     5    1
    5     4     6    1
    6     6     7    1
    7     4     8    1
    8     8     9    1
    9     8    10    1
   10    10    11    1
   11     8    12    1
   12    12    13    1
   13    12    14    1
   14    14    15    1
   15     1    16    1
   16    14    16    1
   17    14    17    1
   18    17    18    1
   19    17    19    1
   20    17    20    1
   21    20    21    1
   22    22    23    1
   23    22    24    1
   24    22    25    1
   25    25    26    1
   26    25    27    1
   27    27    28    1
   28    25    29    1
   29    29    30    1
   30    29    31    1
   31    31    32    1
   32     3    33    1
   33    29    33    1
   34    33    34    1
   35    33    35    1
   36    35    36    1
   37    22    37    1
   38    35    37    1
   39    35    38    1
   40    38    39    1
   41    38    40    1
   42    38    41    1
   43    41    42    1
   44    43    44    1
   45    43    45    1
   46    43    46    1
   47    46    47    1
   48    46    48    1
   49    48    49    1
   50    46    50    1
   51    50    51    1
   52    50    52    1
   53    52    53    1
   54    24    54    1
   55    50    54    1
   56    54    55    1
   57    54    56    1
   58    56    57    1
   59    43    58    1
   60    56    58    1
   61    56    59    1
   62    59    60    1
   63    59    61    1
   64    59    62    1
   65    62    63    1
   66    64    65    1
   67    64    66    1
   68    64    67    1
   69    67    68    1
   70    67    69    1
   71    69    70    1
   72    67    71    1
   73    71    72    1
   74    71    73    1
   75    73    74    1
   76    45    75    1
   77    71    75    1
   78    75    76    1
   79    75    77    1
   80    77    78    1
   81    64    79    1
   82    77    79    1
   83    77    80    1
   84    80    81    1
   85    80    82    1
   86    80    83    1
   87    83    84    1
   88    85    86    1
   89    85    87    1
   90    85    88    1
   91    88    89    1
   92    88    90    1
   93    90    91    1
   94    88    92    1
   95    92    93    1
   96    92    94    1
   97    94    95    1
   98    66    96    1
   99    92    96    1
  100    96    97    1
  101    96    98    1
  102    98    99    1
  103    85   100    1
  104    98   100    1
  105    98   101    1
  106   101   102    1
  107   101   103    1
  108   101   104    1
  109   104   105    1
  110   106   107    1
  111    12   108    1
  112   106   108    1
  113   106   109    1
  114   109   110    1
  115   109   111    1
  116   111   112    1
  117   109   113    1
  118   113   114    1
  119   113   115    1
  120   115   116    1
  121    87   117    1
  122   113   117    1
  123   117   118    1
  124   117   119    1
  125   119   120    1
  126   106   121    1
  127   119   121    1
  128   119   122    1
  129   122   123    1
  130   122   124    1
  131   122   125    1
  132   125   126    1
  133   127   128    1
  134   127   129    2
  135   127   130    1
  136   130   131    1
  137   130   132    1
  138   130   133    1
  139   133   134    1
  140   133   135    1
  141   133   136    1
  142   136   137    1
  143   136   138    1
  144   136   139    1
@<TRIPOS>SUBSTRUCTURE
       1 MOL1            1 RESIDUE      1      MOL     
       2 MOL1          139 RESIDUE      1      MOL     
@<SCITEGIC>MOL_PROPERTY
feprocess Rank
SciTegic.value.IntegerValue
33

@<SCITEGIC>MOL_PROPERTY
Conf_Id
SciTegic.value.IntegerValue
403

@<SCITEGIC>MOL_PROPERTY
Probability
SciTegic.value.DoubleValue
0.01

@<SCITEGIC>MOL_PROPERTY
G
SciTegic.value.DoubleValue
487.342

@<SCITEGIC>MOL_PROPERTY
E
SciTegic.value.DoubleValue
311.871

@<SCITEGIC>MOL_PROPERTY
-TS
SciTegic.value.DoubleValue
175.471

@<SCITEGIC>MOL_PROPERTY
U+W
SciTegic.value.DoubleValue
189.360

@<SCITEGIC>MOL_PROPERTY
U
SciTegic.value.DoubleValue
262.510

@<SCITEGIC>MOL_PROPERTY
W
SciTegic.value.DoubleValue
-73.150

@<SCITEGIC>MOL_PROPERTY
W(PB)
SciTegic.value.DoubleValue
-79.098

@<SCITEGIC>MOL_PROPERTY
W(SA)
SciTegic.value.DoubleValue
5.947

@<SCITEGIC>MOL_PROPERTY
Valence
SciTegic.value.DoubleValue
152.006

@<SCITEGIC>MOL_PROPERTY
Coulomb
SciTegic.value.DoubleValue
130.386

@<SCITEGIC>MOL_PROPERTY
VdW
SciTegic.value.DoubleValue
-19.882

@<SCITEGIC>MOL_PROPERTY
VdW6
SciTegic.value.DoubleValue
-172.773

@<SCITEGIC>MOL_PROPERTY
VdW12
SciTegic.value.DoubleValue
152.891

@<SCITEGIC>MOL_PROPERTY
Bond
SciTegic.value.DoubleValue
4.994

@<SCITEGIC>MOL_PROPERTY
Angle
SciTegic.value.DoubleValue
15.100

@<SCITEGIC>MOL_PROPERTY
Pdih
SciTegic.value.DoubleValue
131.849

@<SCITEGIC>MOL_PROPERTY
Idih
SciTegic.value.DoubleValue
0.064

@<SCITEGIC>MOL_PROPERTY
Tether
SciTegic.value.DoubleValue
0.000

@<TRIPOS>MOLECULE
CD_guest-6_fast_vm2_rndm.mol2 : feprocess host+ligand conformer 34
         139         144           2
SMALL
USER_CHARGES
 
@<TRIPOS>ATOM
       1    C1      15.987346   15.054324   21.459124 C.3        1 MOL1         0.2972
       2    H1      14.898923   14.920517   21.412066 H          1 MOL1         0.0751
       3    O1      16.349214   16.447118   21.516400 O.3        1 MOL1        -0.3740
       4    C2      16.545378   14.360309   22.722986 C.3        1 MOL1         0.1003
       5    H2      16.330846   13.287029   22.638616 H          1 MOL1         0.0783
       6    O2      15.907586   14.885927   23.897669 O.3        1 MOL1        -0.5519
       7    H3      15.662947   15.820153   23.689868 H          1 MOL1         0.3769
       8    C3      18.077861   14.540577   22.810344 C.3        1 MOL1         0.1053
       9    H4      18.276059   15.602345   23.003571 H          1 MOL1         0.0783
      10    O3      18.597018   13.753710   23.888626 O.3        1 MOL1        -0.5519
      11    H5      18.017629   13.958925   24.655441 H          1 MOL1         0.3769
      12    C4      18.787996   14.144031   21.491313 C.3        1 MOL1         0.1018
      13    H6      18.869593   13.049532   21.461635 H          1 MOL1         0.0783
      14    C5      18.062956   14.667691   20.214746 C.3        1 MOL1         0.1043
      15    H7      18.271184   15.741192   20.139554 H          1 MOL1         0.0783
      16    O4      16.628089   14.468262   20.309327 O.3        1 MOL1        -0.3740
      17    C6      18.539954   14.012316   18.895668 C.3        1 MOL1         0.0138
      18    H8      19.533728   14.403093   18.643831 H          1 MOL1         0.0794
      19    H9      17.861583   14.319275   18.088215 H          1 MOL1         0.0794
      20    O5      18.585512   12.583101   18.987784 O.3        1 MOL1        -0.5486
      21    H10     18.821774   12.234833   18.100480 H          1 MOL1         0.3769
      22    C7      14.908307   20.251770   20.614651 C.3        1 MOL1         0.2972
      23    H11     14.330802   21.107202   20.241006 H          1 MOL1         0.0751
      24    O6      16.175657   20.661277   21.164573 O.3        1 MOL1        -0.3740
      25    C8      14.126715   19.484703   21.713880 C.3        1 MOL1         0.1003
      26    H12     13.198096   19.117917   21.257638 H          1 MOL1         0.0783
      27    O7      13.797379   20.340943   22.818583 O.3        1 MOL1        -0.5519
      28    H13     14.637411   20.774669   23.116801 H          1 MOL1         0.3769
      29    C9      14.936293   18.256165   22.199238 C.3        1 MOL1         0.1053
      30    H14     15.838947   18.618680   22.711118 H          1 MOL1         0.0783
      31    O8      14.142201   17.483299   23.106056 O.3        1 MOL1        -0.5519
      32    H15     13.739728   18.139508   23.717376 H          1 MOL1         0.3769
      33    C10     15.377456   17.375958   21.003132 C.3        1 MOL1         0.1018
      34    H16     14.491558   16.867034   20.601163 H          1 MOL1         0.0783
      35    C11     16.042532   18.214106   19.873886 C.3        1 MOL1         0.1043
      36    H17     16.996551   18.605197   20.248236 H          1 MOL1         0.0783
      37    O9      15.173149   19.323699   19.539867 O.3        1 MOL1        -0.3740
      38    C12     16.356212   17.433702   18.570378 C.3        1 MOL1         0.0138
      39    H18     17.374442   17.032937   18.638959 H          1 MOL1         0.0794
      40    H19     16.355595   18.142756   17.731785 H          1 MOL1         0.0794
      41    O10     15.436157   16.367307   18.308982 O.3        1 MOL1        -0.5486
      42    H20     15.670081   15.629644   18.919725 H          1 MOL1         0.3769
      43    C13     18.575451   23.950049   21.885512 C.3        1 MOL1         0.2972
      44    H21     18.987321   24.951839   22.062182 H          1 MOL1         0.0751
      45    O11     19.625138   22.968742   21.773985 O.3        1 MOL1        -0.3740
      46    C14     17.616436   23.570161   23.042585 C.3        1 MOL1         0.1003
      47    H22     16.789812   24.291954   23.021269 H          1 MOL1         0.0783
      48    O12     18.265990   23.657924   24.318400 O.3        1 MOL1        -0.5519
      49    H23     18.932718   22.916558   24.354083 H          1 MOL1         0.3769
      50    C15     17.019110   22.162550   22.821728 C.3        1 MOL1         0.1053
      51    H24     17.833720   21.427097   22.866769 H          1 MOL1         0.0783
      52    O13     16.057698   21.886355   23.845940 O.3        1 MOL1        -0.5519
      53    H25     16.531788   22.065989   24.688759 H          1 MOL1         0.3769
      54    C16     16.349188   22.065292   21.430615 C.3        1 MOL1         0.1018
      55    H26     15.391616   22.601863   21.464048 H          1 MOL1         0.0783
      56    C17     17.246724   22.631473   20.294083 C.3        1 MOL1         0.1043
      57    H27     18.059969   21.913863   20.143225 H          1 MOL1         0.0783
      58    O14     17.814823   23.919039   20.656689 O.3        1 MOL1        -0.3740
      59    C18     16.509451   22.783423   18.941817 C.3        1 MOL1         0.0138
      60    H28     16.311252   21.781373   18.537877 H          1 MOL1         0.0794
      61    H29     17.174570   23.293698   18.232327 H          1 MOL1         0.0794
      62    O15     15.278781   23.504706   19.078205 O.3        1 MOL1        -0.5486
      63    H30     14.904428   23.627901   18.178650 H          1 MOL1         0.3769
      64    C19     23.755210   22.803174   21.086256 C.3        1 MOL1         0.2972
      65    H31     24.772176   22.992910   20.719196 H          1 MOL1         0.0751
      66    O16     23.699380   21.600473   21.876915 O.3        1 MOL1        -0.3740
      67    C20     23.286324   23.966662   21.996304 C.3        1 MOL1         0.1003
      68    H32     23.361814   24.890890   21.408746 H          1 MOL1         0.0783
      69    O17     24.138602   24.063748   23.148158 O.3        1 MOL1        -0.5519
      70    H33     24.248076   23.142745   23.482935 H          1 MOL1         0.3769
      71    C21     21.807850   23.803128   22.441354 C.3        1 MOL1         0.1053
      72    H34     21.750045   22.978655   23.166214 H          1 MOL1         0.0783
      73    O18     21.387166   25.026264   23.054544 O.3        1 MOL1        -0.5519
      74    H35     22.053084   25.210801   23.751954 H          1 MOL1         0.3769
      75    C22     20.877127   23.456211   21.248588 C.3        1 MOL1         0.1018
      76    H36     20.735138   24.357847   20.638536 H          1 MOL1         0.0783
      77    C23     21.472885   22.334374   20.357833 C.3        1 MOL1         0.1043
      78    H37     21.494745   21.406544   20.938749 H          1 MOL1         0.0783
      79    O19     22.822134   22.695750   19.989852 O.3        1 MOL1        -0.3740
      80    C24     20.672244   22.041146   19.063683 C.3        1 MOL1         0.0138
      81    H38     19.905962   21.290940   19.294264 H          1 MOL1         0.0794
      82    H39     21.347832   21.583008   18.329186 H          1 MOL1         0.0794
      83    O20     20.058523   23.210005   18.504593 O.3        1 MOL1        -0.5486
      84    H40     19.412208   23.548834   19.165550 H          1 MOL1         0.3769
      85    C25     25.053681   17.699974   21.724918 C.3        1 MOL1         0.2972
      86    H41     25.635217   16.770380   21.671944 H          1 MOL1         0.0751
      87    O21     23.636877   17.433900   21.772670 O.3        1 MOL1        -0.3740
      88    C26     25.474498   18.491716   22.982038 C.3        1 MOL1         0.1003
      89    H42     26.544692   18.717139   22.886879 H          1 MOL1         0.0783
      90    O22     25.257523   17.707810   24.166436 O.3        1 MOL1        -0.5519
      91    H43     24.638899   16.976877   23.917151 H          1 MOL1         0.3769
      92    C27     24.711579   19.829653   23.069973 C.3        1 MOL1         0.1053
      93    H44     23.661596   19.591009   23.273813 H          1 MOL1         0.0783
      94    O23     25.246999   20.603850   24.148916 O.3        1 MOL1        -0.5519
      95    H45     25.296426   19.980594   24.907252 H          1 MOL1         0.3769
      96    C28     24.775521   20.644394   21.750229 C.3        1 MOL1         0.1018
      97    H46     25.750405   21.146679   21.704494 H          1 MOL1         0.0783
      98    C29     24.561468   19.761047   20.477703 C.3        1 MOL1         0.1043
      99    H47     23.491577   19.529219   20.410804 H          1 MOL1         0.0783
     100    O24     25.313335   18.522842   20.573713 O.3        1 MOL1        -0.3740
     101    C30     24.990664   20.419105   19.141240 C.3        1 MOL1         0.0138
     102    H48     24.224409   21.132537   18.820748 H          1 MOL1         0.0794
     103    H49     25.030543   19.639513   18.368400 H          1 MOL1         0.0794
     104    O25     26.260674   21.074907   19.242000 O.3        1 MOL1        -0.5486
     105    H50     26.500592   21.398292   18.346299 H          1 MOL1         0.3769
     106    C31     21.180561   14.086744   20.948953 C.3        1 MOL1         0.2972
     107    H51     20.871216   13.112424   20.549022 H          1 MOL1         0.0751
     108    O26     20.080701   14.776082   21.565288 O.3        1 MOL1        -0.3740
     109    C32     22.266382   13.905087   22.044435 C.3        1 MOL1         0.1003
     110    H52     23.088664   13.329283   21.600296 H          1 MOL1         0.0783
     111    O27     21.730016   13.182084   23.165057 O.3        1 MOL1        -0.5519
     112    H53     20.831670   13.556397   23.341622 H          1 MOL1         0.3769
     113    C33     22.836031   15.269416   22.514273 C.3        1 MOL1         0.1053
     114    H54     22.045762   15.809871   23.054060 H          1 MOL1         0.0783
     115    O28     23.955437   15.047049   23.379107 O.3        1 MOL1        -0.5519
     116    H55     23.660170   14.349016   24.005501 H          1 MOL1         0.3769
     117    C34     23.262966   16.124622   21.298307 C.3        1 MOL1         0.1018
     118    H56     24.099203   15.622373   20.793555 H          1 MOL1         0.0783
     119    C35     22.098855   16.260272   20.285829 C.3        1 MOL1         0.1043
     120    H57     21.258942   16.765006   20.777480 H          1 MOL1         0.0783
     121    O29     21.702548   14.924938   19.891679 O.3        1 MOL1        -0.3740
     122    C36     22.441540   17.071556   19.010381 C.3        1 MOL1         0.0138
     123    H58     22.272965   18.134931   19.220299 H          1 MOL1         0.0794
     124    H59     21.736199   16.789543   18.217486 H          1 MOL1         0.0794
     125    O30     23.788940   16.876005   18.563006 O.3        1 MOL1        -0.5486
     126    H60     24.380214   17.328814   19.208601 H          1 MOL1         0.3769
     127    C1      19.981913   20.177358   24.469333 C.2        1 MOL1         0.6021
     128    O1      19.799545   21.375063   24.567289 O.co2      1 MOL1        -0.6904
     129    O2      19.556121   19.363855   25.265442 O.co2      1 MOL1        -0.6904
     130    C2      20.877946   19.689040   23.334276 C.3        1 MOL1        -0.2102
     131    H1      21.449003   18.824684   23.693518 H          1 MOL1         0.0687
     132    H2      21.598531   20.487650   23.133261 H          1 MOL1         0.0687
     133    C3      20.135949   19.329352   22.022233 C.3        1 MOL1        -0.1974
     134    H3      19.524989   20.179617   21.692241 H          1 MOL1         0.0689
     135    H4      20.878995   19.141113   21.237067 H          1 MOL1         0.0689
     136    C4      19.248519   18.083150   22.179440 C.3        1 MOL1        -0.2987
     137    H5      18.396706   18.289230   22.840833 H          1 MOL1         0.0700
     138    H6      18.860848   17.755990   21.209059 H          1 MOL1         0.0700
     139    H7      19.821883   17.256521   22.615740 H          1 MOL1         0.0700
@<TRIPOS>BOND
    1     1     2    1
    2     1     3    1
    3     1     4    1
    4     4     5    1
    5     4     6    1
    6     6     7    1
    7     4     8    1
    8     8     9    1
    9     8    10    1
   10    10    11    1
   11     8    12    1
   12    12    13    1
   13    12    14    1
   14    14    15    1
   15     1    16    1
   16    14    16    1
   17    14    17    1
   18    17    18    1
   19    17    19    1
   20    17    20    1
   21    20    21    1
   22    22    23    1
   23    22    24    1
   24    22    25    1
   25    25    26    1
   26    25    27    1
   27    27    28    1
   28    25    29    1
   29    29    30    1
   30    29    31    1
   31    31    32    1
   32     3    33    1
   33    29    33    1
   34    33    34    1
   35    33    35    1
   36    35    36    1
   37    22    37    1
   38    35    37    1
   39    35    38    1
   40    38    39    1
   41    38    40    1
   42    38    41    1
   43    41    42    1
   44    43    44    1
   45    43    45    1
   46    43    46    1
   47    46    47    1
   48    46    48    1
   49    48    49    1
   50    46    50    1
   51    50    51    1
   52    50    52    1
   53    52    53    1
   54    24    54    1
   55    50    54    1
   56    54    55    1
   57    54    56    1
   58    56    57    1
   59    43    58    1
   60    56    58    1
   61    56    59    1
   62    59    60    1
   63    59    61    1
   64    59    62    1
   65    62    63    1
   66    64    65    1
   67    64    66    1
   68    64    67    1
   69    67    68    1
   70    67    69    1
   71    69    70    1
   72    67    71    1
   73    71    72    1
   74    71    73    1
   75    73    74    1
   76    45    75    1
   77    71    75    1
   78    75    76    1
   79    75    77    1
   80    77    78    1
   81    64    79    1
   82    77    79    1
   83    77    80    1
   84    80    81    1
   85    80    82    1
   86    80    83    1
   87    83    84    1
   88    85    86    1
   89    85    87    1
   90    85    88    1
   91    88    89    1
   92    88    90    1
   93    90    91    1
   94    88    92    1
   95    92    93    1
   96    92    94    1
   97    94    95    1
   98    66    96    1
   99    92    96    1
  100    96    97    1
  101    96    98    1
  102    98    99    1
  103    85   100    1
  104    98   100    1
  105    98   101    1
  106   101   102    1
  107   101   103    1
  108   101   104    1
  109   104   105    1
  110   106   107    1
  111    12   108    1
  112   106   108    1
  113   106   109    1
  114   109   110    1
  115   109   111    1
  116   111   112    1
  117   109   113    1
  118   113   114    1
  119   113   115    1
  120   115   116    1
  121    87   117    1
  122   113   117    1
  123   117   118    1
  124   117   119    1
  125   119   120    1
  126   106   121    1
  127   119   121    1
  128   119   122    1
  129   122   123    1
  130   122   124    1
  131   122   125    1
  132   125   126    1
  133   127   128    1
  134   127   129    2
  135   127   130    1
  136   130   131    1
  137   130   132    1
  138   130   133    1
  139   133   134    1
  140   133   135    1
  141   133   136    1
  142   136   137    1
  143   136   138    1
  144   136   139    1
@<TRIPOS>SUBSTRUCTURE
       1 MOL1            1 RESIDUE      1      MOL     
       2 MOL1          139 RESIDUE      1      MOL     
@<SCITEGIC>MOL_PROPERTY
feprocess Rank
SciTegic.value.IntegerValue
34

@<SCITEGIC>MOL_PROPERTY
Conf_Id
SciTegic.value.IntegerValue
91

@<SCITEGIC>MOL_PROPERTY
Probability
SciTegic.value.DoubleValue
0.01

@<SCITEGIC>MOL_PROPERTY
G
SciTegic.value.DoubleValue
487.424

@<SCITEGIC>MOL_PROPERTY
E
SciTegic.value.DoubleValue
313.219

@<SCITEGIC>MOL_PROPERTY
-TS
SciTegic.value.DoubleValue
174.205

@<SCITEGIC>MOL_PROPERTY
U+W
SciTegic.value.DoubleValue
190.708

@<SCITEGIC>MOL_PROPERTY
U
SciTegic.value.DoubleValue
274.472

@<SCITEGIC>MOL_PROPERTY
W
SciTegic.value.DoubleValue
-83.764

@<SCITEGIC>MOL_PROPERTY
W(PB)
SciTegic.value.DoubleValue
-89.799

@<SCITEGIC>MOL_PROPERTY
W(SA)
SciTegic.value.DoubleValue
6.035

@<SCITEGIC>MOL_PROPERTY
Valence
SciTegic.value.DoubleValue
151.051

@<SCITEGIC>MOL_PROPERTY
Coulomb
SciTegic.value.DoubleValue
146.786

@<SCITEGIC>MOL_PROPERTY
VdW
SciTegic.value.DoubleValue
-23.365

@<SCITEGIC>MOL_PROPERTY
VdW6
SciTegic.value.DoubleValue
-171.510

@<SCITEGIC>MOL_PROPERTY
VdW12
SciTegic.value.DoubleValue
148.145

@<SCITEGIC>MOL_PROPERTY
Bond
SciTegic.value.DoubleValue
4.749

@<SCITEGIC>MOL_PROPERTY
Angle
SciTegic.value.DoubleValue
13.958

@<SCITEGIC>MOL_PROPERTY
Pdih
SciTegic.value.DoubleValue
132.332

@<SCITEGIC>MOL_PROPERTY
Idih
SciTegic.value.DoubleValue
0.013

@<SCITEGIC>MOL_PROPERTY
Tether
SciTegic.value.DoubleValue
0.000

@<TRIPOS>MOLECULE
CD_guest-6_fast_vm2_rndm.mol2 : feprocess host+ligand conformer 35
         139         144           2
SMALL
USER_CHARGES
 
@<TRIPOS>ATOM
       1    C1      16.371755   15.186848   22.075585 C.3        1 MOL1         0.2972
       2    H1      15.371497   15.068829   22.510450 H          1 MOL1         0.0751
       3    O1      16.530762   16.470917   21.435740 O.3        1 MOL1        -0.3740
       4    C2      17.462628   15.018028   23.165296 C.3        1 MOL1         0.1003
       5    H2      17.393710   13.988795   23.539320 H          1 MOL1         0.0783
       6    O2      17.256449   15.921396   24.261636 O.3        1 MOL1        -0.5519
       7    H3      17.677987   16.786638   24.005800 H          1 MOL1         0.3769
       8    C3      18.862825   15.206842   22.536404 C.3        1 MOL1         0.1053
       9    H4      18.913240   16.223966   22.137417 H          1 MOL1         0.0783
      10    O3      19.889570   15.033309   23.518817 O.3        1 MOL1        -0.5519
      11    H5      20.152772   15.963356   23.757032 H          1 MOL1         0.3769
      12    C4      19.084615   14.263444   21.331317 C.3        1 MOL1         0.1018
      13    H6      19.262247   13.243441   21.693918 H          1 MOL1         0.0783
      14    C5      17.874065   14.278337   20.352616 C.3        1 MOL1         0.1043
      15    H7      17.891280   15.233942   19.812751 H          1 MOL1         0.0783
      16    O4      16.617558   14.170075   21.076721 O.3        1 MOL1        -0.3740
      17    C6      17.930242   13.155155   19.290179 C.3        1 MOL1         0.0138
      18    H8      18.743630   13.382226   18.587860 H          1 MOL1         0.0794
      19    H9      16.992598   13.166740   18.718502 H          1 MOL1         0.0794
      20    O5      18.141110   11.864492   19.876373 O.3        1 MOL1        -0.5486
      21    H10     18.092751   11.198360   19.156231 H          1 MOL1         0.3769
      22    C7      14.724583   20.205350   21.297200 C.3        1 MOL1         0.2972
      23    H11     14.029886   21.044236   21.163599 H          1 MOL1         0.0751
      24    O6      16.056543   20.668432   21.598972 O.3        1 MOL1        -0.3740
      25    C8      14.242680   19.323712   22.473003 C.3        1 MOL1         0.1003
      26    H12     13.222721   18.996125   22.233248 H          1 MOL1         0.0783
      27    O7      14.216625   20.094728   23.685170 O.3        1 MOL1        -0.5519
      28    H13     14.981483   20.719213   23.637059 H          1 MOL1         0.3769
      29    C9      15.113425   18.053874   22.652987 C.3        1 MOL1         0.1053
      30    H14     16.084946   18.358388   23.066319 H          1 MOL1         0.0783
      31    O8      14.432959   17.184787   23.564436 O.3        1 MOL1        -0.5519
      32    H15     14.312561   17.711592   24.383723 H          1 MOL1         0.3769
      33    C10     15.369758   17.317983   21.307387 C.3        1 MOL1         0.1018
      34    H16     14.479368   16.737815   21.034829 H          1 MOL1         0.0783
      35    C11     15.720031   18.299610   20.158437 C.3        1 MOL1         0.1043
      36    H17     16.714773   18.705481   20.373515 H          1 MOL1         0.0783
      37    O9      14.769626   19.390752   20.108697 O.3        1 MOL1        -0.3740
      38    C12     15.791259   17.629957   18.763217 C.3        1 MOL1         0.0138
      39    H18     16.709351   17.029594   18.711674 H          1 MOL1         0.0794
      40    H19     15.876666   18.415305   18.000983 H          1 MOL1         0.0794
      41    O10     14.655635   16.801446   18.487456 O.3        1 MOL1        -0.5486
      42    H20     14.731054   16.002648   19.052347 H          1 MOL1         0.3769
      43    C13     18.488087   24.038294   20.974716 C.3        1 MOL1         0.2972
      44    H21     18.830769   25.043967   20.699310 H          1 MOL1         0.0751
      45    O11     19.584707   23.189478   21.366075 O.3        1 MOL1        -0.3740
      46    C14     17.505353   24.108984   22.171889 C.3        1 MOL1         0.1003
      47    H22     16.666805   24.749835   21.869935 H          1 MOL1         0.0783
      48    O12     18.143251   24.681615   23.325506 O.3        1 MOL1        -0.5519
      49    H23     19.058275   24.305067   23.374999 H          1 MOL1         0.3769
      50    C15     16.935562   22.707333   22.506126 C.3        1 MOL1         0.1053
      51    H24     17.754467   22.079497   22.884397 H          1 MOL1         0.0783
      52    O13     15.916941   22.834925   23.504730 O.3        1 MOL1        -0.5519
      53    H25     16.303105   23.424927   24.189523 H          1 MOL1         0.3769
      54    C16     16.350239   22.034011   21.240735 C.3        1 MOL1         0.1018
      55    H26     15.444997   22.584258   20.952554 H          1 MOL1         0.0783
      56    C17     17.363241   22.060753   20.059964 C.3        1 MOL1         0.1043
      57    H27     18.228492   21.439987   20.320087 H          1 MOL1         0.0783
      58    O14     17.803785   23.425096   19.860037 O.3        1 MOL1        -0.3740
      59    C18     16.816144   21.532775   18.709700 C.3        1 MOL1         0.0138
      60    H28     16.940387   20.444206   18.684953 H          1 MOL1         0.0794
      61    H29     17.435336   21.940778   17.899780 H          1 MOL1         0.0794
      62    O15     15.439980   21.860489   18.489139 O.3        1 MOL1        -0.5486
      63    H30     14.911841   21.139765   18.902894 H          1 MOL1         0.3769
      64    C19     23.696902   22.858159   21.266812 C.3        1 MOL1         0.2972
      65    H31     24.784067   22.982960   21.182160 H          1 MOL1         0.0751
      66    O16     23.328350   21.461803   21.298769 O.3        1 MOL1        -0.3740
      67    C20     23.141504   23.591481   22.517733 C.3        1 MOL1         0.1003
      68    H32     23.316866   24.664301   22.363968 H          1 MOL1         0.0783
      69    O17     23.804863   23.189354   23.724629 O.3        1 MOL1        -0.5519
      70    H33     23.588599   22.233168   23.864446 H          1 MOL1         0.3769
      71    C21     21.613318   23.373978   22.626841 C.3        1 MOL1         0.1053
      72    H34     21.431220   22.306795   22.805779 H          1 MOL1         0.0783
      73    O18     21.092278   24.142836   23.716553 O.3        1 MOL1        -0.5519
      74    H35     21.717215   23.991759   24.460195 H          1 MOL1         0.3769
      75    C22     20.897895   23.781868   21.314729 C.3        1 MOL1         0.1018
      76    H36     20.852627   24.878434   21.284962 H          1 MOL1         0.0783
      77    C23     21.609766   23.249833   20.036753 C.3        1 MOL1         0.1043
      78    H37     21.408224   22.175057   19.957757 H          1 MOL1         0.0783
      79    O19     23.043748   23.454595   20.126317 O.3        1 MOL1        -0.3740
      80    C24     21.105872   23.907266   18.729462 C.3        1 MOL1         0.0138
      81    H38     20.091701   23.540882   18.522671 H          1 MOL1         0.0794
      82    H39     21.745930   23.574428   17.901472 H          1 MOL1         0.0794
      83    O20     21.099468   25.338563   18.809925 O.3        1 MOL1        -0.5486
      84    H40     20.817627   25.684003   17.934889 H          1 MOL1         0.3769
      85    C25     24.665910   17.618193   22.100402 C.3        1 MOL1         0.2972
      86    H41     25.227492   16.730498   22.414927 H          1 MOL1         0.0751
      87    O21     23.543085   17.271078   21.263004 O.3        1 MOL1        -0.3740
      88    C26     24.169671   18.405601   23.342511 C.3        1 MOL1         0.1003
      89    H42     25.063221   18.702368   23.906433 H          1 MOL1         0.0783
      90    O22     23.334326   17.604733   24.192669 O.3        1 MOL1        -0.5519
      91    H43     22.434361   17.558956   23.766953 H          1 MOL1         0.3769
      92    C27     23.423236   19.692305   22.926681 C.3        1 MOL1         0.1053
      93    H44     22.500757   19.392038   22.423012 H          1 MOL1         0.0783
      94    O23     23.106353   20.445647   24.101414 O.3        1 MOL1        -0.5519
      95    H45     22.660237   19.801429   24.696353 H          1 MOL1         0.3769
      96    C28     24.248530   20.546201   21.931230 C.3        1 MOL1         0.1018
      97    H46     25.038595   21.070421   22.484805 H          1 MOL1         0.0783
      98    C29     24.876796   19.686582   20.797103 C.3        1 MOL1         0.1043
      99    H47     24.068459   19.374302   20.122760 H          1 MOL1         0.0783
     100    O24     25.519065   18.505604   21.344334 O.3        1 MOL1        -0.3740
     101    C30     25.911873   20.458109   19.943773 C.3        1 MOL1         0.0138
     102    H48     25.376469   21.198669   19.334244 H          1 MOL1         0.0794
     103    H49     26.391728   19.752265   19.252664 H          1 MOL1         0.0794
     104    O25     26.897929   21.115291   20.750237 O.3        1 MOL1        -0.5486
     105    H50     27.559677   21.515178   20.144544 H          1 MOL1         0.3769
     106    C31     21.300695   13.924709   20.255170 C.3        1 MOL1         0.2972
     107    H51     20.916318   12.970377   19.873426 H          1 MOL1         0.0751
     108    O26     20.217309   14.806560   20.618786 O.3        1 MOL1        -0.3740
     109    C32     22.277885   13.695004   21.442461 C.3        1 MOL1         0.1003
     110    H52     23.098610   13.082033   21.047685 H          1 MOL1         0.0783
     111    O27     21.665947   12.982200   22.528087 O.3        1 MOL1        -0.5519
     112    H53     21.011006   13.604994   22.933687 H          1 MOL1         0.3769
     113    C33     22.899666   15.019751   21.953735 C.3        1 MOL1         0.1053
     114    H54     22.120309   15.597504   22.466252 H          1 MOL1         0.0783
     115    O28     23.950017   14.682883   22.866807 O.3        1 MOL1        -0.5519
     116    H55     23.536465   14.093904   23.534315 H          1 MOL1         0.3769
     117    C34     23.452757   15.904235   20.802012 C.3        1 MOL1         0.1018
     118    H56     24.434925   15.522487   20.496929 H          1 MOL1         0.0783
     119    C35     22.506982   15.935674   19.569066 C.3        1 MOL1         0.1043
     120    H57     21.632945   16.542541   19.832567 H          1 MOL1         0.0783
     121    O29     22.065407   14.595823   19.230136 O.3        1 MOL1        -0.3740
     122    C36     23.137294   16.592268   18.316516 C.3        1 MOL1         0.0138
     123    H58     23.200957   17.675331   18.487521 H          1 MOL1         0.0794
     124    H59     22.459525   16.439338   17.466297 H          1 MOL1         0.0794
     125    O30     24.437307   16.072590   18.010077 O.3        1 MOL1        -0.5486
     126    H60     25.058284   16.414310   18.688616 H          1 MOL1         0.3769
     127    C1      19.692956   18.457763   23.052318 C.2        1 MOL1         0.6021
     128    O1      18.615479   18.260976   23.579669 O.co2      1 MOL1        -0.6904
     129    O2      20.687302   17.800181   23.309263 O.co2      1 MOL1        -0.6904
     130    C2      19.774229   19.561583   21.996931 C.3        1 MOL1        -0.2102
     131    H1      20.362579   20.370671   22.439171 H          1 MOL1         0.0687
     132    H2      18.765435   19.957020   21.844215 H          1 MOL1         0.0687
     133    C3      20.403088   19.150183   20.636402 C.3        1 MOL1        -0.1974
     134    H3      20.738449   20.049694   20.107290 H          1 MOL1         0.0689
     135    H4      21.298556   18.546428   20.815390 H          1 MOL1         0.0689
     136    C4      19.438234   18.373113   19.721157 C.3        1 MOL1        -0.2987
     137    H5      18.624113   19.021252   19.384054 H          1 MOL1         0.0700
     138    H6      19.962323   18.007122   18.829482 H          1 MOL1         0.0700
     139    H7      19.009995   17.508850   20.243072 H          1 MOL1         0.0700
@<TRIPOS>BOND
    1     1     2    1
    2     1     3    1
    3     1     4    1
    4     4     5    1
    5     4     6    1
    6     6     7    1
    7     4     8    1
    8     8     9    1
    9     8    10    1
   10    10    11    1
   11     8    12    1
   12    12    13    1
   13    12    14    1
   14    14    15    1
   15     1    16    1
   16    14    16    1
   17    14    17    1
   18    17    18    1
   19    17    19    1
   20    17    20    1
   21    20    21    1
   22    22    23    1
   23    22    24    1
   24    22    25    1
   25    25    26    1
   26    25    27    1
   27    27    28    1
   28    25    29    1
   29    29    30    1
   30    29    31    1
   31    31    32    1
   32     3    33    1
   33    29    33    1
   34    33    34    1
   35    33    35    1
   36    35    36    1
   37    22    37    1
   38    35    37    1
   39    35    38    1
   40    38    39    1
   41    38    40    1
   42    38    41    1
   43    41    42    1
   44    43    44    1
   45    43    45    1
   46    43    46    1
   47    46    47    1
   48    46    48    1
   49    48    49    1
   50    46    50    1
   51    50    51    1
   52    50    52    1
   53    52    53    1
   54    24    54    1
   55    50    54    1
   56    54    55    1
   57    54    56    1
   58    56    57    1
   59    43    58    1
   60    56    58    1
   61    56    59    1
   62    59    60    1
   63    59    61    1
   64    59    62    1
   65    62    63    1
   66    64    65    1
   67    64    66    1
   68    64    67    1
   69    67    68    1
   70    67    69    1
   71    69    70    1
   72    67    71    1
   73    71    72    1
   74    71    73    1
   75    73    74    1
   76    45    75    1
   77    71    75    1
   78    75    76    1
   79    75    77    1
   80    77    78    1
   81    64    79    1
   82    77    79    1
   83    77    80    1
   84    80    81    1
   85    80    82    1
   86    80    83    1
   87    83    84    1
   88    85    86    1
   89    85    87    1
   90    85    88    1
   91    88    89    1
   92    88    90    1
   93    90    91    1
   94    88    92    1
   95    92    93    1
   96    92    94    1
   97    94    95    1
   98    66    96    1
   99    92    96    1
  100    96    97    1
  101    96    98    1
  102    98    99    1
  103    85   100    1
  104    98   100    1
  105    98   101    1
  106   101   102    1
  107   101   103    1
  108   101   104    1
  109   104   105    1
  110   106   107    1
  111    12   108    1
  112   106   108    1
  113   106   109    1
  114   109   110    1
  115   109   111    1
  116   111   112    1
  117   109   113    1
  118   113   114    1
  119   113   115    1
  120   115   116    1
  121    87   117    1
  122   113   117    1
  123   117   118    1
  124   117   119    1
  125   119   120    1
  126   106   121    1
  127   119   121    1
  128   119   122    1
  129   122   123    1
  130   122   124    1
  131   122   125    1
  132   125   126    1
  133   127   128    1
  134   127   129    2
  135   127   130    1
  136   130   131    1
  137   130   132    1
  138   130   133    1
  139   133   134    1
  140   133   135    1
  141   133   136    1
  142   136   137    1
  143   136   138    1
  144   136   139    1
@<TRIPOS>SUBSTRUCTURE
       1 MOL1            1 RESIDUE      1      MOL     
       2 MOL1          139 RESIDUE      1      MOL     
@<SCITEGIC>MOL_PROPERTY
feprocess Rank
SciTegic.value.IntegerValue
35

@<SCITEGIC>MOL_PROPERTY
Conf_Id
SciTegic.value.IntegerValue
512

@<SCITEGIC>MOL_PROPERTY
Probability
SciTegic.value.DoubleValue
0.01

@<SCITEGIC>MOL_PROPERTY
G
SciTegic.value.DoubleValue
487.567

@<SCITEGIC>MOL_PROPERTY
E
SciTegic.value.DoubleValue
309.491

@<SCITEGIC>MOL_PROPERTY
-TS
SciTegic.value.DoubleValue
178.075

@<SCITEGIC>MOL_PROPERTY
U+W
SciTegic.value.DoubleValue
186.980

@<SCITEGIC>MOL_PROPERTY
U
SciTegic.value.DoubleValue
259.073

@<SCITEGIC>MOL_PROPERTY
W
SciTegic.value.DoubleValue
-72.092

@<SCITEGIC>MOL_PROPERTY
W(PB)
SciTegic.value.DoubleValue
-78.094

@<SCITEGIC>MOL_PROPERTY
W(SA)
SciTegic.value.DoubleValue
6.002

@<SCITEGIC>MOL_PROPERTY
Valence
SciTegic.value.DoubleValue
151.933

@<SCITEGIC>MOL_PROPERTY
Coulomb
SciTegic.value.DoubleValue
128.605

@<SCITEGIC>MOL_PROPERTY
VdW
SciTegic.value.DoubleValue
-21.465

@<SCITEGIC>MOL_PROPERTY
VdW6
SciTegic.value.DoubleValue
-179.127

@<SCITEGIC>MOL_PROPERTY
VdW12
SciTegic.value.DoubleValue
157.663

@<SCITEGIC>MOL_PROPERTY
Bond
SciTegic.value.DoubleValue
5.261

@<SCITEGIC>MOL_PROPERTY
Angle
SciTegic.value.DoubleValue
16.103

@<SCITEGIC>MOL_PROPERTY
Pdih
SciTegic.value.DoubleValue
130.566

@<SCITEGIC>MOL_PROPERTY
Idih
SciTegic.value.DoubleValue
0.002

@<SCITEGIC>MOL_PROPERTY
Tether
SciTegic.value.DoubleValue
0.000

@<TRIPOS>MOLECULE
CD_guest-6_fast_vm2_rndm.mol2 : feprocess host+ligand conformer 36
         139         144           2
SMALL
USER_CHARGES
 
@<TRIPOS>ATOM
       1    C1      16.342161   15.493632   20.145055 C.3        1 MOL1         0.2972
       2    H1      15.380099   15.504398   19.617131 H          1 MOL1         0.0751
       3    O1      16.536656   16.693222   20.917548 O.3        1 MOL1        -0.3740
       4    C2      16.445831   14.265511   21.082830 C.3        1 MOL1         0.1003
       5    H2      16.335604   13.372309   20.454287 H          1 MOL1         0.0783
       6    O2      15.399755   14.276210   22.067930 O.3        1 MOL1        -0.5519
       7    H3      15.458017   15.140126   22.548621 H          1 MOL1         0.3769
       8    C3      17.833351   14.191065   21.769485 C.3        1 MOL1         0.1053
       9    H4      17.881425   14.995455   22.513452 H          1 MOL1         0.0783
      10    O3      17.951489   12.920684   22.418048 O.3        1 MOL1        -0.5519
      11    H5      17.163643   12.850498   22.999452 H          1 MOL1         0.3769
      12    C4      19.013426   14.382360   20.775241 C.3        1 MOL1         0.1018
      13    H6      19.157618   13.437467   20.235799 H          1 MOL1         0.0783
      14    C5      18.757323   15.529428   19.749119 C.3        1 MOL1         0.1043
      15    H7      18.840339   16.488100   20.276738 H          1 MOL1         0.0783
      16    O4      17.424199   15.398661   19.198900 O.3        1 MOL1        -0.3740
      17    C6      19.738201   15.591804   18.549216 C.3        1 MOL1         0.0138
      18    H8      20.557849   16.273276   18.799915 H          1 MOL1         0.0794
      19    H9      19.214422   16.043936   17.696305 H          1 MOL1         0.0794
      20    O5      20.262582   14.313867   18.171570 O.3        1 MOL1        -0.5486
      21    H10     20.932279   14.066638   18.851530 H          1 MOL1         0.3769
      22    C7      14.751965   20.253112   21.955935 C.3        1 MOL1         0.2972
      23    H11     14.081362   21.085939   22.203527 H          1 MOL1         0.0751
      24    O6      16.129875   20.675992   21.908770 O.3        1 MOL1        -0.3740
      25    C8      14.626879   19.146141   23.030477 C.3        1 MOL1         0.1003
      26    H12     13.591809   18.781453   23.022305 H          1 MOL1         0.0783
      27    O7      14.927223   19.702323   24.320853 O.3        1 MOL1        -0.5519
      28    H13     15.624195   20.387017   24.180308 H          1 MOL1         0.3769
      29    C9      15.557947   17.955114   22.691799 C.3        1 MOL1         0.1053
      30    H14     16.590430   18.307231   22.803336 H          1 MOL1         0.0783
      31    O8      15.326747   16.852002   23.577247 O.3        1 MOL1        -0.5519
      32    H15     16.126705   16.818169   24.170788 H          1 MOL1         0.3769
      33    C10     15.364329   17.469889   21.232402 C.3        1 MOL1         0.1018
      34    H16     14.447190   16.867756   21.184154 H          1 MOL1         0.0783
      35    C11     15.296533   18.635882   20.204650 C.3        1 MOL1         0.1043
      36    H17     16.311508   19.039628   20.099824 H          1 MOL1         0.0783
      37    O9      14.412997   19.686249   20.674557 O.3        1 MOL1        -0.3740
      38    C12     14.828224   18.204922   18.793907 C.3        1 MOL1         0.0138
      39    H18     15.629534   17.620157   18.322440 H          1 MOL1         0.0794
      40    H19     14.681461   19.105931   18.183174 H          1 MOL1         0.0794
      41    O10     13.622425   17.432189   18.837738 O.3        1 MOL1        -0.5486
      42    H20     13.336719   17.272103   17.911874 H          1 MOL1         0.3769
      43    C13     18.490808   24.091728   21.472946 C.3        1 MOL1         0.2972
      44    H21     18.840515   25.121290   21.323379 H          1 MOL1         0.0751
      45    O11     19.592592   23.174009   21.594956 O.3        1 MOL1        -0.3740
      46    C14     17.670372   24.000596   22.783778 C.3        1 MOL1         0.1003
      47    H22     16.819968   24.688890   22.693740 H          1 MOL1         0.0783
      48    O12     18.482372   24.389327   23.902831 O.3        1 MOL1        -0.5519
      49    H23     19.408805   24.134739   23.675507 H          1 MOL1         0.3769
      50    C15     17.112907   22.571430   22.990415 C.3        1 MOL1         0.1053
      51    H24     17.958878   21.892747   23.166643 H          1 MOL1         0.0783
      52    O13     16.238187   22.557827   24.123139 O.3        1 MOL1        -0.5519
      53    H25     16.725012   23.041788   24.826702 H          1 MOL1         0.3769
      54    C16     16.356815   22.086155   21.730369 C.3        1 MOL1         0.1018
      55    H26     15.418902   22.650461   21.644815 H          1 MOL1         0.0783
      56    C17     17.199569   22.286747   20.439910 C.3        1 MOL1         0.1043
      57    H27     18.068187   21.619797   20.499701 H          1 MOL1         0.0783
      58    O14     17.657718   23.662200   20.372931 O.3        1 MOL1        -0.3740
      59    C18     16.461957   21.951442   19.117063 C.3        1 MOL1         0.0138
      60    H28     16.617927   20.889991   18.889521 H          1 MOL1         0.0794
      61    H29     16.929153   22.520220   18.301998 H          1 MOL1         0.0794
      62    O15     15.057964   22.229034   19.164167 O.3        1 MOL1        -0.5486
      63    H30     14.635539   21.485055   19.653575 H          1 MOL1         0.3769
      64    C19     23.541972   22.504363   20.496275 C.3        1 MOL1         0.2972
      65    H31     24.552594   22.547636   20.070361 H          1 MOL1         0.0751
      66    O16     23.274356   21.219291   21.094351 O.3        1 MOL1        -0.3740
      67    C20     23.329557   23.620271   21.554777 C.3        1 MOL1         0.1003
      68    H32     23.455070   24.581762   21.040133 H          1 MOL1         0.0783
      69    O17     24.287855   23.535237   22.620478 O.3        1 MOL1        -0.5519
      70    H33     24.166411   22.651024   23.050823 H          1 MOL1         0.3769
      71    C21     21.888380   23.566832   22.117599 C.3        1 MOL1         0.1053
      72    H34     21.783632   22.634291   22.688429 H          1 MOL1         0.0783
      73    O18     21.666011   24.687290   22.980628 O.3        1 MOL1        -0.5519
      74    H35     22.465177   24.736806   23.550571 H          1 MOL1         0.3769
      75    C22     20.834749   23.563210   20.980060 C.3        1 MOL1         0.1018
      76    H36     20.786189   24.572469   20.550906 H          1 MOL1         0.0783
      77    C23     21.176683   22.535533   19.861458 C.3        1 MOL1         0.1043
      78    H37     21.045735   21.526036   20.270966 H          1 MOL1         0.0783
      79    O19     22.558391   22.711721   19.459080 O.3        1 MOL1        -0.3740
      80    C24     20.289941   22.617192   18.591679 C.3        1 MOL1         0.0138
      81    H38     19.434550   21.943536   18.719903 H          1 MOL1         0.0794
      82    H39     20.866092   22.232626   17.739514 H          1 MOL1         0.0794
      83    O20     19.820928   23.939924   18.307287 O.3        1 MOL1        -0.5486
      84    H40     19.058132   24.105290   18.908745 H          1 MOL1         0.3769
      85    C25     24.970243   17.670255   22.311264 C.3        1 MOL1         0.2972
      86    H41     25.609605   16.839958   22.638196 H          1 MOL1         0.0751
      87    O21     23.630940   17.232131   22.021432 O.3        1 MOL1        -0.3740
      88    C26     24.892331   18.748249   23.417923 C.3        1 MOL1         0.1003
      89    H42     25.906087   19.140836   23.570689 H          1 MOL1         0.0783
      90    O22     24.414324   18.178548   24.647101 O.3        1 MOL1        -0.5519
      91    H43     23.927588   17.351349   24.410723 H          1 MOL1         0.3769
      92    C27     23.986403   19.920058   22.974146 C.3        1 MOL1         0.1053
      93    H44     22.956525   19.545126   22.903954 H          1 MOL1         0.0783
      94    O23     24.053167   20.960948   23.954238 O.3        1 MOL1        -0.5519
      95    H45     23.926459   20.501643   24.814553 H          1 MOL1         0.3769
      96    C28     24.402543   20.468411   21.584321 C.3        1 MOL1         0.1018
      97    H46     25.295069   21.096362   21.706472 H          1 MOL1         0.0783
      98    C29     24.678171   19.342237   20.544871 C.3        1 MOL1         0.1043
      99    H47     23.708338   18.920935   20.251879 H          1 MOL1         0.0783
     100    O24     25.496594   18.288861   21.119209 O.3        1 MOL1        -0.3740
     101    C30     25.364456   19.843559   19.251843 C.3        1 MOL1         0.0138
     102    H48     24.639112   20.437704   18.679694 H          1 MOL1         0.0794
     103    H49     25.630441   18.973705   18.636205 H          1 MOL1         0.0794
     104    O25     26.527995   20.632453   19.529281 O.3        1 MOL1        -0.5486
     105    H50     26.957701   20.842140   18.671362 H          1 MOL1         0.3769
     106    C31     21.293719   13.828115   21.510027 C.3        1 MOL1         0.2972
     107    H51     20.956214   12.797612   21.340880 H          1 MOL1         0.0751
     108    O26     20.167928   14.727041   21.577179 O.3        1 MOL1        -0.3740
     109    C32     22.104216   13.892024   22.836354 C.3        1 MOL1         0.1003
     110    H52     22.933896   13.181256   22.731109 H          1 MOL1         0.0783
     111    O27     21.303326   13.502164   23.961689 O.3        1 MOL1        -0.5519
     112    H53     20.649525   14.238801   24.120761 H          1 MOL1         0.3769
     113    C33     22.715114   15.291952   23.082033 C.3        1 MOL1         0.1053
     114    H54     21.899852   15.984690   23.310774 H          1 MOL1         0.0783
     115    O28     23.617135   15.241008   24.192085 O.3        1 MOL1        -0.5519
     116    H55     23.118344   14.780019   24.903297 H          1 MOL1         0.3769
     117    C34     23.450739   15.819069   21.830091 C.3        1 MOL1         0.1018
     118    H56     24.403933   15.285012   21.721894 H          1 MOL1         0.0783
     119    C35     22.610928   15.644737   20.539391 C.3        1 MOL1         0.1043
     120    H57     21.741709   16.309109   20.623954 H          1 MOL1         0.0783
     121    O29     22.155728   14.270284   20.434661 O.3        1 MOL1        -0.3740
     122    C36     23.356824   16.035789   19.234670 C.3        1 MOL1         0.0138
     123    H58     23.164001   17.096620   19.030861 H          1 MOL1         0.0794
     124    H59     22.926060   15.469672   18.398132 H          1 MOL1         0.0794
     125    O30     24.770974   15.814489   19.297737 O.3        1 MOL1        -0.5486
     126    H60     25.148508   16.512783   19.881263 H          1 MOL1         0.3769
     127    C1      18.999111   16.612318   24.271104 C.2        1 MOL1         0.6021
     128    O1      17.865479   16.685816   24.705209 O.co2      1 MOL1        -0.6904
     129    O2      19.814944   15.792119   24.645383 O.co2      1 MOL1        -0.6904
     130    C2      19.382814   17.539488   23.119910 C.3        1 MOL1        -0.2102
     131    H1      18.568787   17.527231   22.391813 H          1 MOL1         0.0687
     132    H2      20.256659   17.129803   22.608546 H          1 MOL1         0.0687
     133    C3      19.678543   18.988955   23.561591 C.3        1 MOL1        -0.1974
     134    H3      18.805178   19.401563   24.085644 H          1 MOL1         0.0689
     135    H4      20.514524   18.991646   24.274534 H          1 MOL1         0.0689
     136    C4      20.024248   19.874208   22.350826 C.3        1 MOL1        -0.2987
     137    H5      20.273946   20.886691   22.685216 H          1 MOL1         0.0700
     138    H6      20.885371   19.473754   21.800976 H          1 MOL1         0.0700
     139    H7      19.174224   19.937295   21.660705 H          1 MOL1         0.0700
@<TRIPOS>BOND
    1     1     2    1
    2     1     3    1
    3     1     4    1
    4     4     5    1
    5     4     6    1
    6     6     7    1
    7     4     8    1
    8     8     9    1
    9     8    10    1
   10    10    11    1
   11     8    12    1
   12    12    13    1
   13    12    14    1
   14    14    15    1
   15     1    16    1
   16    14    16    1
   17    14    17    1
   18    17    18    1
   19    17    19    1
   20    17    20    1
   21    20    21    1
   22    22    23    1
   23    22    24    1
   24    22    25    1
   25    25    26    1
   26    25    27    1
   27    27    28    1
   28    25    29    1
   29    29    30    1
   30    29    31    1
   31    31    32    1
   32     3    33    1
   33    29    33    1
   34    33    34    1
   35    33    35    1
   36    35    36    1
   37    22    37    1
   38    35    37    1
   39    35    38    1
   40    38    39    1
   41    38    40    1
   42    38    41    1
   43    41    42    1
   44    43    44    1
   45    43    45    1
   46    43    46    1
   47    46    47    1
   48    46    48    1
   49    48    49    1
   50    46    50    1
   51    50    51    1
   52    50    52    1
   53    52    53    1
   54    24    54    1
   55    50    54    1
   56    54    55    1
   57    54    56    1
   58    56    57    1
   59    43    58    1
   60    56    58    1
   61    56    59    1
   62    59    60    1
   63    59    61    1
   64    59    62    1
   65    62    63    1
   66    64    65    1
   67    64    66    1
   68    64    67    1
   69    67    68    1
   70    67    69    1
   71    69    70    1
   72    67    71    1
   73    71    72    1
   74    71    73    1
   75    73    74    1
   76    45    75    1
   77    71    75    1
   78    75    76    1
   79    75    77    1
   80    77    78    1
   81    64    79    1
   82    77    79    1
   83    77    80    1
   84    80    81    1
   85    80    82    1
   86    80    83    1
   87    83    84    1
   88    85    86    1
   89    85    87    1
   90    85    88    1
   91    88    89    1
   92    88    90    1
   93    90    91    1
   94    88    92    1
   95    92    93    1
   96    92    94    1
   97    94    95    1
   98    66    96    1
   99    92    96    1
  100    96    97    1
  101    96    98    1
  102    98    99    1
  103    85   100    1
  104    98   100    1
  105    98   101    1
  106   101   102    1
  107   101   103    1
  108   101   104    1
  109   104   105    1
  110   106   107    1
  111    12   108    1
  112   106   108    1
  113   106   109    1
  114   109   110    1
  115   109   111    1
  116   111   112    1
  117   109   113    1
  118   113   114    1
  119   113   115    1
  120   115   116    1
  121    87   117    1
  122   113   117    1
  123   117   118    1
  124   117   119    1
  125   119   120    1
  126   106   121    1
  127   119   121    1
  128   119   122    1
  129   122   123    1
  130   122   124    1
  131   122   125    1
  132   125   126    1
  133   127   128    1
  134   127   129    2
  135   127   130    1
  136   130   131    1
  137   130   132    1
  138   130   133    1
  139   133   134    1
  140   133   135    1
  141   133   136    1
  142   136   137    1
  143   136   138    1
  144   136   139    1
@<TRIPOS>SUBSTRUCTURE
       1 MOL1            1 RESIDUE      1      MOL     
       2 MOL1          139 RESIDUE      1      MOL     
@<SCITEGIC>MOL_PROPERTY
feprocess Rank
SciTegic.value.IntegerValue
36

@<SCITEGIC>MOL_PROPERTY
Conf_Id
SciTegic.value.IntegerValue
98

@<SCITEGIC>MOL_PROPERTY
Probability
SciTegic.value.DoubleValue
0.01

@<SCITEGIC>MOL_PROPERTY
G
SciTegic.value.DoubleValue
487.634

@<SCITEGIC>MOL_PROPERTY
E
SciTegic.value.DoubleValue
311.442

@<SCITEGIC>MOL_PROPERTY
-TS
SciTegic.value.DoubleValue
176.191

@<SCITEGIC>MOL_PROPERTY
U+W
SciTegic.value.DoubleValue
188.931

@<SCITEGIC>MOL_PROPERTY
U
SciTegic.value.DoubleValue
268.406

@<SCITEGIC>MOL_PROPERTY
W
SciTegic.value.DoubleValue
-79.475

@<SCITEGIC>MOL_PROPERTY
W(PB)
SciTegic.value.DoubleValue
-85.442

@<SCITEGIC>MOL_PROPERTY
W(SA)
SciTegic.value.DoubleValue
5.967

@<SCITEGIC>MOL_PROPERTY
Valence
SciTegic.value.DoubleValue
154.592

@<SCITEGIC>MOL_PROPERTY
Coulomb
SciTegic.value.DoubleValue
135.777

@<SCITEGIC>MOL_PROPERTY
VdW
SciTegic.value.DoubleValue
-21.964

@<SCITEGIC>MOL_PROPERTY
VdW6
SciTegic.value.DoubleValue
-175.351

@<SCITEGIC>MOL_PROPERTY
VdW12
SciTegic.value.DoubleValue
153.388

@<SCITEGIC>MOL_PROPERTY
Bond
SciTegic.value.DoubleValue
5.059

@<SCITEGIC>MOL_PROPERTY
Angle
SciTegic.value.DoubleValue
13.863

@<SCITEGIC>MOL_PROPERTY
Pdih
SciTegic.value.DoubleValue
135.656

@<SCITEGIC>MOL_PROPERTY
Idih
SciTegic.value.DoubleValue
0.014

@<SCITEGIC>MOL_PROPERTY
Tether
SciTegic.value.DoubleValue
0.000

@<TRIPOS>MOLECULE
CD_guest-6_fast_vm2_rndm.mol2 : feprocess host+ligand conformer 37
         139         144           2
SMALL
USER_CHARGES
 
@<TRIPOS>ATOM
       1    C1      16.065135   15.065795   20.933494 C.3        1 MOL1         0.2972
       2    H1      14.981563   14.934094   20.825640 H          1 MOL1         0.0751
       3    O1      16.410863   16.438534   21.219544 O.3        1 MOL1        -0.3740
       4    C2      16.635509   14.141679   22.039936 C.3        1 MOL1         0.1003
       5    H2      16.488726   13.107055   21.703104 H          1 MOL1         0.0783
       6    O2      15.953567   14.315785   23.289745 O.3        1 MOL1        -0.5519
       7    H3      16.054347   15.265969   23.550120 H          1 MOL1         0.3769
       8    C3      18.157849   14.375424   22.193173 C.3        1 MOL1         0.1053
       9    H4      18.315375   15.402833   22.546187 H          1 MOL1         0.0783
      10    O3      18.692580   13.448620   23.144229 O.3        1 MOL1        -0.5519
      11    H5      18.055197   13.453626   23.892850 H          1 MOL1         0.3769
      12    C4      18.883091   14.207103   20.833786 C.3        1 MOL1         0.1018
      13    H6      18.955485   13.132519   20.620560 H          1 MOL1         0.0783
      14    C5      18.159148   14.931026   19.660095 C.3        1 MOL1         0.1043
      15    H7      18.336950   16.008334   19.759624 H          1 MOL1         0.0783
      16    O4      16.728869   14.689515   19.708631 O.3        1 MOL1        -0.3740
      17    C6      18.680084   14.510655   18.264903 C.3        1 MOL1         0.0138
      18    H8      19.691984   14.917097   18.133983 H          1 MOL1         0.0794
      19    H9      18.042317   14.972351   17.499330 H          1 MOL1         0.0794
      20    O5      18.703315   13.086640   18.101997 O.3        1 MOL1        -0.5486
      21    H10     18.990609   12.897358   17.182155 H          1 MOL1         0.3769
      22    C7      15.118721   20.197790   22.307624 C.3        1 MOL1         0.2972
      23    H11     14.578174   21.093849   22.637496 H          1 MOL1         0.0751
      24    O6      16.412092   20.531849   21.772010 O.3        1 MOL1        -0.3740
      25    C8      15.297806   19.222076   23.496429 C.3        1 MOL1         0.1003
      26    H12     14.293692   18.925555   23.825705 H          1 MOL1         0.0783
      27    O7      15.981088   19.849926   24.591373 O.3        1 MOL1        -0.5519
      28    H13     16.914679   20.028804   24.284154 H          1 MOL1         0.3769
      29    C9      16.053311   17.949111   23.055896 C.3        1 MOL1         0.1053
      30    H14     17.072932   18.244439   22.789558 H          1 MOL1         0.0783
      31    O8      16.090738   17.031796   24.151987 O.3        1 MOL1        -0.5519
      32    H15     16.375169   17.576729   24.920286 H          1 MOL1         0.3769
      33    C10     15.404729   17.288516   21.811745 C.3        1 MOL1         0.1018
      34    H16     14.518387   16.725378   22.130320 H          1 MOL1         0.0783
      35    C11     15.025371   18.326270   20.715915 C.3        1 MOL1         0.1043
      36    H17     15.959938   18.635908   20.235736 H          1 MOL1         0.0783
      37    O9      14.380190   19.498891   21.280850 O.3        1 MOL1        -0.3740
      38    C12     14.113892   17.751252   19.604592 C.3        1 MOL1         0.0138
      39    H18     14.667871   16.975564   19.058418 H          1 MOL1         0.0794
      40    H19     13.892911   18.553232   18.887731 H          1 MOL1         0.0794
      41    O10     12.890859   17.211081   20.122125 O.3        1 MOL1        -0.5486
      42    H20     13.099613   16.391693   20.615847 H          1 MOL1         0.3769
      43    C13     18.579070   23.866665   20.487011 C.3        1 MOL1         0.2972
      44    H21     18.886797   24.804723   20.007338 H          1 MOL1         0.0751
      45    O11     19.702434   23.161948   21.047422 O.3        1 MOL1        -0.3740
      46    C14     17.587339   24.145410   21.644535 C.3        1 MOL1         0.1003
      47    H22     16.734798   24.687929   21.215819 H          1 MOL1         0.0783
      48    O12     18.206315   24.962797   22.652386 O.3        1 MOL1        -0.5519
      49    H23     19.112832   24.595497   22.808170 H          1 MOL1         0.3769
      50    C15     17.044959   22.831801   22.270026 C.3        1 MOL1         0.1053
      51    H24     17.860510   22.345924   22.825513 H          1 MOL1         0.0783
      52    O13     15.974272   23.170151   23.158217 O.3        1 MOL1        -0.5519
      53    H25     16.345797   23.849453   23.762079 H          1 MOL1         0.3769
      54    C16     16.547740   21.839936   21.182427 C.3        1 MOL1         0.1018
      55    H26     15.593270   22.201238   20.778433 H          1 MOL1         0.0783
      56    C17     17.570811   21.695180   20.025190 C.3        1 MOL1         0.1043
      57    H27     18.466160   21.208887   20.426664 H          1 MOL1         0.0783
      58    O14     17.922984   23.007265   19.530573 O.3        1 MOL1        -0.3740
      59    C18     17.081459   20.829436   18.836612 C.3        1 MOL1         0.0138
      60    H28     17.332132   19.782502   19.048870 H          1 MOL1         0.0794
      61    H29     17.647819   21.112041   17.939337 H          1 MOL1         0.0794
      62    O15     15.673917   20.953939   18.591988 O.3        1 MOL1        -0.5486
      63    H30     15.207556   20.635045   19.397237 H          1 MOL1         0.3769
      64    C19     23.802459   22.861437   20.966704 C.3        1 MOL1         0.2972
      65    H31     24.888489   22.974353   20.862622 H          1 MOL1         0.0751
      66    O16     23.436155   21.481200   21.191584 O.3        1 MOL1        -0.3740
      67    C20     23.249457   23.775998   22.091872 C.3        1 MOL1         0.1003
      68    H32     23.413319   24.811955   21.767250 H          1 MOL1         0.0783
      69    O17     23.934460   23.580935   23.337001 O.3        1 MOL1        -0.5519
      70    H33     23.687054   22.678157   23.659054 H          1 MOL1         0.3769
      71    C21     21.722467   23.570530   22.243741 C.3        1 MOL1         0.1053
      72    H34     21.538796   22.541623   22.583068 H          1 MOL1         0.0783
      73    O18     21.202458   24.498789   23.202854 O.3        1 MOL1        -0.5519
      74    H35     21.809768   24.442712   23.973209 H          1 MOL1         0.3769
      75    C22     20.997686   23.770271   20.889240 C.3        1 MOL1         0.1018
      76    H36     20.922364   24.849492   20.702239 H          1 MOL1         0.0783
      77    C23     21.713872   23.070444   19.694917 C.3        1 MOL1         0.1043
      78    H37     21.517137   21.993731   19.762127 H          1 MOL1         0.0783
      79    O19     23.148421   23.288174   19.753280 O.3        1 MOL1        -0.3740
      80    C24     21.208040   23.537999   18.309091 C.3        1 MOL1         0.0138
      81    H38     20.197364   23.138435   18.152826 H          1 MOL1         0.0794
      82    H39     21.852779   23.099347   17.535827 H          1 MOL1         0.0794
      83    O20     21.190794   24.966548   18.191531 O.3        1 MOL1        -0.5486
      84    H40     20.917876   25.185994   17.273987 H          1 MOL1         0.3769
      85    C25     24.464459   17.772105   22.670086 C.3        1 MOL1         0.2972
      86    H41     24.925912   16.895818   23.140560 H          1 MOL1         0.0751
      87    O21     23.310854   17.407508   21.884838 O.3        1 MOL1        -0.3740
      88    C26     24.029761   18.784923   23.758169 C.3        1 MOL1         0.1003
      89    H42     24.938306   19.109310   24.281329 H          1 MOL1         0.0783
      90    O22     23.144266   18.166996   24.707160 O.3        1 MOL1        -0.5519
      91    H43     22.268211   18.629321   24.639691 H          1 MOL1         0.3769
      92    C27     23.383030   20.032658   23.109963 C.3        1 MOL1         0.1053
      93    H44     22.454128   19.714027   22.624820 H          1 MOL1         0.0783
      94    O23     23.078448   20.997593   24.121895 O.3        1 MOL1        -0.5519
      95    H45     22.218533   20.687059   24.514675 H          1 MOL1         0.3769
      96    C28     24.289620   20.656771   22.016747 C.3        1 MOL1         0.1018
      97    H46     25.087450   21.234661   22.499641 H          1 MOL1         0.0783
      98    C29     24.897647   19.583498   21.067238 C.3        1 MOL1         0.1043
      99    H47     24.093039   19.242394   20.406196 H          1 MOL1         0.0783
     100    O24     25.407914   18.442737   21.805472 O.3        1 MOL1        -0.3740
     101    C30     26.028476   20.127729   20.161089 C.3        1 MOL1         0.0138
     102    H48     25.603978   20.874900   19.476836 H          1 MOL1         0.0794
     103    H49     26.404651   19.302057   19.542597 H          1 MOL1         0.0794
     104    O25     27.105972   20.703738   20.911508 O.3        1 MOL1        -0.5486
     105    H50     26.780563   21.520874   21.342256 H          1 MOL1         0.3769
     106    C31     21.306793   14.064898   20.481733 C.3        1 MOL1         0.2972
     107    H51     20.992673   13.132720   19.994853 H          1 MOL1         0.0751
     108    O26     20.181379   14.814490   20.983496 O.3        1 MOL1        -0.3740
     109    C32     22.244450   13.770032   21.676665 C.3        1 MOL1         0.1003
     110    H52     23.121539   13.243849   21.277900 H          1 MOL1         0.0783
     111    O27     21.593659   12.929844   22.644242 O.3        1 MOL1        -0.5519
     112    H53     20.678522   13.285757   22.777587 H          1 MOL1         0.3769
     113    C33     22.740647   15.080591   22.340936 C.3        1 MOL1         0.1053
     114    H54     21.888358   15.552941   22.848680 H          1 MOL1         0.0783
     115    O28     23.748774   14.735744   23.296303 O.3        1 MOL1        -0.5519
     116    H55     23.356430   14.012718   23.833521 H          1 MOL1         0.3769
     117    C34     23.300571   16.090739   21.296775 C.3        1 MOL1         0.1018
     118    H56     24.309203   15.774957   21.002384 H          1 MOL1         0.0783
     119    C35     22.399852   16.202649   20.033227 C.3        1 MOL1         0.1043
     120    H57     21.484386   16.733754   20.317004 H          1 MOL1         0.0783
     121    O29     22.042966   14.886489   19.552274 O.3        1 MOL1        -0.3740
     122    C36     23.034249   16.998884   18.864040 C.3        1 MOL1         0.0138
     123    H58     22.876647   18.069087   19.044330 H          1 MOL1         0.0794
     124    H59     22.493479   16.752861   17.940562 H          1 MOL1         0.0794
     125    O30     24.433838   16.737195   18.698862 O.3        1 MOL1        -0.5486
     126    H60     24.891596   17.068572   19.501664 H          1 MOL1         0.3769
     127    C1      19.747000   19.362380   23.809650 C.2        1 MOL1         0.6021
     128    O1      20.709151   19.597334   24.518488 O.co2      1 MOL1        -0.6904
     129    O2      18.681382   19.940228   23.905223 O.co2      1 MOL1        -0.6904
     130    C2      19.867020   18.208662   22.811956 C.3        1 MOL1        -0.2102
     131    H1      19.201177   17.415635   23.166106 H          1 MOL1         0.0687
     132    H2      20.882374   17.803217   22.864295 H          1 MOL1         0.0687
     133    C3      19.515164   18.562067   21.342124 C.3        1 MOL1        -0.1974
     134    H3      19.463687   17.638665   20.755914 H          1 MOL1         0.0689
     135    H4      18.516665   19.010564   21.300717 H          1 MOL1         0.0689
     136    C4      20.533011   19.518482   20.691865 C.3        1 MOL1        -0.2987
     137    H5      21.535252   19.079224   20.676739 H          1 MOL1         0.0700
     138    H6      20.247594   19.747257   19.657729 H          1 MOL1         0.0700
     139    H7      20.583915   20.460958   21.252055 H          1 MOL1         0.0700
@<TRIPOS>BOND
    1     1     2    1
    2     1     3    1
    3     1     4    1
    4     4     5    1
    5     4     6    1
    6     6     7    1
    7     4     8    1
    8     8     9    1
    9     8    10    1
   10    10    11    1
   11     8    12    1
   12    12    13    1
   13    12    14    1
   14    14    15    1
   15     1    16    1
   16    14    16    1
   17    14    17    1
   18    17    18    1
   19    17    19    1
   20    17    20    1
   21    20    21    1
   22    22    23    1
   23    22    24    1
   24    22    25    1
   25    25    26    1
   26    25    27    1
   27    27    28    1
   28    25    29    1
   29    29    30    1
   30    29    31    1
   31    31    32    1
   32     3    33    1
   33    29    33    1
   34    33    34    1
   35    33    35    1
   36    35    36    1
   37    22    37    1
   38    35    37    1
   39    35    38    1
   40    38    39    1
   41    38    40    1
   42    38    41    1
   43    41    42    1
   44    43    44    1
   45    43    45    1
   46    43    46    1
   47    46    47    1
   48    46    48    1
   49    48    49    1
   50    46    50    1
   51    50    51    1
   52    50    52    1
   53    52    53    1
   54    24    54    1
   55    50    54    1
   56    54    55    1
   57    54    56    1
   58    56    57    1
   59    43    58    1
   60    56    58    1
   61    56    59    1
   62    59    60    1
   63    59    61    1
   64    59    62    1
   65    62    63    1
   66    64    65    1
   67    64    66    1
   68    64    67    1
   69    67    68    1
   70    67    69    1
   71    69    70    1
   72    67    71    1
   73    71    72    1
   74    71    73    1
   75    73    74    1
   76    45    75    1
   77    71    75    1
   78    75    76    1
   79    75    77    1
   80    77    78    1
   81    64    79    1
   82    77    79    1
   83    77    80    1
   84    80    81    1
   85    80    82    1
   86    80    83    1
   87    83    84    1
   88    85    86    1
   89    85    87    1
   90    85    88    1
   91    88    89    1
   92    88    90    1
   93    90    91    1
   94    88    92    1
   95    92    93    1
   96    92    94    1
   97    94    95    1
   98    66    96    1
   99    92    96    1
  100    96    97    1
  101    96    98    1
  102    98    99    1
  103    85   100    1
  104    98   100    1
  105    98   101    1
  106   101   102    1
  107   101   103    1
  108   101   104    1
  109   104   105    1
  110   106   107    1
  111    12   108    1
  112   106   108    1
  113   106   109    1
  114   109   110    1
  115   109   111    1
  116   111   112    1
  117   109   113    1
  118   113   114    1
  119   113   115    1
  120   115   116    1
  121    87   117    1
  122   113   117    1
  123   117   118    1
  124   117   119    1
  125   119   120    1
  126   106   121    1
  127   119   121    1
  128   119   122    1
  129   122   123    1
  130   122   124    1
  131   122   125    1
  132   125   126    1
  133   127   128    1
  134   127   129    2
  135   127   130    1
  136   130   131    1
  137   130   132    1
  138   130   133    1
  139   133   134    1
  140   133   135    1
  141   133   136    1
  142   136   137    1
  143   136   138    1
  144   136   139    1
@<TRIPOS>SUBSTRUCTURE
       1 MOL1            1 RESIDUE      1      MOL     
       2 MOL1          139 RESIDUE      1      MOL     
@<SCITEGIC>MOL_PROPERTY
feprocess Rank
SciTegic.value.IntegerValue
37

@<SCITEGIC>MOL_PROPERTY
Conf_Id
SciTegic.value.IntegerValue
440

@<SCITEGIC>MOL_PROPERTY
Probability
SciTegic.value.DoubleValue
0.01

@<SCITEGIC>MOL_PROPERTY
G
SciTegic.value.DoubleValue
487.689

@<SCITEGIC>MOL_PROPERTY
E
SciTegic.value.DoubleValue
309.252

@<SCITEGIC>MOL_PROPERTY
-TS
SciTegic.value.DoubleValue
178.437

@<SCITEGIC>MOL_PROPERTY
U+W
SciTegic.value.DoubleValue
186.741

@<SCITEGIC>MOL_PROPERTY
U
SciTegic.value.DoubleValue
259.774

@<SCITEGIC>MOL_PROPERTY
W
SciTegic.value.DoubleValue
-73.033

@<SCITEGIC>MOL_PROPERTY
W(PB)
SciTegic.value.DoubleValue
-79.018

@<SCITEGIC>MOL_PROPERTY
W(SA)
SciTegic.value.DoubleValue
5.985

@<SCITEGIC>MOL_PROPERTY
Valence
SciTegic.value.DoubleValue
151.216

@<SCITEGIC>MOL_PROPERTY
Coulomb
SciTegic.value.DoubleValue
130.649

@<SCITEGIC>MOL_PROPERTY
VdW
SciTegic.value.DoubleValue
-22.091

@<SCITEGIC>MOL_PROPERTY
VdW6
SciTegic.value.DoubleValue
-178.582

@<SCITEGIC>MOL_PROPERTY
VdW12
SciTegic.value.DoubleValue
156.491

@<SCITEGIC>MOL_PROPERTY
Bond
SciTegic.value.DoubleValue
5.197

@<SCITEGIC>MOL_PROPERTY
Angle
SciTegic.value.DoubleValue
15.682

@<SCITEGIC>MOL_PROPERTY
Pdih
SciTegic.value.DoubleValue
130.325

@<SCITEGIC>MOL_PROPERTY
Idih
SciTegic.value.DoubleValue
0.012

@<SCITEGIC>MOL_PROPERTY
Tether
SciTegic.value.DoubleValue
0.000

@<TRIPOS>MOLECULE
CD_guest-6_fast_vm2_rndm.mol2 : feprocess host+ligand conformer 38
         139         144           2
SMALL
USER_CHARGES
 
@<TRIPOS>ATOM
       1    C1      16.292439   15.188676   21.375268 C.3        1 MOL1         0.2972
       2    H1      15.231375   14.964840   21.207659 H          1 MOL1         0.0751
       3    O1      16.521530   16.600982   21.538342 O.3        1 MOL1        -0.3740
       4    C2      16.776640   14.492934   22.671987 C.3        1 MOL1         0.1003
       5    H2      16.623959   13.413158   22.546096 H          1 MOL1         0.0783
       6    O2      16.016298   14.951379   23.801645 O.3        1 MOL1        -0.5519
       7    H3      15.783248   15.897842   23.627909 H          1 MOL1         0.3769
       8    C3      18.287266   14.739861   22.899081 C.3        1 MOL1         0.1053
       9    H4      18.435341   15.807800   23.111229 H          1 MOL1         0.0783
      10    O3      18.738293   13.958671   24.010319 O.3        1 MOL1        -0.5519
      11    H5      18.057750   14.091902   24.707580 H          1 MOL1         0.3769
      12    C4      19.096695   14.377176   21.630837 C.3        1 MOL1         0.1018
      13    H6      19.084785   13.286344   21.505976 H          1 MOL1         0.0783
      14    C5      18.507959   15.038572   20.354556 C.3        1 MOL1         0.1043
      15    H7      18.627448   16.123795   20.443285 H          1 MOL1         0.0783
      16    O4      17.095457   14.721089   20.267849 O.3        1 MOL1        -0.3740
      17    C6      19.201177   14.624653   19.030384 C.3        1 MOL1         0.0138
      18    H8      20.027902   15.320842   18.840373 H          1 MOL1         0.0794
      19    H9      18.486123   14.750349   18.206548 H          1 MOL1         0.0794
      20    O5      19.701201   13.282203   19.046548 O.3        1 MOL1        -0.5486
      21    H10     20.523874   13.286437   19.589385 H          1 MOL1         0.3769
      22    C7      14.796651   20.301760   20.662845 C.3        1 MOL1         0.2972
      23    H11     14.111107   21.094872   20.340267 H          1 MOL1         0.0751
      24    O6      16.092388   20.822409   21.016610 O.3        1 MOL1        -0.3740
      25    C8      14.220703   19.557145   21.895464 C.3        1 MOL1         0.1003
      26    H12     13.263193   19.114880   21.591009 H          1 MOL1         0.0783
      27    O7      13.988724   20.458085   22.989061 O.3        1 MOL1        -0.5519
      28    H13     14.765724   21.071320   23.039592 H          1 MOL1         0.3769
      29    C9      15.158195   18.402538   22.324517 C.3        1 MOL1         0.1053
      30    H14     16.106363   18.833472   22.677492 H          1 MOL1         0.0783
      31    O8      14.541444   17.649543   23.375091 O.3        1 MOL1        -0.5519
      32    H15     14.201794   18.324181   24.004575 H          1 MOL1         0.3769
      33    C10     15.457786   17.475420   21.122665 C.3        1 MOL1         0.1018
      34    H16     14.540501   16.923610   20.879471 H          1 MOL1         0.0783
      35    C11     15.928325   18.275745   19.876450 C.3        1 MOL1         0.1043
      36    H17     16.907425   18.716894   20.102264 H          1 MOL1         0.0783
      37    O9      14.977866   19.336593   19.604103 O.3        1 MOL1        -0.3740
      38    C12     16.090737   17.426230   18.590263 C.3        1 MOL1         0.0138
      39    H18     17.059638   16.914206   18.627059 H          1 MOL1         0.0794
      40    H19     16.119715   18.104164   17.726934 H          1 MOL1         0.0794
      41    O10     15.050443   16.456730   18.421744 O.3        1 MOL1        -0.5486
      42    H20     15.348765   15.639216   18.877946 H          1 MOL1         0.3769
      43    C13     18.505469   24.183153   21.007819 C.3        1 MOL1         0.2972
      44    H21     18.950716   25.182701   20.922706 H          1 MOL1         0.0751
      45    O11     19.520629   23.170657   21.175211 O.3        1 MOL1        -0.3740
      46    C14     17.479355   24.121948   22.171801 C.3        1 MOL1         0.1003
      47    H22     16.667085   24.814308   21.914671 H          1 MOL1         0.0783
      48    O12     18.045438   24.533226   23.424740 O.3        1 MOL1        -0.5519
      49    H23     18.710214   23.842838   23.674809 H          1 MOL1         0.3769
      50    C15     16.870294   22.702857   22.279182 C.3        1 MOL1         0.1053
      51    H24     17.665825   21.998170   22.560083 H          1 MOL1         0.0783
      52    O13     15.845584   22.705763   23.278234 O.3        1 MOL1        -0.5519
      53    H25     16.236330   23.181326   24.044850 H          1 MOL1         0.3769
      54    C16     16.278410   22.247711   20.921667 C.3        1 MOL1         0.1018
      55    H26     15.331546   22.780060   20.765074 H          1 MOL1         0.0783
      56    C17     17.239484   22.517334   19.727487 C.3        1 MOL1         0.1043
      57    H27     18.069499   21.803243   19.787761 H          1 MOL1         0.0783
      58    O14     17.773664   23.864751   19.803852 O.3        1 MOL1        -0.3740
      59    C18     16.584546   22.323678   18.338160 C.3        1 MOL1         0.0138
      60    H28     16.394948   21.252741   18.183475 H          1 MOL1         0.0794
      61    H29     17.305791   22.636854   17.571732 H          1 MOL1         0.0794
      62    O15     15.365526   23.063642   18.192777 O.3        1 MOL1        -0.5486
      63    H30     14.641637   22.528644   18.579658 H          1 MOL1         0.3769
      64    C19     23.338308   22.335045   22.488552 C.3        1 MOL1         0.2972
      65    H31     24.346468   22.319433   22.918341 H          1 MOL1         0.0751
      66    O16     23.077376   21.173690   21.674429 O.3        1 MOL1        -0.3740
      67    C20     22.277508   22.378520   23.615630 C.3        1 MOL1         0.1003
      68    H32     22.401339   23.330358   24.147420 H          1 MOL1         0.0783
      69    O17     22.473071   21.300737   24.544804 O.3        1 MOL1        -0.5519
      70    H33     22.143172   20.466633   24.109864 H          1 MOL1         0.3769
      71    C21     20.859807   22.355947   22.993680 C.3        1 MOL1         0.1053
      72    H34     20.751063   21.421568   22.437058 H          1 MOL1         0.0783
      73    O18     19.856523   22.404174   24.013108 O.3        1 MOL1        -0.5519
      74    H35     19.668683   21.446685   24.212167 H          1 MOL1         0.3769
      75    C22     20.677949   23.505782   21.970870 C.3        1 MOL1         0.1018
      76    H36     20.553507   24.452366   22.512565 H          1 MOL1         0.0783
      77    C23     21.875141   23.607628   20.980219 C.3        1 MOL1         0.1043
      78    H37     21.795288   22.768528   20.279082 H          1 MOL1         0.0783
      79    O19     23.147207   23.513630   21.674368 O.3        1 MOL1        -0.3740
      80    C24     21.867682   24.905710   20.138366 C.3        1 MOL1         0.0138
      81    H38     21.035546   24.851654   19.423391 H          1 MOL1         0.0794
      82    H39     22.796870   24.950735   19.554675 H          1 MOL1         0.0794
      83    O20     21.732917   26.077223   20.952658 O.3        1 MOL1        -0.5486
      84    H40     21.812660   26.859879   20.364592 H          1 MOL1         0.3769
      85    C25     24.883996   17.703686   20.378779 C.3        1 MOL1         0.2972
      86    H41     25.482382   16.916559   19.904043 H          1 MOL1         0.0751
      87    O21     23.665496   17.180766   20.943852 O.3        1 MOL1        -0.3740
      88    C26     25.689168   18.434985   21.481062 C.3        1 MOL1         0.1003
      89    H42     26.543146   18.914231   20.984744 H          1 MOL1         0.0783
      90    O22     26.187680   17.519291   22.467653 O.3        1 MOL1        -0.5519
      91    H43     25.401312   17.080842   22.881485 H          1 MOL1         0.3769
      92    C27     24.842437   19.554114   22.140657 C.3        1 MOL1         0.1053
      93    H44     24.033478   19.083224   22.718333 H          1 MOL1         0.0783
      94    O23     25.701062   20.299331   23.010718 O.3        1 MOL1        -0.5519
      95    H45     26.158522   19.625744   23.560217 H          1 MOL1         0.3769
      96    C28     24.195829   20.491821   21.077558 C.3        1 MOL1         0.1018
      97    H46     24.950369   21.201080   20.715699 H          1 MOL1         0.0783
      98    C29     23.591513   19.708606   19.876281 C.3        1 MOL1         0.1043
      99    H47     22.679355   19.210275   20.228156 H          1 MOL1         0.0783
     100    O24     24.521801   18.703497   19.404854 O.3        1 MOL1        -0.3740
     101    C30     23.170127   20.599374   18.681110 C.3        1 MOL1         0.0138
     102    H48     22.213057   21.077793   18.924632 H          1 MOL1         0.0794
     103    H49     22.988503   19.952468   17.812633 H          1 MOL1         0.0794
     104    O25     24.145230   21.598137   18.356164 O.3        1 MOL1        -0.5486
     105    H50     24.168977   22.239453   19.098207 H          1 MOL1         0.3769
     106    C31     21.460668   13.896093   21.980005 C.3        1 MOL1         0.2972
     107    H51     21.047598   12.912743   22.239254 H          1 MOL1         0.0751
     108    O26     20.426916   14.886034   21.824316 O.3        1 MOL1        -0.3740
     109    C32     22.422496   14.369439   23.093134 C.3        1 MOL1         0.1003
     110    H52     23.247757   13.647398   23.144861 H          1 MOL1         0.0783
     111    O27     21.746109   14.404874   24.359979 O.3        1 MOL1        -0.5519
     112    H53     20.783529   14.525881   24.168105 H          1 MOL1         0.3769
     113    C33     23.021615   15.753628   22.752689 C.3        1 MOL1         0.1053
     114    H54     22.216452   16.498084   22.813870 H          1 MOL1         0.0783
     115    O28     24.035430   16.064908   23.712969 O.3        1 MOL1        -0.5519
     116    H55     23.595320   15.954608   24.585178 H          1 MOL1         0.3769
     117    C34     23.617509   15.792365   21.319026 C.3        1 MOL1         0.1018
     118    H56     24.613506   15.332158   21.337169 H          1 MOL1         0.0783
     119    C35     22.715014   15.097080   20.257796 C.3        1 MOL1         0.1043
     120    H57     21.869894   15.768923   20.059050 H          1 MOL1         0.0783
     121    O29     22.204028   13.830668   20.747131 O.3        1 MOL1        -0.3740
     122    C36     23.421085   14.847888   18.903057 C.3        1 MOL1         0.0138
     123    H58     23.663047   15.817074   18.446108 H          1 MOL1         0.0794
     124    H59     22.712907   14.343980   18.231831 H          1 MOL1         0.0794
     125    O30     24.608685   14.056220   19.038968 O.3        1 MOL1        -0.5486
     126    H60     25.277177   14.580979   19.525066 H          1 MOL1         0.3769
     127    C1      20.265043   18.980951   23.097914 C.2        1 MOL1         0.6021
     128    O1      19.388577   19.595602   23.676780 O.co2      1 MOL1        -0.6904
     129    O2      21.418993   18.948492   23.477605 O.co2      1 MOL1        -0.6904
     130    C2      19.948740   18.368630   21.736447 C.3        1 MOL1        -0.2102
     131    H1      19.024751   17.792762   21.841946 H          1 MOL1         0.0687
     132    H2      20.750916   17.665468   21.487787 H          1 MOL1         0.0687
     133    C3      19.796658   19.416669   20.607701 C.3        1 MOL1        -0.1974
     134    H3      18.878330   19.991110   20.780860 H          1 MOL1         0.0689
     135    H4      20.627067   20.130778   20.653717 H          1 MOL1         0.0689
     136    C4      19.772136   18.767992   19.209092 C.3        1 MOL1        -0.2987
     137    H5      19.634024   19.530877   18.432341 H          1 MOL1         0.0700
     138    H6      20.714307   18.242508   19.006389 H          1 MOL1         0.0700
     139    H7      18.956349   18.044259   19.124806 H          1 MOL1         0.0700
@<TRIPOS>BOND
    1     1     2    1
    2     1     3    1
    3     1     4    1
    4     4     5    1
    5     4     6    1
    6     6     7    1
    7     4     8    1
    8     8     9    1
    9     8    10    1
   10    10    11    1
   11     8    12    1
   12    12    13    1
   13    12    14    1
   14    14    15    1
   15     1    16    1
   16    14    16    1
   17    14    17    1
   18    17    18    1
   19    17    19    1
   20    17    20    1
   21    20    21    1
   22    22    23    1
   23    22    24    1
   24    22    25    1
   25    25    26    1
   26    25    27    1
   27    27    28    1
   28    25    29    1
   29    29    30    1
   30    29    31    1
   31    31    32    1
   32     3    33    1
   33    29    33    1
   34    33    34    1
   35    33    35    1
   36    35    36    1
   37    22    37    1
   38    35    37    1
   39    35    38    1
   40    38    39    1
   41    38    40    1
   42    38    41    1
   43    41    42    1
   44    43    44    1
   45    43    45    1
   46    43    46    1
   47    46    47    1
   48    46    48    1
   49    48    49    1
   50    46    50    1
   51    50    51    1
   52    50    52    1
   53    52    53    1
   54    24    54    1
   55    50    54    1
   56    54    55    1
   57    54    56    1
   58    56    57    1
   59    43    58    1
   60    56    58    1
   61    56    59    1
   62    59    60    1
   63    59    61    1
   64    59    62    1
   65    62    63    1
   66    64    65    1
   67    64    66    1
   68    64    67    1
   69    67    68    1
   70    67    69    1
   71    69    70    1
   72    67    71    1
   73    71    72    1
   74    71    73    1
   75    73    74    1
   76    45    75    1
   77    71    75    1
   78    75    76    1
   79    75    77    1
   80    77    78    1
   81    64    79    1
   82    77    79    1
   83    77    80    1
   84    80    81    1
   85    80    82    1
   86    80    83    1
   87    83    84    1
   88    85    86    1
   89    85    87    1
   90    85    88    1
   91    88    89    1
   92    88    90    1
   93    90    91    1
   94    88    92    1
   95    92    93    1
   96    92    94    1
   97    94    95    1
   98    66    96    1
   99    92    96    1
  100    96    97    1
  101    96    98    1
  102    98    99    1
  103    85   100    1
  104    98   100    1
  105    98   101    1
  106   101   102    1
  107   101   103    1
  108   101   104    1
  109   104   105    1
  110   106   107    1
  111    12   108    1
  112   106   108    1
  113   106   109    1
  114   109   110    1
  115   109   111    1
  116   111   112    1
  117   109   113    1
  118   113   114    1
  119   113   115    1
  120   115   116    1
  121    87   117    1
  122   113   117    1
  123   117   118    1
  124   117   119    1
  125   119   120    1
  126   106   121    1
  127   119   121    1
  128   119   122    1
  129   122   123    1
  130   122   124    1
  131   122   125    1
  132   125   126    1
  133   127   128    1
  134   127   129    2
  135   127   130    1
  136   130   131    1
  137   130   132    1
  138   130   133    1
  139   133   134    1
  140   133   135    1
  141   133   136    1
  142   136   137    1
  143   136   138    1
  144   136   139    1
@<TRIPOS>SUBSTRUCTURE
       1 MOL1            1 RESIDUE      1      MOL     
       2 MOL1          139 RESIDUE      1      MOL     
@<SCITEGIC>MOL_PROPERTY
feprocess Rank
SciTegic.value.IntegerValue
38

@<SCITEGIC>MOL_PROPERTY
Conf_Id
SciTegic.value.IntegerValue
886

@<SCITEGIC>MOL_PROPERTY
Probability
SciTegic.value.DoubleValue
0.01

@<SCITEGIC>MOL_PROPERTY
G
SciTegic.value.DoubleValue
487.743

@<SCITEGIC>MOL_PROPERTY
E
SciTegic.value.DoubleValue
312.824

@<SCITEGIC>MOL_PROPERTY
-TS
SciTegic.value.DoubleValue
174.920

@<SCITEGIC>MOL_PROPERTY
U+W
SciTegic.value.DoubleValue
190.312

@<SCITEGIC>MOL_PROPERTY
U
SciTegic.value.DoubleValue
264.431

@<SCITEGIC>MOL_PROPERTY
W
SciTegic.value.DoubleValue
-74.119

@<SCITEGIC>MOL_PROPERTY
W(PB)
SciTegic.value.DoubleValue
-80.060

@<SCITEGIC>MOL_PROPERTY
W(SA)
SciTegic.value.DoubleValue
5.941

@<SCITEGIC>MOL_PROPERTY
Valence
SciTegic.value.DoubleValue
153.586

@<SCITEGIC>MOL_PROPERTY
Coulomb
SciTegic.value.DoubleValue
134.556

@<SCITEGIC>MOL_PROPERTY
VdW
SciTegic.value.DoubleValue
-23.711

@<SCITEGIC>MOL_PROPERTY
VdW6
SciTegic.value.DoubleValue
-176.256

@<SCITEGIC>MOL_PROPERTY
VdW12
SciTegic.value.DoubleValue
152.545

@<SCITEGIC>MOL_PROPERTY
Bond
SciTegic.value.DoubleValue
4.915

@<SCITEGIC>MOL_PROPERTY
Angle
SciTegic.value.DoubleValue
15.183

@<SCITEGIC>MOL_PROPERTY
Pdih
SciTegic.value.DoubleValue
133.445

@<SCITEGIC>MOL_PROPERTY
Idih
SciTegic.value.DoubleValue
0.044

@<SCITEGIC>MOL_PROPERTY
Tether
SciTegic.value.DoubleValue
0.000

@<TRIPOS>MOLECULE
CD_guest-6_fast_vm2_rndm.mol2 : feprocess host+ligand conformer 39
         139         144           2
SMALL
USER_CHARGES
 
@<TRIPOS>ATOM
       1    C1      16.402298   15.546769   22.158311 C.3        1 MOL1         0.2972
       2    H1      15.371064   15.553576   22.529172 H          1 MOL1         0.0751
       3    O1      16.715426   16.731181   21.397811 O.3        1 MOL1        -0.3740
       4    C2      17.395641   15.461674   23.342320 C.3        1 MOL1         0.1003
       5    H2      17.241081   14.491836   23.831862 H          1 MOL1         0.0783
       6    O2      17.146145   16.505037   24.297331 O.3        1 MOL1        -0.5519
       7    H3      17.495825   17.355487   23.912421 H          1 MOL1         0.3769
       8    C3      18.846866   15.502565   22.803772 C.3        1 MOL1         0.1053
       9    H4      18.989445   16.456772   22.289056 H          1 MOL1         0.0783
      10    O3      19.787184   15.413733   23.878446 O.3        1 MOL1        -0.5519
      11    H5      19.951942   16.362327   24.132784 H          1 MOL1         0.3769
      12    C4      19.088308   14.387381   21.753789 C.3        1 MOL1         0.1018
      13    H6      19.190219   13.425983   22.271928 H          1 MOL1         0.0783
      14    C5      17.945472   14.311841   20.697923 C.3        1 MOL1         0.1043
      15    H7      18.064803   15.167986   20.023141 H          1 MOL1         0.0783
      16    O4      16.637574   14.392282   21.322448 O.3        1 MOL1        -0.3740
      17    C6      17.992265   13.034858   19.824193 C.3        1 MOL1         0.0138
      18    H8      18.904504   13.057930   19.212800 H          1 MOL1         0.0794
      19    H9      17.140413   13.058283   19.131692 H          1 MOL1         0.0794
      20    O5      17.952203   11.832012   20.603959 O.3        1 MOL1        -0.5486
      21    H10     18.785576   11.764887   21.113985 H          1 MOL1         0.3769
      22    C7      15.001032   20.256787   20.133673 C.3        1 MOL1         0.2972
      23    H11     14.441679   21.070809   19.654872 H          1 MOL1         0.0751
      24    O6      16.169671   20.742796   20.820690 O.3        1 MOL1        -0.3740
      25    C8      14.119320   19.482005   21.143585 C.3        1 MOL1         0.1003
      26    H12     13.296144   19.034559   20.571450 H          1 MOL1         0.0783
      27    O7      13.567705   20.355917   22.140595 O.3        1 MOL1        -0.5519
      28    H13     14.329477   20.806189   22.587127 H          1 MOL1         0.3769
      29    C9      14.914518   18.327618   21.807220 C.3        1 MOL1         0.1053
      30    H14     15.678763   18.767244   22.464828 H          1 MOL1         0.0783
      31    O8      13.993241   17.547148   22.576427 O.3        1 MOL1        -0.5519
      32    H15     13.498153   18.197895   23.121043 H          1 MOL1         0.3769
      33    C10     15.639143   17.437590   20.753206 C.3        1 MOL1         0.1018
      34    H16     14.915565   16.744304   20.307070 H          1 MOL1         0.0783
      35    C11     16.327291   18.272735   19.635013 C.3        1 MOL1         0.1043
      36    H17     17.211630   18.752406   20.073331 H          1 MOL1         0.0783
      37    O9      15.433268   19.300432   19.144174 O.3        1 MOL1        -0.3740
      38    C12     16.833716   17.435678   18.434169 C.3        1 MOL1         0.0138
      39    H18     17.765365   16.935363   18.727372 H          1 MOL1         0.0794
      40    H19     17.086942   18.121553   17.614918 H          1 MOL1         0.0794
      41    O10     15.879111   16.464938   17.986533 O.3        1 MOL1        -0.5486
      42    H20     15.792118   15.789041   18.692125 H          1 MOL1         0.3769
      43    C13     18.299524   24.047557   21.969460 C.3        1 MOL1         0.2972
      44    H21     18.684343   25.038078   22.244200 H          1 MOL1         0.0751
      45    O11     19.348412   23.062756   21.915586 O.3        1 MOL1        -0.3740
      46    C14     17.257477   23.583810   23.013001 C.3        1 MOL1         0.1003
      47    H22     16.426944   24.301356   22.991786 H          1 MOL1         0.0783
      48    O12     17.836971   23.569194   24.327555 O.3        1 MOL1        -0.5519
      49    H23     18.808998   23.428580   24.210978 H          1 MOL1         0.3769
      50    C15     16.693158   22.191249   22.647855 C.3        1 MOL1         0.1053
      51    H24     17.495009   21.451496   22.777349 H          1 MOL1         0.0783
      52    O13     15.609446   21.883654   23.530813 O.3        1 MOL1        -0.5519
      53    H25     15.975374   22.018288   24.433165 H          1 MOL1         0.3769
      54    C16     16.208191   22.135664   21.175034 C.3        1 MOL1         0.1018
      55    H26     15.218722   22.607366   21.110521 H          1 MOL1         0.0783
      56    C17     17.193986   22.807667   20.175933 C.3        1 MOL1         0.1043
      57    H27     18.054516   22.136024   20.061361 H          1 MOL1         0.0783
      58    O14     17.657566   24.087255   20.679236 O.3        1 MOL1        -0.3740
      59    C18     16.595900   23.021467   18.765154 C.3        1 MOL1         0.0138
      60    H28     16.482059   22.040931   18.283136 H          1 MOL1         0.0794
      61    H29     17.311562   23.598875   18.164540 H          1 MOL1         0.0794
      62    O15     15.329510   23.690425   18.811383 O.3        1 MOL1        -0.5486
      63    H30     15.047472   23.859167   17.885936 H          1 MOL1         0.3769
      64    C19     23.501437   22.760956   21.735092 C.3        1 MOL1         0.2972
      65    H31     24.571819   22.984341   21.643348 H          1 MOL1         0.0751
      66    O16     23.258526   21.346488   21.853811 O.3        1 MOL1        -0.3740
      67    C20     22.932768   23.432953   23.009803 C.3        1 MOL1         0.1003
      68    H32     23.096276   24.514413   22.916112 H          1 MOL1         0.0783
      69    O17     23.613991   22.949007   24.178652 O.3        1 MOL1        -0.5519
      70    H33     23.849212   22.003022   24.004950 H          1 MOL1         0.3769
      71    C21     21.409743   23.187199   23.129585 C.3        1 MOL1         0.1053
      72    H34     21.245764   22.115928   23.311063 H          1 MOL1         0.0783
      73    O18     20.885531   23.948756   24.222328 O.3        1 MOL1        -0.5519
      74    H35     21.515259   23.798347   24.962449 H          1 MOL1         0.3769
      75    C22     20.687386   23.575533   21.817199 C.3        1 MOL1         0.1018
      76    H36     20.706859   24.668641   21.715569 H          1 MOL1         0.0783
      77    C23     21.360313   22.937208   20.571028 C.3        1 MOL1         0.1043
      78    H37     21.233760   21.850875   20.632330 H          1 MOL1         0.0783
      79    O19     22.775691   23.252988   20.586030 O.3        1 MOL1        -0.3740
      80    C24     20.760519   23.376164   19.209929 C.3        1 MOL1         0.0138
      81    H38     19.945889   22.687551   18.952295 H          1 MOL1         0.0794
      82    H39     21.529640   23.260414   18.434787 H          1 MOL1         0.0794
      83    O20     20.266102   24.720522   19.214437 O.3        1 MOL1        -0.5486
      84    H40     19.399775   24.706707   19.684163 H          1 MOL1         0.3769
      85    C25     25.040531   17.663189   21.014336 C.3        1 MOL1         0.2972
      86    H41     25.750778   16.878175   20.727195 H          1 MOL1         0.0751
      87    O21     23.720872   17.135031   21.246940 O.3        1 MOL1        -0.3740
      88    C26     25.513221   18.369084   22.311796 C.3        1 MOL1         0.1003
      89    H42     26.494492   18.814347   22.102163 H          1 MOL1         0.0783
      90    O22     25.648335   17.434786   23.393743 O.3        1 MOL1        -0.5519
      91    H43     24.877232   16.813782   23.348077 H          1 MOL1         0.3769
      92    C27     24.546816   19.515779   22.695040 C.3        1 MOL1         0.1053
      93    H44     23.572024   19.079634   22.957507 H          1 MOL1         0.0783
      94    O23     25.077928   20.236408   23.813008 O.3        1 MOL1        -0.5519
      95    H45     25.360834   19.542881   24.449970 H          1 MOL1         0.3769
      96    C28     24.348235   20.477133   21.499309 C.3        1 MOL1         0.1018
      97    H46     25.284296   21.029646   21.345659 H          1 MOL1         0.0783
      98    C29     23.976234   19.713121   20.198120 C.3        1 MOL1         0.1043
      99    H47     22.982453   19.268204   20.334365 H          1 MOL1         0.0783
     100    O24     24.945400   18.658263   19.972198 O.3        1 MOL1        -0.3740
     101    C30     23.914242   20.597179   18.926638 C.3        1 MOL1         0.0138
     102    H48     22.943724   21.106880   18.899947 H          1 MOL1         0.0794
     103    H49     23.956182   19.942987   18.045709 H          1 MOL1         0.0794
     104    O25     24.961822   21.571638   18.867810 O.3        1 MOL1        -0.5486
     105    H50     24.622553   22.378910   19.313514 H          1 MOL1         0.3769
     106    C31     21.330523   13.769392   20.886859 C.3        1 MOL1         0.2972
     107    H51     20.914079   12.769327   20.715350 H          1 MOL1         0.0751
     108    O26     20.283629   14.754154   21.030108 O.3        1 MOL1        -0.3740
     109    C32     22.268905   13.778025   22.123992 C.3        1 MOL1         0.1003
     110    H52     23.104058   13.104382   21.891479 H          1 MOL1         0.0783
     111    O27     21.615779   13.296799   23.307720 O.3        1 MOL1        -0.5519
     112    H53     20.951825   13.985900   23.563698 H          1 MOL1         0.3769
     113    C33     22.856896   15.192423   22.348003 C.3        1 MOL1         0.1053
     114    H54     22.038435   15.878966   22.606230 H          1 MOL1         0.0783
     115    O28     23.809190   15.142933   23.415337 O.3        1 MOL1        -0.5519
     116    H55     23.369805   14.629595   24.129248 H          1 MOL1         0.3769
     117    C34     23.538870   15.718579   21.060766 C.3        1 MOL1         0.1018
     118    H56     24.492999   15.190245   20.937812 H          1 MOL1         0.0783
     119    C35     22.658193   15.516858   19.793958 C.3        1 MOL1         0.1043
     120    H57     21.816722   16.217771   19.845198 H          1 MOL1         0.0783
     121    O29     22.138692   14.162320   19.756397 O.3        1 MOL1        -0.3740
     122    C36     23.395117   15.801749   18.462621 C.3        1 MOL1         0.0138
     123    H58     23.559023   16.884440   18.375310 H          1 MOL1         0.0794
     124    H59     22.735860   15.508320   17.634988 H          1 MOL1         0.0794
     125    O30     24.645028   15.107705   18.361815 O.3        1 MOL1        -0.5486
     126    H60     25.333951   15.674270   18.767959 H          1 MOL1         0.3769
     127    C1      19.404659   18.887823   23.081413 C.2        1 MOL1         0.6021
     128    O1      18.229207   18.908352   23.388772 O.co2      1 MOL1        -0.6904
     129    O2      20.241100   18.241573   23.684709 O.co2      1 MOL1        -0.6904
     130    C2      19.806407   19.561300   21.772249 C.3        1 MOL1        -0.2102
     131    H1      20.705536   20.152887   21.968435 H          1 MOL1         0.0687
     132    H2      19.007760   20.256422   21.491428 H          1 MOL1         0.0687
     133    C3      20.066371   18.561188   20.619983 C.3        1 MOL1        -0.1974
     134    H3      20.980974   17.998383   20.842854 H          1 MOL1         0.0689
     135    H4      19.250486   17.830197   20.575823 H          1 MOL1         0.0689
     136    C4      20.184394   19.262599   19.251934 C.3        1 MOL1        -0.2987
     137    H5      20.993773   19.998386   19.254975 H          1 MOL1         0.0700
     138    H6      20.390908   18.531200   18.460213 H          1 MOL1         0.0700
     139    H7      19.251922   19.783613   18.999053 H          1 MOL1         0.0700
@<TRIPOS>BOND
    1     1     2    1
    2     1     3    1
    3     1     4    1
    4     4     5    1
    5     4     6    1
    6     6     7    1
    7     4     8    1
    8     8     9    1
    9     8    10    1
   10    10    11    1
   11     8    12    1
   12    12    13    1
   13    12    14    1
   14    14    15    1
   15     1    16    1
   16    14    16    1
   17    14    17    1
   18    17    18    1
   19    17    19    1
   20    17    20    1
   21    20    21    1
   22    22    23    1
   23    22    24    1
   24    22    25    1
   25    25    26    1
   26    25    27    1
   27    27    28    1
   28    25    29    1
   29    29    30    1
   30    29    31    1
   31    31    32    1
   32     3    33    1
   33    29    33    1
   34    33    34    1
   35    33    35    1
   36    35    36    1
   37    22    37    1
   38    35    37    1
   39    35    38    1
   40    38    39    1
   41    38    40    1
   42    38    41    1
   43    41    42    1
   44    43    44    1
   45    43    45    1
   46    43    46    1
   47    46    47    1
   48    46    48    1
   49    48    49    1
   50    46    50    1
   51    50    51    1
   52    50    52    1
   53    52    53    1
   54    24    54    1
   55    50    54    1
   56    54    55    1
   57    54    56    1
   58    56    57    1
   59    43    58    1
   60    56    58    1
   61    56    59    1
   62    59    60    1
   63    59    61    1
   64    59    62    1
   65    62    63    1
   66    64    65    1
   67    64    66    1
   68    64    67    1
   69    67    68    1
   70    67    69    1
   71    69    70    1
   72    67    71    1
   73    71    72    1
   74    71    73    1
   75    73    74    1
   76    45    75    1
   77    71    75    1
   78    75    76    1
   79    75    77    1
   80    77    78    1
   81    64    79    1
   82    77    79    1
   83    77    80    1
   84    80    81    1
   85    80    82    1
   86    80    83    1
   87    83    84    1
   88    85    86    1
   89    85    87    1
   90    85    88    1
   91    88    89    1
   92    88    90    1
   93    90    91    1
   94    88    92    1
   95    92    93    1
   96    92    94    1
   97    94    95    1
   98    66    96    1
   99    92    96    1
  100    96    97    1
  101    96    98    1
  102    98    99    1
  103    85   100    1
  104    98   100    1
  105    98   101    1
  106   101   102    1
  107   101   103    1
  108   101   104    1
  109   104   105    1
  110   106   107    1
  111    12   108    1
  112   106   108    1
  113   106   109    1
  114   109   110    1
  115   109   111    1
  116   111   112    1
  117   109   113    1
  118   113   114    1
  119   113   115    1
  120   115   116    1
  121    87   117    1
  122   113   117    1
  123   117   118    1
  124   117   119    1
  125   119   120    1
  126   106   121    1
  127   119   121    1
  128   119   122    1
  129   122   123    1
  130   122   124    1
  131   122   125    1
  132   125   126    1
  133   127   128    1
  134   127   129    2
  135   127   130    1
  136   130   131    1
  137   130   132    1
  138   130   133    1
  139   133   134    1
  140   133   135    1
  141   133   136    1
  142   136   137    1
  143   136   138    1
  144   136   139    1
@<TRIPOS>SUBSTRUCTURE
       1 MOL1            1 RESIDUE      1      MOL     
       2 MOL1          139 RESIDUE      1      MOL     
@<SCITEGIC>MOL_PROPERTY
feprocess Rank
SciTegic.value.IntegerValue
39

@<SCITEGIC>MOL_PROPERTY
Conf_Id
SciTegic.value.IntegerValue
577

@<SCITEGIC>MOL_PROPERTY
Probability
SciTegic.value.DoubleValue
0.01

@<SCITEGIC>MOL_PROPERTY
G
SciTegic.value.DoubleValue
487.786

@<SCITEGIC>MOL_PROPERTY
E
SciTegic.value.DoubleValue
312.861

@<SCITEGIC>MOL_PROPERTY
-TS
SciTegic.value.DoubleValue
174.925

@<SCITEGIC>MOL_PROPERTY
U+W
SciTegic.value.DoubleValue
190.350

@<SCITEGIC>MOL_PROPERTY
U
SciTegic.value.DoubleValue
264.096

@<SCITEGIC>MOL_PROPERTY
W
SciTegic.value.DoubleValue
-73.746

@<SCITEGIC>MOL_PROPERTY
W(PB)
SciTegic.value.DoubleValue
-79.667

@<SCITEGIC>MOL_PROPERTY
W(SA)
SciTegic.value.DoubleValue
5.921

@<SCITEGIC>MOL_PROPERTY
Valence
SciTegic.value.DoubleValue
153.517

@<SCITEGIC>MOL_PROPERTY
Coulomb
SciTegic.value.DoubleValue
134.412

@<SCITEGIC>MOL_PROPERTY
VdW
SciTegic.value.DoubleValue
-23.833

@<SCITEGIC>MOL_PROPERTY
VdW6
SciTegic.value.DoubleValue
-176.155

@<SCITEGIC>MOL_PROPERTY
VdW12
SciTegic.value.DoubleValue
152.322

@<SCITEGIC>MOL_PROPERTY
Bond
SciTegic.value.DoubleValue
4.890

@<SCITEGIC>MOL_PROPERTY
Angle
SciTegic.value.DoubleValue
15.069

@<SCITEGIC>MOL_PROPERTY
Pdih
SciTegic.value.DoubleValue
133.513

@<SCITEGIC>MOL_PROPERTY
Idih
SciTegic.value.DoubleValue
0.045

@<SCITEGIC>MOL_PROPERTY
Tether
SciTegic.value.DoubleValue
0.000

@<TRIPOS>MOLECULE
CD_guest-6_fast_vm2_rndm.mol2 : feprocess host+ligand conformer 40
         139         144           2
SMALL
USER_CHARGES
 
@<TRIPOS>ATOM
       1    C1      16.329501   15.326102   21.869437 C.3        1 MOL1         0.2972
       2    H1      15.253232   15.173732   22.023605 H          1 MOL1         0.0751
       3    O1      16.630798   16.722829   21.684323 O.3        1 MOL1        -0.3740
       4    C2      17.105952   14.809278   23.106341 C.3        1 MOL1         0.1003
       5    H2      16.861647   13.745830   23.226809 H          1 MOL1         0.0783
       6    O2      16.697712   15.523861   24.282043 O.3        1 MOL1        -0.5519
       7    H3      16.454748   16.429710   23.980881 H          1 MOL1         0.3769
       8    C3      18.635550   14.925489   22.907516 C.3        1 MOL1         0.1053
       9    H4      18.900810   15.990831   22.895673 H          1 MOL1         0.0783
      10    O3      19.301396   14.274486   23.994329 O.3        1 MOL1        -0.5519
      11    H5      18.867851   14.625560   24.803973 H          1 MOL1         0.3769
      12    C4      19.081012   14.292917   21.566331 C.3        1 MOL1         0.1018
      13    H6      19.048701   13.200159   21.664361 H          1 MOL1         0.0783
      14    C5      18.192633   14.756603   20.380230 C.3        1 MOL1         0.1043
      15    H7      18.413780   15.816736   20.210834 H          1 MOL1         0.0783
      16    O4      16.785805   14.607615   20.703756 O.3        1 MOL1        -0.3740
      17    C6      18.469525   14.007013   19.053836 C.3        1 MOL1         0.0138
      18    H8      19.485131   14.249828   18.713056 H          1 MOL1         0.0794
      19    H9      17.777093   14.384839   18.290094 H          1 MOL1         0.0794
      20    O5      18.318938   12.587587   19.184531 O.3        1 MOL1        -0.5486
      21    H10     19.068835   12.245698   19.712069 H          1 MOL1         0.3769
      22    C7      14.890720   20.301317   20.441584 C.3        1 MOL1         0.2972
      23    H11     14.272453   21.090827   19.995415 H          1 MOL1         0.0751
      24    O6      16.138604   20.821891   20.938718 O.3        1 MOL1        -0.3740
      25    C8      14.136791   19.558336   21.577509 C.3        1 MOL1         0.1003
      26    H12     13.269922   19.067427   21.116182 H          1 MOL1         0.0783
      27    O7      13.664288   20.456263   22.592104 O.3        1 MOL1        -0.5519
      28    H13     14.459652   20.887117   22.994818 H          1 MOL1         0.3769
      29    C9      15.033125   18.451627   22.188488 C.3        1 MOL1         0.1053
      30    H14     15.888124   18.932582   22.684319 H          1 MOL1         0.0783
      31    O8      14.276410   17.699648   23.142546 O.3        1 MOL1        -0.5519
      32    H15     13.800756   18.369518   23.681884 H          1 MOL1         0.3769
      33    C10     15.577353   17.506580   21.085451 C.3        1 MOL1         0.1018
      34    H16     14.748847   16.877415   20.734549 H          1 MOL1         0.0783
      35    C11     16.166381   18.286880   19.873977 C.3        1 MOL1         0.1043
      36    H17     17.097826   18.767632   20.198565 H          1 MOL1         0.0783
      37    O9      15.220486   19.303852   19.450496 O.3        1 MOL1        -0.3740
      38    C12     16.514695   17.415426   18.639207 C.3        1 MOL1         0.0138
      39    H18     17.552404   17.075966   18.730910 H          1 MOL1         0.0794
      40    H19     16.474579   18.050076   17.743915 H          1 MOL1         0.0794
      41    O10     15.647156   16.286437   18.476388 O.3        1 MOL1        -0.5486
      42    H20     15.878111   15.635901   19.180485 H          1 MOL1         0.3769
      43    C13     18.471514   23.940553   22.087147 C.3        1 MOL1         0.2972
      44    H21     18.937647   24.877840   22.417521 H          1 MOL1         0.0751
      45    O11     19.468661   22.981652   21.680618 O.3        1 MOL1        -0.3740
      46    C14     17.599130   23.369796   23.234332 C.3        1 MOL1         0.1003
      47    H22     16.835789   24.127157   23.454394 H          1 MOL1         0.0783
      48    O12     18.372368   23.132095   24.421007 O.3        1 MOL1        -0.5519
      49    H23     18.908685   22.306457   24.263576 H          1 MOL1         0.3769
      50    C15     16.871180   22.075146   22.816822 C.3        1 MOL1         0.1053
      51    H24     17.621166   21.283643   22.754624 H          1 MOL1         0.0783
      52    O13     15.917301   21.729343   23.825512 O.3        1 MOL1        -0.5519
      53    H25     16.424445   21.750760   24.668156 H          1 MOL1         0.3769
      54    C16     16.182298   22.175093   21.431703 C.3        1 MOL1         0.1018
      55    H26     15.181535   22.609700   21.554388 H          1 MOL1         0.0783
      56    C17     17.002969   22.979170   20.380863 C.3        1 MOL1         0.1043
      57    H27     17.803218   22.319089   20.025336 H          1 MOL1         0.0783
      58    O14     17.603589   24.169628   20.956684 O.3        1 MOL1        -0.3740
      59    C18     16.175816   23.391338   19.140185 C.3        1 MOL1         0.0138
      60    H28     15.933700   22.486057   18.567162 H          1 MOL1         0.0794
      61    H29     16.798905   24.027197   18.496936 H          1 MOL1         0.0794
      62    O15     14.969732   24.076060   19.499508 O.3        1 MOL1        -0.5486
      63    H30     14.535726   24.371740   18.669478 H          1 MOL1         0.3769
      64    C19     23.493901   22.697211   20.639070 C.3        1 MOL1         0.2972
      65    H31     24.515459   22.870270   20.277381 H          1 MOL1         0.0751
      66    O16     23.270857   21.292511   20.893477 O.3        1 MOL1        -0.3740
      67    C20     23.197428   23.562198   21.897777 C.3        1 MOL1         0.1003
      68    H32     23.315105   24.608121   21.585674 H          1 MOL1         0.0783
      69    O17     24.114866   23.308261   22.971934 O.3        1 MOL1        -0.5519
      70    H33     23.907767   22.399395   23.306595 H          1 MOL1         0.3769
      71    C21     21.736866   23.389387   22.384072 C.3        1 MOL1         0.1053
      72    H34     21.619247   22.380550   22.800353 H          1 MOL1         0.0783
      73    O18     21.476803   24.371629   23.392392 O.3        1 MOL1        -0.5519
      74    H35     22.200373   24.272384   24.048155 H          1 MOL1         0.3769
      75    C22     20.717891   23.547652   21.227516 C.3        1 MOL1         0.1018
      76    H36     20.621582   24.617967   21.003695 H          1 MOL1         0.0783
      77    C23     21.148535   22.802372   19.929992 C.3        1 MOL1         0.1043
      78    H37     21.046944   21.724592   20.093045 H          1 MOL1         0.0783
      79    O19     22.537016   23.105774   19.633268 O.3        1 MOL1        -0.3740
      80    C24     20.285875   23.131159   18.682762 C.3        1 MOL1         0.0138
      81    H38     19.468793   22.401292   18.626172 H          1 MOL1         0.0794
      82    H39     20.899724   22.983193   17.784270 H          1 MOL1         0.0794
      83    O20     19.744204   24.458601   18.694165 O.3        1 MOL1        -0.5486
      84    H40     19.079315   24.498426   19.420544 H          1 MOL1         0.3769
      85    C25     24.845141   17.662818   22.086870 C.3        1 MOL1         0.2972
      86    H41     25.445628   16.828537   22.469458 H          1 MOL1         0.0751
      87    O21     23.677251   17.201016   21.376655 O.3        1 MOL1        -0.3740
      88    C26     24.397501   18.582692   23.252426 C.3        1 MOL1         0.1003
      89    H42     25.305368   18.971385   23.730839 H          1 MOL1         0.0783
      90    O22     23.622155   17.861090   24.226121 O.3        1 MOL1        -0.5519
      91    H43     22.671633   18.125682   24.106019 H          1 MOL1         0.3769
      92    C27     23.587917   19.778002   22.707941 C.3        1 MOL1         0.1053
      93    H44     22.673461   19.358217   22.279519 H          1 MOL1         0.0783
      94    O23     23.265243   20.675098   23.777155 O.3        1 MOL1        -0.5519
      95    H45     22.493771   20.250883   24.235240 H          1 MOL1         0.3769
      96    C28     24.303699   20.529431   21.560493 C.3        1 MOL1         0.1018
      97    H46     25.094691   21.164219   21.978699 H          1 MOL1         0.0783
      98    C29     24.907267   19.550997   20.513287 C.3        1 MOL1         0.1043
      99    H47     24.078439   19.128433   19.930440 H          1 MOL1         0.0783
     100    O24     25.621477   18.470527   21.172322 O.3        1 MOL1        -0.3740
     101    C30     25.864713   20.238232   19.510864 C.3        1 MOL1         0.0138
     102    H48     25.269408   20.877496   18.845033 H          1 MOL1         0.0794
     103    H49     26.333175   19.464679   18.887729 H          1 MOL1         0.0794
     104    O25     26.867052   21.023361   20.168692 O.3        1 MOL1        -0.5486
     105    H50     27.476954   21.366552   19.479539 H          1 MOL1         0.3769
     106    C31     21.402290   13.821937   20.882427 C.3        1 MOL1         0.2972
     107    H51     20.954060   12.851708   20.636754 H          1 MOL1         0.0751
     108    O26     20.412593   14.778719   21.310950 O.3        1 MOL1        -0.3740
     109    C32     22.453902   13.671098   22.005967 C.3        1 MOL1         0.1003
     110    H52     23.236311   13.001137   21.626200 H          1 MOL1         0.0783
     111    O27     21.870286   13.087537   23.181703 O.3        1 MOL1        -0.5519
     112    H53     21.061020   13.615279   23.402629 H          1 MOL1         0.3769
     113    C33     23.119138   15.030253   22.342105 C.3        1 MOL1         0.1053
     114    H54     22.377212   15.657322   22.856727 H          1 MOL1         0.0783
     115    O28     24.230914   14.773037   23.206363 O.3        1 MOL1        -0.5519
     116    H55     23.863776   14.251758   23.953035 H          1 MOL1         0.3769
     117    C34     23.595088   15.793778   21.070283 C.3        1 MOL1         0.1018
     118    H56     24.568171   15.396756   20.755923 H          1 MOL1         0.0783
     119    C35     22.592826   15.702781   19.885370 C.3        1 MOL1         0.1043
     120    H57     21.752887   16.367733   20.110090 H          1 MOL1         0.0783
     121    O29     22.087897   14.355353   19.732865 O.3        1 MOL1        -0.3740
     122    C36     23.177974   16.176777   18.532588 C.3        1 MOL1         0.0138
     123    H58     23.306447   17.266703   18.571035 H          1 MOL1         0.0794
     124    H59     22.442861   15.966540   17.744536 H          1 MOL1         0.0794
     125    O30     24.428044   15.550798   18.217604 O.3        1 MOL1        -0.5486
     126    H60     25.110153   15.937992   18.806843 H          1 MOL1         0.3769
     127    C1      20.127305   19.707961   23.537093 C.2        1 MOL1         0.6021
     128    O1      20.967544   18.990437   24.052041 O.co2      1 MOL1        -0.6904
     129    O2      19.494828   20.543609   24.153229 O.co2      1 MOL1        -0.6904
     130    C2      20.018707   19.727502   22.010664 C.3        1 MOL1        -0.2102
     131    H1      20.877931   20.289135   21.645280 H          1 MOL1         0.0687
     132    H2      19.133948   20.297863   21.720310 H          1 MOL1         0.0687
     133    C3      19.965313   18.344119   21.323599 C.3        1 MOL1        -0.1974
     134    H3      20.790376   17.716792   21.686655 H          1 MOL1         0.0689
     135    H4      19.032830   17.841771   21.603640 H          1 MOL1         0.0689
     136    C4      20.046878   18.485575   19.788442 C.3        1 MOL1        -0.2987
     137    H5      19.931872   17.511005   19.299031 H          1 MOL1         0.0700
     138    H6      19.261361   19.151959   19.410866 H          1 MOL1         0.0700
     139    H7      21.017454   18.903756   19.490902 H          1 MOL1         0.0700
@<TRIPOS>BOND
    1     1     2    1
    2     1     3    1
    3     1     4    1
    4     4     5    1
    5     4     6    1
    6     6     7    1
    7     4     8    1
    8     8     9    1
    9     8    10    1
   10    10    11    1
   11     8    12    1
   12    12    13    1
   13    12    14    1
   14    14    15    1
   15     1    16    1
   16    14    16    1
   17    14    17    1
   18    17    18    1
   19    17    19    1
   20    17    20    1
   21    20    21    1
   22    22    23    1
   23    22    24    1
   24    22    25    1
   25    25    26    1
   26    25    27    1
   27    27    28    1
   28    25    29    1
   29    29    30    1
   30    29    31    1
   31    31    32    1
   32     3    33    1
   33    29    33    1
   34    33    34    1
   35    33    35    1
   36    35    36    1
   37    22    37    1
   38    35    37    1
   39    35    38    1
   40    38    39    1
   41    38    40    1
   42    38    41    1
   43    41    42    1
   44    43    44    1
   45    43    45    1
   46    43    46    1
   47    46    47    1
   48    46    48    1
   49    48    49    1
   50    46    50    1
   51    50    51    1
   52    50    52    1
   53    52    53    1
   54    24    54    1
   55    50    54    1
   56    54    55    1
   57    54    56    1
   58    56    57    1
   59    43    58    1
   60    56    58    1
   61    56    59    1
   62    59    60    1
   63    59    61    1
   64    59    62    1
   65    62    63    1
   66    64    65    1
   67    64    66    1
   68    64    67    1
   69    67    68    1
   70    67    69    1
   71    69    70    1
   72    67    71    1
   73    71    72    1
   74    71    73    1
   75    73    74    1
   76    45    75    1
   77    71    75    1
   78    75    76    1
   79    75    77    1
   80    77    78    1
   81    64    79    1
   82    77    79    1
   83    77    80    1
   84    80    81    1
   85    80    82    1
   86    80    83    1
   87    83    84    1
   88    85    86    1
   89    85    87    1
   90    85    88    1
   91    88    89    1
   92    88    90    1
   93    90    91    1
   94    88    92    1
   95    92    93    1
   96    92    94    1
   97    94    95    1
   98    66    96    1
   99    92    96    1
  100    96    97    1
  101    96    98    1
  102    98    99    1
  103    85   100    1
  104    98   100    1
  105    98   101    1
  106   101   102    1
  107   101   103    1
  108   101   104    1
  109   104   105    1
  110   106   107    1
  111    12   108    1
  112   106   108    1
  113   106   109    1
  114   109   110    1
  115   109   111    1
  116   111   112    1
  117   109   113    1
  118   113   114    1
  119   113   115    1
  120   115   116    1
  121    87   117    1
  122   113   117    1
  123   117   118    1
  124   117   119    1
  125   119   120    1
  126   106   121    1
  127   119   121    1
  128   119   122    1
  129   122   123    1
  130   122   124    1
  131   122   125    1
  132   125   126    1
  133   127   128    1
  134   127   129    2
  135   127   130    1
  136   130   131    1
  137   130   132    1
  138   130   133    1
  139   133   134    1
  140   133   135    1
  141   133   136    1
  142   136   137    1
  143   136   138    1
  144   136   139    1
@<TRIPOS>SUBSTRUCTURE
       1 MOL1            1 RESIDUE      1      MOL     
       2 MOL1          139 RESIDUE      1      MOL     
@<SCITEGIC>MOL_PROPERTY
feprocess Rank
SciTegic.value.IntegerValue
40

@<SCITEGIC>MOL_PROPERTY
Conf_Id
SciTegic.value.IntegerValue
910

@<SCITEGIC>MOL_PROPERTY
Probability
SciTegic.value.DoubleValue
0.00

@<SCITEGIC>MOL_PROPERTY
G
SciTegic.value.DoubleValue
487.856

@<SCITEGIC>MOL_PROPERTY
E
SciTegic.value.DoubleValue
310.895

@<SCITEGIC>MOL_PROPERTY
-TS
SciTegic.value.DoubleValue
176.961

@<SCITEGIC>MOL_PROPERTY
U+W
SciTegic.value.DoubleValue
188.383

@<SCITEGIC>MOL_PROPERTY
U
SciTegic.value.DoubleValue
262.476

@<SCITEGIC>MOL_PROPERTY
W
SciTegic.value.DoubleValue
-74.092

@<SCITEGIC>MOL_PROPERTY
W(PB)
SciTegic.value.DoubleValue
-80.048

@<SCITEGIC>MOL_PROPERTY
W(SA)
SciTegic.value.DoubleValue
5.956

@<SCITEGIC>MOL_PROPERTY
Valence
SciTegic.value.DoubleValue
153.413

@<SCITEGIC>MOL_PROPERTY
Coulomb
SciTegic.value.DoubleValue
130.854

@<SCITEGIC>MOL_PROPERTY
VdW
SciTegic.value.DoubleValue
-21.791

@<SCITEGIC>MOL_PROPERTY
VdW6
SciTegic.value.DoubleValue
-177.852

@<SCITEGIC>MOL_PROPERTY
VdW12
SciTegic.value.DoubleValue
156.061

@<SCITEGIC>MOL_PROPERTY
Bond
SciTegic.value.DoubleValue
5.213

@<SCITEGIC>MOL_PROPERTY
Angle
SciTegic.value.DoubleValue
16.851

@<SCITEGIC>MOL_PROPERTY
Pdih
SciTegic.value.DoubleValue
131.276

@<SCITEGIC>MOL_PROPERTY
Idih
SciTegic.value.DoubleValue
0.072

@<SCITEGIC>MOL_PROPERTY
Tether
SciTegic.value.DoubleValue
0.000

@<TRIPOS>MOLECULE
CD_guest-6_fast_vm2_rndm.mol2 : feprocess host+ligand conformer 41
         139         144           2
SMALL
USER_CHARGES
 
@<TRIPOS>ATOM
       1    C1      16.441499   15.379551   22.320396 C.3        1 MOL1         0.2972
       2    H1      15.436848   15.327683   22.758656 H          1 MOL1         0.0751
       3    O1      16.707157   16.681094   21.762053 O.3        1 MOL1        -0.3740
       4    C2      17.503686   15.064971   23.402125 C.3        1 MOL1         0.1003
       5    H2      17.324480   14.038523   23.746184 H          1 MOL1         0.0783
       6    O2      17.379218   15.960411   24.519551 O.3        1 MOL1        -0.5519
       7    H3      17.791816   16.829052   24.258382 H          1 MOL1         0.3769
       8    C3      18.923461   15.125867   22.795951 C.3        1 MOL1         0.1053
       9    H4      19.103099   16.160133   22.490532 H          1 MOL1         0.0783
      10    O3      19.897957   14.737670   23.770933 O.3        1 MOL1        -0.5519
      11    H5      20.127918   15.581018   24.248665 H          1 MOL1         0.3769
      12    C4      19.063905   14.267587   21.515521 C.3        1 MOL1         0.1018
      13    H6      19.190653   13.212680   21.790509 H          1 MOL1         0.0783
      14    C5      17.856969   14.437234   20.547848 C.3        1 MOL1         0.1043
      15    H7      17.965153   15.414463   20.063072 H          1 MOL1         0.0783
      16    O4      16.591262   14.408132   21.260752 O.3        1 MOL1        -0.3740
      17    C6      17.816630   13.376307   19.422801 C.3        1 MOL1         0.0138
      18    H8      18.651949   13.566547   18.735441 H          1 MOL1         0.0794
      19    H9      16.887921   13.505539   18.850836 H          1 MOL1         0.0794
      20    O5      17.904518   12.041677   19.936479 O.3        1 MOL1        -0.5486
      21    H10     17.799726   11.423379   19.180545 H          1 MOL1         0.3769
      22    C7      14.757346   20.250528   20.909589 C.3        1 MOL1         0.2972
      23    H11     14.043725   21.022092   20.593823 H          1 MOL1         0.0751
      24    O6      16.016173   20.827009   21.307722 O.3        1 MOL1        -0.3740
      25    C8      14.196104   19.493462   22.135995 C.3        1 MOL1         0.1003
      26    H12     13.236239   19.051959   21.837904 H          1 MOL1         0.0783
      27    O7      13.980661   20.409697   23.221634 O.3        1 MOL1        -0.5519
      28    H13     14.721016   21.062845   23.186070 H          1 MOL1         0.3769
      29    C9      15.134104   18.341214   22.576512 C.3        1 MOL1         0.1053
      30    H14     16.043854   18.777008   23.014909 H          1 MOL1         0.0783
      31    O8      14.443467   17.554107   23.552355 O.3        1 MOL1        -0.5519
      32    H15     14.158578   18.190798   24.243311 H          1 MOL1         0.3769
      33    C10     15.556150   17.454882   21.373731 C.3        1 MOL1         0.1018
      34    H16     14.711712   16.811625   21.094572 H          1 MOL1         0.0783
      35    C11     15.989626   18.293750   20.140242 C.3        1 MOL1         0.1043
      36    H17     16.930435   18.797614   20.387116 H          1 MOL1         0.0783
      37    O9      14.985008   19.296277   19.849488 O.3        1 MOL1        -0.3740
      38    C12     16.258014   17.456118   18.862705 C.3        1 MOL1         0.0138
      39    H18     17.308857   17.139639   18.874851 H          1 MOL1         0.0794
      40    H19     16.132753   18.102043   17.983685 H          1 MOL1         0.0794
      41    O10     15.409926   16.305720   18.751640 O.3        1 MOL1        -0.5486
      42    H20     15.623763   15.710208   19.504878 H          1 MOL1         0.3769
      43    C13     18.584084   24.012199   20.532560 C.3        1 MOL1         0.2972
      44    H21     19.051810   24.944977   20.192158 H          1 MOL1         0.0751
      45    O11     19.554189   23.108227   21.096963 O.3        1 MOL1        -0.3740
      46    C14     17.471408   24.287315   21.579552 C.3        1 MOL1         0.1003
      47    H22     16.709097   24.903382   21.085151 H          1 MOL1         0.0783
      48    O12     17.975141   25.000376   22.719317 O.3        1 MOL1        -0.5519
      49    H23     18.685714   24.440429   23.123277 H          1 MOL1         0.3769
      50    C15     16.798594   22.963246   22.019627 C.3        1 MOL1         0.1053
      51    H24     17.541337   22.366034   22.567645 H          1 MOL1         0.0783
      52    O13     15.684141   23.252827   22.871381 O.3        1 MOL1        -0.5519
      53    H25     16.015357   23.921824   23.510641 H          1 MOL1         0.3769
      54    C16     16.321912   22.138624   20.796811 C.3        1 MOL1         0.1018
      55    H26     15.437726   22.633134   20.373959 H          1 MOL1         0.0783
      56    C17     17.428468   22.016763   19.709103 C.3        1 MOL1         0.1043
      57    H27     18.228541   21.385302   20.112009 H          1 MOL1         0.0783
      58    O14     17.960726   23.334369   19.420180 O.3        1 MOL1        -0.3740
      59    C18     16.984195   21.373508   18.371091 C.3        1 MOL1         0.0138
      60    H28     17.108827   20.286994   18.449307 H          1 MOL1         0.0794
      61    H29     17.665914   21.712011   17.579498 H          1 MOL1         0.0794
      62    O15     15.631054   21.677600   18.016188 O.3        1 MOL1        -0.5486
      63    H30     15.070492   20.988803   18.439541 H          1 MOL1         0.3769
      64    C19     23.421273   22.652548   22.378328 C.3        1 MOL1         0.2972
      65    H31     24.454676   22.739952   22.738329 H          1 MOL1         0.0751
      66    O16     23.106952   21.303807   21.983794 O.3        1 MOL1        -0.3740
      67    C20     22.437005   23.075819   23.493325 C.3        1 MOL1         0.1003
      68    H32     22.633273   24.131173   23.723290 H          1 MOL1         0.0783
      69    O17     22.639897   22.287615   24.677229 O.3        1 MOL1        -0.5519
      70    H33     23.185972   21.506555   24.413052 H          1 MOL1         0.3769
      71    C21     20.974945   22.955947   23.006702 C.3        1 MOL1         0.1053
      72    H34     20.748828   21.891595   22.865083 H          1 MOL1         0.0783
      73    O18     20.104836   23.500823   24.003639 O.3        1 MOL1        -0.5519
      74    H35     20.412586   23.101036   24.848037 H          1 MOL1         0.3769
      75    C22     20.754598   23.677721   21.652463 C.3        1 MOL1         0.1018
      76    H36     20.655149   24.755450   21.837898 H          1 MOL1         0.0783
      77    C23     21.890996   23.409495   20.621749 C.3        1 MOL1         0.1043
      78    H37     21.758251   22.389356   20.243737 H          1 MOL1         0.0783
      79    O19     23.200436   23.510594   21.240104 O.3        1 MOL1        -0.3740
      80    C24     21.852161   24.352518   19.395883 C.3        1 MOL1         0.0138
      81    H38     20.982230   24.087409   18.779851 H          1 MOL1         0.0794
      82    H39     22.748720   24.173601   18.787110 H          1 MOL1         0.0794
      83    O20     21.775556   25.731404   19.777845 O.3        1 MOL1        -0.5486
      84    H40     21.837732   26.271393   18.959810 H          1 MOL1         0.3769
      85    C25     25.019144   17.644258   21.341375 C.3        1 MOL1         0.2972
      86    H41     25.767001   16.871353   21.123060 H          1 MOL1         0.0751
      87    O21     23.706121   17.079566   21.504786 O.3        1 MOL1        -0.3740
      88    C26     25.372935   18.359793   22.670409 C.3        1 MOL1         0.1003
      89    H42     26.370004   18.803979   22.553859 H          1 MOL1         0.0783
      90    O22     25.396231   17.414595   23.751587 O.3        1 MOL1        -0.5519
      91    H43     24.685080   16.754063   23.563709 H          1 MOL1         0.3769
      92    C27     24.370554   19.500993   22.972549 C.3        1 MOL1         0.1053
      93    H44     23.389149   19.051886   23.178707 H          1 MOL1         0.0783
      94    O23     24.814422   20.239343   24.115474 O.3        1 MOL1        -0.5519
      95    H45     25.070827   19.556217   24.775013 H          1 MOL1         0.3769
      96    C28     24.232662   20.440594   21.750022 C.3        1 MOL1         0.1018
      97    H46     25.165603   21.006679   21.627648 H          1 MOL1         0.0783
      98    C29     23.948960   19.649235   20.446550 C.3        1 MOL1         0.1043
      99    H47     22.967811   19.171185   20.549634 H          1 MOL1         0.0783
     100    O24     24.964549   18.626480   20.281621 O.3        1 MOL1        -0.3740
     101    C30     23.894981   20.523152   19.165797 C.3        1 MOL1         0.0138
     102    H48     22.860896   20.860469   19.021167 H          1 MOL1         0.0794
     103    H49     24.147526   19.895944   18.300594 H          1 MOL1         0.0794
     104    O25     24.764740   21.661070   19.219126 O.3        1 MOL1        -0.5486
     105    H50     24.385171   22.287977   19.877580 H          1 MOL1         0.3769
     106    C31     21.251504   13.911666   20.379786 C.3        1 MOL1         0.2972
     107    H51     20.827706   12.986237   19.969462 H          1 MOL1         0.0751
     108    O26     20.212387   14.806801   20.827665 O.3        1 MOL1        -0.3740
     109    C32     22.264098   13.610578   21.521897 C.3        1 MOL1         0.1003
     110    H52     23.076858   13.024017   21.074126 H          1 MOL1         0.0783
     111    O27     21.681778   12.839479   22.582726 O.3        1 MOL1        -0.5519
     112    H53     21.022947   13.427885   23.030549 H          1 MOL1         0.3769
     113    C33     22.882401   14.920658   22.070279 C.3        1 MOL1         0.1053
     114    H54     22.089727   15.503139   22.559991 H          1 MOL1         0.0783
     115    O28     23.911843   14.608247   23.015924 O.3        1 MOL1        -0.5519
     116    H55     23.518655   13.935103   23.613841 H          1 MOL1         0.3769
     117    C34     23.471872   15.782544   20.927527 C.3        1 MOL1         0.1018
     118    H56     24.399717   15.308968   20.581285 H          1 MOL1         0.0783
     119    C35     22.479944   15.932851   19.738000 C.3        1 MOL1         0.1043
     120    H57     21.638277   16.551385   20.074860 H          1 MOL1         0.0783
     121    O29     21.988374   14.619999   19.356804 O.3        1 MOL1        -0.3740
     122    C36     23.061088   16.624215   18.478015 C.3        1 MOL1         0.0138
     123    H58     22.921234   17.707241   18.579668 H          1 MOL1         0.0794
     124    H59     22.472632   16.310020   17.605700 H          1 MOL1         0.0794
     125    O30     24.448005   16.341276   18.263224 O.3        1 MOL1        -0.5486
     126    H60     24.953021   16.990308   18.803714 H          1 MOL1         0.3769
     127    C1      19.968175   18.175231   23.717686 C.2        1 MOL1         0.6021
     128    O1      18.791401   18.357220   23.967414 O.co2      1 MOL1        -0.6904
     129    O2      20.657562   17.394425   24.345403 O.co2      1 MOL1        -0.6904
     130    C2      20.548367   18.731250   22.414306 C.3        1 MOL1        -0.2102
     131    H1      21.351963   18.059348   22.097671 H          1 MOL1         0.0687
     132    H2      21.007374   19.695999   22.645576 H          1 MOL1         0.0687
     133    C3      19.524624   18.887901   21.260987 C.3        1 MOL1        -0.1974
     134    H3      19.051036   17.918694   21.061757 H          1 MOL1         0.0689
     135    H4      18.729642   19.574308   21.582617 H          1 MOL1         0.0689
     136    C4      20.170837   19.413406   19.964081 C.3        1 MOL1        -0.2987
     137    H5      20.941068   18.724467   19.601961 H          1 MOL1         0.0700
     138    H6      19.419427   19.517492   19.172195 H          1 MOL1         0.0700
     139    H7      20.629817   20.394865   20.131627 H          1 MOL1         0.0700
@<TRIPOS>BOND
    1     1     2    1
    2     1     3    1
    3     1     4    1
    4     4     5    1
    5     4     6    1
    6     6     7    1
    7     4     8    1
    8     8     9    1
    9     8    10    1
   10    10    11    1
   11     8    12    1
   12    12    13    1
   13    12    14    1
   14    14    15    1
   15     1    16    1
   16    14    16    1
   17    14    17    1
   18    17    18    1
   19    17    19    1
   20    17    20    1
   21    20    21    1
   22    22    23    1
   23    22    24    1
   24    22    25    1
   25    25    26    1
   26    25    27    1
   27    27    28    1
   28    25    29    1
   29    29    30    1
   30    29    31    1
   31    31    32    1
   32     3    33    1
   33    29    33    1
   34    33    34    1
   35    33    35    1
   36    35    36    1
   37    22    37    1
   38    35    37    1
   39    35    38    1
   40    38    39    1
   41    38    40    1
   42    38    41    1
   43    41    42    1
   44    43    44    1
   45    43    45    1
   46    43    46    1
   47    46    47    1
   48    46    48    1
   49    48    49    1
   50    46    50    1
   51    50    51    1
   52    50    52    1
   53    52    53    1
   54    24    54    1
   55    50    54    1
   56    54    55    1
   57    54    56    1
   58    56    57    1
   59    43    58    1
   60    56    58    1
   61    56    59    1
   62    59    60    1
   63    59    61    1
   64    59    62    1
   65    62    63    1
   66    64    65    1
   67    64    66    1
   68    64    67    1
   69    67    68    1
   70    67    69    1
   71    69    70    1
   72    67    71    1
   73    71    72    1
   74    71    73    1
   75    73    74    1
   76    45    75    1
   77    71    75    1
   78    75    76    1
   79    75    77    1
   80    77    78    1
   81    64    79    1
   82    77    79    1
   83    77    80    1
   84    80    81    1
   85    80    82    1
   86    80    83    1
   87    83    84    1
   88    85    86    1
   89    85    87    1
   90    85    88    1
   91    88    89    1
   92    88    90    1
   93    90    91    1
   94    88    92    1
   95    92    93    1
   96    92    94    1
   97    94    95    1
   98    66    96    1
   99    92    96    1
  100    96    97    1
  101    96    98    1
  102    98    99    1
  103    85   100    1
  104    98   100    1
  105    98   101    1
  106   101   102    1
  107   101   103    1
  108   101   104    1
  109   104   105    1
  110   106   107    1
  111    12   108    1
  112   106   108    1
  113   106   109    1
  114   109   110    1
  115   109   111    1
  116   111   112    1
  117   109   113    1
  118   113   114    1
  119   113   115    1
  120   115   116    1
  121    87   117    1
  122   113   117    1
  123   117   118    1
  124   117   119    1
  125   119   120    1
  126   106   121    1
  127   119   121    1
  128   119   122    1
  129   122   123    1
  130   122   124    1
  131   122   125    1
  132   125   126    1
  133   127   128    1
  134   127   129    2
  135   127   130    1
  136   130   131    1
  137   130   132    1
  138   130   133    1
  139   133   134    1
  140   133   135    1
  141   133   136    1
  142   136   137    1
  143   136   138    1
  144   136   139    1
@<TRIPOS>SUBSTRUCTURE
       1 MOL1            1 RESIDUE      1      MOL     
       2 MOL1          139 RESIDUE      1      MOL     
@<SCITEGIC>MOL_PROPERTY
feprocess Rank
SciTegic.value.IntegerValue
41

@<SCITEGIC>MOL_PROPERTY
Conf_Id
SciTegic.value.IntegerValue
921

@<SCITEGIC>MOL_PROPERTY
Probability
SciTegic.value.DoubleValue
0.00

@<SCITEGIC>MOL_PROPERTY
G
SciTegic.value.DoubleValue
487.864

@<SCITEGIC>MOL_PROPERTY
E
SciTegic.value.DoubleValue
311.057

@<SCITEGIC>MOL_PROPERTY
-TS
SciTegic.value.DoubleValue
176.807

@<SCITEGIC>MOL_PROPERTY
U+W
SciTegic.value.DoubleValue
188.546

@<SCITEGIC>MOL_PROPERTY
U
SciTegic.value.DoubleValue
263.632

@<SCITEGIC>MOL_PROPERTY
W
SciTegic.value.DoubleValue
-75.086

@<SCITEGIC>MOL_PROPERTY
W(PB)
SciTegic.value.DoubleValue
-80.996

@<SCITEGIC>MOL_PROPERTY
W(SA)
SciTegic.value.DoubleValue
5.910

@<SCITEGIC>MOL_PROPERTY
Valence
SciTegic.value.DoubleValue
153.826

@<SCITEGIC>MOL_PROPERTY
Coulomb
SciTegic.value.DoubleValue
133.292

@<SCITEGIC>MOL_PROPERTY
VdW
SciTegic.value.DoubleValue
-23.486

@<SCITEGIC>MOL_PROPERTY
VdW6
SciTegic.value.DoubleValue
-179.119

@<SCITEGIC>MOL_PROPERTY
VdW12
SciTegic.value.DoubleValue
155.633

@<SCITEGIC>MOL_PROPERTY
Bond
SciTegic.value.DoubleValue
4.984

@<SCITEGIC>MOL_PROPERTY
Angle
SciTegic.value.DoubleValue
15.569

@<SCITEGIC>MOL_PROPERTY
Pdih
SciTegic.value.DoubleValue
133.177

@<SCITEGIC>MOL_PROPERTY
Idih
SciTegic.value.DoubleValue
0.097

@<SCITEGIC>MOL_PROPERTY
Tether
SciTegic.value.DoubleValue
0.000

@<TRIPOS>MOLECULE
CD_guest-6_fast_vm2_rndm.mol2 : feprocess host+ligand conformer 42
         139         144           2
SMALL
USER_CHARGES
 
@<TRIPOS>ATOM
       1    C1      16.035501   15.019882   20.865079 C.3        1 MOL1         0.2972
       2    H1      14.956497   14.884589   20.722456 H          1 MOL1         0.0751
       3    O1      16.374071   16.410851   21.055147 O.3        1 MOL1        -0.3740
       4    C2      16.554348   14.168592   22.053266 C.3        1 MOL1         0.1003
       5    H2      16.414378   13.115747   21.775363 H          1 MOL1         0.0783
       6    O2      15.817132   14.419708   23.257944 O.3        1 MOL1        -0.5519
       7    H3      15.991845   15.360546   23.511988 H          1 MOL1         0.3769
       8    C3      18.072170   14.400399   22.254346 C.3        1 MOL1         0.1053
       9    H4      18.230982   15.444233   22.561808 H          1 MOL1         0.0783
      10    O3      18.565824   13.512526   23.264966 O.3        1 MOL1        -0.5519
      11    H5      17.967272   13.638480   24.033496 H          1 MOL1         0.3769
      12    C4      18.848659   14.153963   20.935955 C.3        1 MOL1         0.1018
      13    H6      18.938481   13.068652   20.796484 H          1 MOL1         0.0783
      14    C5      18.173791   14.797114   19.686969 C.3        1 MOL1         0.1043
      15    H7      18.351525   15.878963   19.720452 H          1 MOL1         0.0783
      16    O4      16.742984   14.556128   19.697107 O.3        1 MOL1        -0.3740
      17    C6      18.738519   14.285897   18.339548 C.3        1 MOL1         0.0138
      18    H8      19.744528   14.702927   18.200538 H          1 MOL1         0.0794
      19    H9      18.111544   14.677753   17.527509 H          1 MOL1         0.0794
      20    O5      18.791420   12.854571   18.280756 O.3        1 MOL1        -0.5486
      21    H10     19.095700   12.605103   17.380923 H          1 MOL1         0.3769
      22    C7      15.046454   20.176253   22.073895 C.3        1 MOL1         0.2972
      23    H11     14.495391   21.069656   22.393467 H          1 MOL1         0.0751
      24    O6      16.278998   20.518290   21.409404 O.3        1 MOL1        -0.3740
      25    C8      15.384541   19.285362   23.294230 C.3        1 MOL1         0.1003
      26    H12     14.434807   18.970154   23.744770 H          1 MOL1         0.0783
      27    O7      16.140164   20.031410   24.263555 O.3        1 MOL1        -0.5519
      28    H13     16.138033   20.973502   23.970703 H          1 MOL1         0.3769
      29    C9      16.145819   18.013619   22.838599 C.3        1 MOL1         0.1053
      30    H14     17.124192   18.325203   22.454900 H          1 MOL1         0.0783
      31    O8      16.335954   17.129033   23.946183 O.3        1 MOL1        -0.5519
      32    H15     17.275855   17.297652   24.234469 H          1 MOL1         0.3769
      33    C10     15.406131   17.271062   21.693394 C.3        1 MOL1         0.1018
      34    H16     14.569561   16.705921   22.123188 H          1 MOL1         0.0783
      35    C11     14.892760   18.235527   20.585665 C.3        1 MOL1         0.1043
      36    H17     15.762601   18.568779   20.004587 H          1 MOL1         0.0783
      37    O9      14.244278   19.394342   21.165698 O.3        1 MOL1        -0.3740
      38    C12     13.909160   17.571963   19.591094 C.3        1 MOL1         0.0138
      39    H18     14.445004   16.794256   19.030101 H          1 MOL1         0.0794
      40    H19     13.589207   18.330139   18.864074 H          1 MOL1         0.0794
      41    O10     12.762562   17.007918   20.242111 O.3        1 MOL1        -0.5486
      42    H20     13.058127   16.250905   20.788176 H          1 MOL1         0.3769
      43    C13     18.552034   23.959518   20.674701 C.3        1 MOL1         0.2972
      44    H21     18.872557   24.956976   20.348086 H          1 MOL1         0.0751
      45    O11     19.663513   23.155677   21.116804 O.3        1 MOL1        -0.3740
      46    C14     17.563922   24.068464   21.863913 C.3        1 MOL1         0.1003
      47    H22     16.699454   24.650294   21.518484 H          1 MOL1         0.0783
      48    O12     18.169265   24.745674   22.977301 O.3        1 MOL1        -0.5519
      49    H23     19.112797   24.447316   23.027581 H          1 MOL1         0.3769
      50    C15     17.053806   22.668700   22.291715 C.3        1 MOL1         0.1053
      51    H24     17.903433   22.096468   22.689782 H          1 MOL1         0.0783
      52    O13     16.059713   22.836207   23.307947 O.3        1 MOL1        -0.5519
      53    H25     16.414162   23.547266   23.889481 H          1 MOL1         0.3769
      54    C16     16.480044   21.902002   21.068662 C.3        1 MOL1         0.1018
      55    H26     15.540814   22.374344   20.753286 H          1 MOL1         0.0783
      56    C17     17.480024   21.909369   19.881795 C.3        1 MOL1         0.1043
      57    H27     18.363503   21.328895   20.173266 H          1 MOL1         0.0783
      58    O14     17.880081   23.270740   19.596600 O.3        1 MOL1        -0.3740
      59    C18     16.924162   21.263285   18.587945 C.3        1 MOL1         0.0138
      60    H28     16.988612   20.171993   18.691557 H          1 MOL1         0.0794
      61    H29     17.573123   21.545496   17.748425 H          1 MOL1         0.0794
      62    O15     15.568832   21.639941   18.315011 O.3        1 MOL1        -0.5486
      63    H30     15.006418   21.213700   18.997899 H          1 MOL1         0.3769
      64    C19     23.776105   22.839971   21.127044 C.3        1 MOL1         0.2972
      65    H31     24.864050   22.952313   21.034329 H          1 MOL1         0.0751
      66    O16     23.402721   21.477941   21.421071 O.3        1 MOL1        -0.3740
      67    C20     23.201810   23.772690   22.224471 C.3        1 MOL1         0.1003
      68    H32     23.367701   24.805457   21.890981 H          1 MOL1         0.0783
      69    O17     23.858202   23.587215   23.486697 O.3        1 MOL1        -0.5519
      70    H33     23.751542   22.634469   23.735906 H          1 MOL1         0.3769
      71    C21     21.674475   23.556264   22.353757 C.3        1 MOL1         0.1053
      72    H34     21.496538   22.529307   22.702627 H          1 MOL1         0.0783
      73    O18     21.136262   24.487620   23.298107 O.3        1 MOL1        -0.5519
      74    H35     21.764690   24.476725   24.054299 H          1 MOL1         0.3769
      75    C22     20.974855   23.736396   20.982721 C.3        1 MOL1         0.1018
      76    H36     20.929601   24.811131   20.763514 H          1 MOL1         0.0783
      77    C23     21.702041   22.994776   19.823042 C.3        1 MOL1         0.1043
      78    H37     21.506417   21.920340   19.924724 H          1 MOL1         0.0783
      79    O19     23.134214   23.217658   19.890678 O.3        1 MOL1        -0.3740
      80    C24     21.207691   23.419300   18.419537 C.3        1 MOL1         0.0138
      81    H38     20.187834   23.037298   18.279107 H          1 MOL1         0.0794
      82    H39     21.842579   22.937509   17.664061 H          1 MOL1         0.0794
      83    O20     21.221778   24.842541   18.248167 O.3        1 MOL1        -0.5486
      84    H40     20.930641   25.034100   17.330100 H          1 MOL1         0.3769
      85    C25     24.709976   17.725358   22.481662 C.3        1 MOL1         0.2972
      86    H41     25.246849   16.824942   22.805767 H          1 MOL1         0.0751
      87    O21     23.418985   17.400823   21.933505 O.3        1 MOL1        -0.3740
      88    C26     24.525731   18.690391   23.678281 C.3        1 MOL1         0.1003
      89    H42     25.527763   19.001523   24.000495 H          1 MOL1         0.0783
      90    O22     23.864062   18.046292   24.776460 O.3        1 MOL1        -0.5519
      91    H43     22.932979   17.849102   24.473302 H          1 MOL1         0.3769
      92    C27     23.748919   19.952973   23.244981 C.3        1 MOL1         0.1053
      93    H44     22.733925   19.647178   22.966248 H          1 MOL1         0.0783
      94    O23     23.689369   20.862677   24.347139 O.3        1 MOL1        -0.5519
      95    H45     23.402381   20.309351   25.108324 H          1 MOL1         0.3769
      96    C28     24.406193   20.629008   22.014483 C.3        1 MOL1         0.1018
      97    H46     25.284968   21.195784   22.349477 H          1 MOL1         0.0783
      98    C29     24.810274   19.610539   20.909834 C.3        1 MOL1         0.1043
      99    H47     23.886700   19.301279   20.409455 H          1 MOL1         0.0783
     100    O24     25.455920   18.433867   21.466835 O.3        1 MOL1        -0.3740
     101    C30     25.733833   20.215097   19.825676 C.3        1 MOL1         0.0138
     102    H48     25.151540   20.935153   19.234688 H          1 MOL1         0.0794
     103    H49     26.048835   19.413421   19.144223 H          1 MOL1         0.0794
     104    O25     26.877370   20.865247   20.394061 O.3        1 MOL1        -0.5486
     105    H50     27.450948   21.160566   19.653475 H          1 MOL1         0.3769
     106    C31     21.272287   14.076849   20.583965 C.3        1 MOL1         0.2972
     107    H51     20.979366   13.140816   20.091202 H          1 MOL1         0.0751
     108    O26     20.133348   14.776386   21.116114 O.3        1 MOL1        -0.3740
     109    C32     22.231410   13.793202   21.767388 C.3        1 MOL1         0.1003
     110    H52     23.091988   13.245585   21.361886 H          1 MOL1         0.0783
     111    O27     21.579661   12.980615   22.758360 O.3        1 MOL1        -0.5519
     112    H53     20.680324   13.369155   22.904725 H          1 MOL1         0.3769
     113    C33     22.763335   15.103319   22.408162 C.3        1 MOL1         0.1053
     114    H54     21.936938   15.587965   22.948345 H          1 MOL1         0.0783
     115    O28     23.815387   14.759985   23.316645 O.3        1 MOL1        -0.5519
     116    H55     23.426927   14.089336   23.919337 H          1 MOL1         0.3769
     117    C34     23.284794   16.097768   21.334592 C.3        1 MOL1         0.1018
     118    H56     24.243725   15.732368   20.944984 H          1 MOL1         0.0783
     119    C35     22.283574   16.253928   20.160313 C.3        1 MOL1         0.1043
     120    H57     21.379179   16.737105   20.547690 H          1 MOL1         0.0783
     121    O29     21.948354   14.944015   19.649033 O.3        1 MOL1        -0.3740
     122    C36     22.795450   17.127537   18.986971 C.3        1 MOL1         0.0138
     123    H58     22.533687   18.172065   19.197480 H          1 MOL1         0.0794
     124    H59     22.251393   16.845780   18.075726 H          1 MOL1         0.0794
     125    O30     24.208980   17.011763   18.773945 O.3        1 MOL1        -0.5486
     126    H60     24.654859   17.325793   19.592787 H          1 MOL1         0.3769
     127    C1      20.053338   18.171284   23.729372 C.2        1 MOL1         0.6021
     128    O1      19.077303   17.514476   24.038086 O.co2      1 MOL1        -0.6904
     129    O2      21.187025   17.892828   24.070088 O.co2      1 MOL1        -0.6904
     130    C2      19.841465   19.468881   22.946107 C.3        1 MOL1        -0.2102
     131    H1      20.433012   20.245664   23.443907 H          1 MOL1         0.0687
     132    H2      18.792529   19.771104   23.038730 H          1 MOL1         0.0687
     133    C3      20.250926   19.392852   21.451934 C.3        1 MOL1        -0.1974
     134    H3      20.272638   20.406130   21.036808 H          1 MOL1         0.0689
     135    H4      21.272106   19.000869   21.373699 H          1 MOL1         0.0689
     136    C4      19.296308   18.519839   20.613271 C.3        1 MOL1        -0.2987
     137    H5      18.290080   18.951168   20.584811 H          1 MOL1         0.0700
     138    H6      19.656008   18.426496   19.581199 H          1 MOL1         0.0700
     139    H7      19.218158   17.514287   21.045397 H          1 MOL1         0.0700
@<TRIPOS>BOND
    1     1     2    1
    2     1     3    1
    3     1     4    1
    4     4     5    1
    5     4     6    1
    6     6     7    1
    7     4     8    1
    8     8     9    1
    9     8    10    1
   10    10    11    1
   11     8    12    1
   12    12    13    1
   13    12    14    1
   14    14    15    1
   15     1    16    1
   16    14    16    1
   17    14    17    1
   18    17    18    1
   19    17    19    1
   20    17    20    1
   21    20    21    1
   22    22    23    1
   23    22    24    1
   24    22    25    1
   25    25    26    1
   26    25    27    1
   27    27    28    1
   28    25    29    1
   29    29    30    1
   30    29    31    1
   31    31    32    1
   32     3    33    1
   33    29    33    1
   34    33    34    1
   35    33    35    1
   36    35    36    1
   37    22    37    1
   38    35    37    1
   39    35    38    1
   40    38    39    1
   41    38    40    1
   42    38    41    1
   43    41    42    1
   44    43    44    1
   45    43    45    1
   46    43    46    1
   47    46    47    1
   48    46    48    1
   49    48    49    1
   50    46    50    1
   51    50    51    1
   52    50    52    1
   53    52    53    1
   54    24    54    1
   55    50    54    1
   56    54    55    1
   57    54    56    1
   58    56    57    1
   59    43    58    1
   60    56    58    1
   61    56    59    1
   62    59    60    1
   63    59    61    1
   64    59    62    1
   65    62    63    1
   66    64    65    1
   67    64    66    1
   68    64    67    1
   69    67    68    1
   70    67    69    1
   71    69    70    1
   72    67    71    1
   73    71    72    1
   74    71    73    1
   75    73    74    1
   76    45    75    1
   77    71    75    1
   78    75    76    1
   79    75    77    1
   80    77    78    1
   81    64    79    1
   82    77    79    1
   83    77    80    1
   84    80    81    1
   85    80    82    1
   86    80    83    1
   87    83    84    1
   88    85    86    1
   89    85    87    1
   90    85    88    1
   91    88    89    1
   92    88    90    1
   93    90    91    1
   94    88    92    1
   95    92    93    1
   96    92    94    1
   97    94    95    1
   98    66    96    1
   99    92    96    1
  100    96    97    1
  101    96    98    1
  102    98    99    1
  103    85   100    1
  104    98   100    1
  105    98   101    1
  106   101   102    1
  107   101   103    1
  108   101   104    1
  109   104   105    1
  110   106   107    1
  111    12   108    1
  112   106   108    1
  113   106   109    1
  114   109   110    1
  115   109   111    1
  116   111   112    1
  117   109   113    1
  118   113   114    1
  119   113   115    1
  120   115   116    1
  121    87   117    1
  122   113   117    1
  123   117   118    1
  124   117   119    1
  125   119   120    1
  126   106   121    1
  127   119   121    1
  128   119   122    1
  129   122   123    1
  130   122   124    1
  131   122   125    1
  132   125   126    1
  133   127   128    1
  134   127   129    2
  135   127   130    1
  136   130   131    1
  137   130   132    1
  138   130   133    1
  139   133   134    1
  140   133   135    1
  141   133   136    1
  142   136   137    1
  143   136   138    1
  144   136   139    1
@<TRIPOS>SUBSTRUCTURE
       1 MOL1            1 RESIDUE      1      MOL     
       2 MOL1          139 RESIDUE      1      MOL     
@<SCITEGIC>MOL_PROPERTY
feprocess Rank
SciTegic.value.IntegerValue
42

@<SCITEGIC>MOL_PROPERTY
Conf_Id
SciTegic.value.IntegerValue
516

@<SCITEGIC>MOL_PROPERTY
Probability
SciTegic.value.DoubleValue
0.00

@<SCITEGIC>MOL_PROPERTY
G
SciTegic.value.DoubleValue
487.917

@<SCITEGIC>MOL_PROPERTY
E
SciTegic.value.DoubleValue
311.099

@<SCITEGIC>MOL_PROPERTY
-TS
SciTegic.value.DoubleValue
176.819

@<SCITEGIC>MOL_PROPERTY
U+W
SciTegic.value.DoubleValue
188.588

@<SCITEGIC>MOL_PROPERTY
U
SciTegic.value.DoubleValue
265.645

@<SCITEGIC>MOL_PROPERTY
W
SciTegic.value.DoubleValue
-77.057

@<SCITEGIC>MOL_PROPERTY
W(PB)
SciTegic.value.DoubleValue
-83.022

@<SCITEGIC>MOL_PROPERTY
W(SA)
SciTegic.value.DoubleValue
5.965

@<SCITEGIC>MOL_PROPERTY
Valence
SciTegic.value.DoubleValue
150.903

@<SCITEGIC>MOL_PROPERTY
Coulomb
SciTegic.value.DoubleValue
137.103

@<SCITEGIC>MOL_PROPERTY
VdW
SciTegic.value.DoubleValue
-22.361

@<SCITEGIC>MOL_PROPERTY
VdW6
SciTegic.value.DoubleValue
-175.934

@<SCITEGIC>MOL_PROPERTY
VdW12
SciTegic.value.DoubleValue
153.573

@<SCITEGIC>MOL_PROPERTY
Bond
SciTegic.value.DoubleValue
4.977

@<SCITEGIC>MOL_PROPERTY
Angle
SciTegic.value.DoubleValue
14.408

@<SCITEGIC>MOL_PROPERTY
Pdih
SciTegic.value.DoubleValue
131.507

@<SCITEGIC>MOL_PROPERTY
Idih
SciTegic.value.DoubleValue
0.011

@<SCITEGIC>MOL_PROPERTY
Tether
SciTegic.value.DoubleValue
0.000

@<TRIPOS>MOLECULE
CD_guest-6_fast_vm2_rndm.mol2 : feprocess host+ligand conformer 43
         139         144           2
SMALL
USER_CHARGES
 
@<TRIPOS>ATOM
       1    C1      16.312890   15.108898   22.189860 C.3        1 MOL1         0.2972
       2    H1      15.303258   14.998408   22.606260 H          1 MOL1         0.0751
       3    O1      16.599890   16.481487   21.851621 O.3        1 MOL1        -0.3740
       4    C2      17.362939   14.602851   23.207239 C.3        1 MOL1         0.1003
       5    H2      17.214028   13.521401   23.320340 H          1 MOL1         0.0783
       6    O2      17.187115   15.230049   24.487347 O.3        1 MOL1        -0.5519
       7    H3      17.836297   15.981373   24.543616 H          1 MOL1         0.3769
       8    C3      18.782646   14.836273   22.643773 C.3        1 MOL1         0.1053
       9    H4      18.914504   15.915793   22.511171 H          1 MOL1         0.0783
      10    O3      19.771771   14.351441   23.558581 O.3        1 MOL1        -0.5519
      11    H5      19.853029   15.069087   24.239322 H          1 MOL1         0.3769
      12    C4      18.961467   14.201943   21.243083 C.3        1 MOL1         0.1018
      13    H6      19.149902   13.125700   21.346916 H          1 MOL1         0.0783
      14    C5      17.746201   14.458976   20.301876 C.3        1 MOL1         0.1043
      15    H7      17.834882   15.491372   19.947089 H          1 MOL1         0.0783
      16    O4      16.472963   14.318013   20.991233 O.3        1 MOL1        -0.3740
      17    C6      17.733749   13.551387   19.049526 C.3        1 MOL1         0.0138
      18    H8      18.567347   13.845221   18.397556 H          1 MOL1         0.0794
      19    H9      16.804577   13.733081   18.492643 H          1 MOL1         0.0794
      20    O5      17.847872   12.164586   19.389872 O.3        1 MOL1        -0.5486
      21    H10     17.758704   11.645231   18.560923 H          1 MOL1         0.3769
      22    C7      14.802314   20.176482   21.291219 C.3        1 MOL1         0.2972
      23    H11     14.105350   20.994625   21.068670 H          1 MOL1         0.0751
      24    O6      16.125714   20.673943   21.571323 O.3        1 MOL1        -0.3740
      25    C8      14.306384   19.403653   22.535613 C.3        1 MOL1         0.1003
      26    H12     13.295623   19.038740   22.311264 H          1 MOL1         0.0783
      27    O7      14.251144   20.281787   23.671240 O.3        1 MOL1        -0.5519
      28    H13     14.952339   20.964278   23.533639 H          1 MOL1         0.3769
      29    C9      15.196037   18.174291   22.842118 C.3        1 MOL1         0.1053
      30    H14     16.162028   18.533054   23.223616 H          1 MOL1         0.0783
      31    O8      14.540411   17.379483   23.834625 O.3        1 MOL1        -0.5519
      32    H15     14.350760   17.994860   24.575744 H          1 MOL1         0.3769
      33    C10     15.464296   17.321263   21.573973 C.3        1 MOL1         0.1018
      34    H16     14.565061   16.735267   21.343280 H          1 MOL1         0.0783
      35    C11     15.845283   18.186791   20.341796 C.3        1 MOL1         0.1043
      36    H17     16.837789   18.615650   20.531592 H          1 MOL1         0.0783
      37    O9      14.882025   19.256874   20.182250 O.3        1 MOL1        -0.3740
      38    C12     15.938041   17.407787   19.002340 C.3        1 MOL1         0.0138
      39    H18     16.979361   17.098888   18.851341 H          1 MOL1         0.0794
      40    H19     15.695698   18.093721   18.179504 H          1 MOL1         0.0794
      41    O10     15.080289   16.260443   18.948973 O.3        1 MOL1        -0.5486
      42    H20     15.408307   15.614396   19.616692 H          1 MOL1         0.3769
      43    C13     18.552794   23.983332   20.701984 C.3        1 MOL1         0.2972
      44    H21     18.918975   24.941032   20.310028 H          1 MOL1         0.0751
      45    O11     19.595215   23.243696   21.362130 O.3        1 MOL1        -0.3740
      46    C14     17.431629   24.215782   21.747040 C.3        1 MOL1         0.1003
      47    H22     16.635726   24.792136   21.257895 H          1 MOL1         0.0783
      48    O12     17.940135   24.957501   22.868581 O.3        1 MOL1        -0.5519
      49    H23     18.825165   24.573835   23.089881 H          1 MOL1         0.3769
      50    C15     16.828668   22.870722   22.224916 C.3        1 MOL1         0.1053
      51    H24     17.595753   22.343190   22.805583 H          1 MOL1         0.0783
      52    O13     15.684039   23.122096   23.047610 O.3        1 MOL1        -0.5519
      53    H25     15.971740   23.813733   23.683604 H          1 MOL1         0.3769
      54    C16     16.432184   21.972842   21.027653 C.3        1 MOL1         0.1018
      55    H26     15.565717   22.426197   20.528420 H          1 MOL1         0.0783
      56    C17     17.596277   21.838908   20.007287 C.3        1 MOL1         0.1043
      57    H27     18.425066   21.305646   20.490962 H          1 MOL1         0.0783
      58    O14     18.026123   23.168878   19.632878 O.3        1 MOL1        -0.3740
      59    C18     17.256150   21.068828   18.705716 C.3        1 MOL1         0.0138
      60    H28     17.435223   20.000523   18.873483 H          1 MOL1         0.0794
      61    H29     17.957581   21.385033   17.922167 H          1 MOL1         0.0794
      62    O15     15.908836   21.269666   18.264399 O.3        1 MOL1        -0.5486
      63    H30     15.340618   20.675437   18.807443 H          1 MOL1         0.3769
      64    C19     23.692486   22.858352   21.514922 C.3        1 MOL1         0.2972
      65    H31     24.783030   22.972158   21.488758 H          1 MOL1         0.0751
      66    O16     23.298395   21.478146   21.656970 O.3        1 MOL1        -0.3740
      67    C20     23.078824   23.681909   22.675372 C.3        1 MOL1         0.1003
      68    H32     23.294095   24.739556   22.474662 H          1 MOL1         0.0783
      69    O17     23.656300   23.321612   23.938956 O.3        1 MOL1        -0.5519
      70    H33     23.583457   22.337344   24.029449 H          1 MOL1         0.3769
      71    C21     21.542083   23.507529   22.701092 C.3        1 MOL1         0.1053
      72    H34     21.322299   22.462922   22.956480 H          1 MOL1         0.0783
      73    O18     20.971013   24.376306   23.686360 O.3        1 MOL1        -0.5519
      74    H35     21.523136   24.251145   24.489579 H          1 MOL1         0.3769
      75    C22     20.915979   23.813053   21.317703 C.3        1 MOL1         0.1018
      76    H36     20.886676   24.903569   21.193490 H          1 MOL1         0.0783
      77    C23     21.689277   23.159318   20.133343 C.3        1 MOL1         0.1043
      78    H37     21.472839   22.082737   20.137179 H          1 MOL1         0.0783
      79    O19     23.117037   23.356877   20.291673 O.3        1 MOL1        -0.3740
      80    C24     21.290020   23.705945   18.740871 C.3        1 MOL1         0.0138
      81    H38     20.300151   23.312700   18.477452 H          1 MOL1         0.0794
      82    H39     21.998259   23.316268   17.997471 H          1 MOL1         0.0794
      83    O20     21.271618   25.138782   18.704927 O.3        1 MOL1        -0.5486
      84    H40     21.071322   25.410359   17.782647 H          1 MOL1         0.3769
      85    C25     24.691626   17.605614   22.092160 C.3        1 MOL1         0.2972
      86    H41     25.278665   16.693655   22.260472 H          1 MOL1         0.0751
      87    O21     23.368870   17.297899   21.613257 O.3        1 MOL1        -0.3740
      88    C26     24.594079   18.417301   23.407913 C.3        1 MOL1         0.1003
      89    H42     25.614174   18.726584   23.669639 H          1 MOL1         0.0783
      90    O22     24.067509   17.627194   24.483128 O.3        1 MOL1        -0.5519
      91    H43     23.112314   17.434430   24.266508 H          1 MOL1         0.3769
      92    C27     23.752181   19.694303   23.194777 C.3        1 MOL1         0.1053
      93    H44     22.725703   19.393575   22.943443 H          1 MOL1         0.0783
      94    O23     23.753768   20.466248   24.399254 O.3        1 MOL1        -0.5519
      95    H45     23.525216   19.822347   25.107015 H          1 MOL1         0.3769
      96    C28     24.321735   20.531992   22.023129 C.3        1 MOL1         0.1018
      97    H46     25.241564   21.025552   22.362228 H          1 MOL1         0.0783
      98    C29     24.607728   19.667802   20.760817 C.3        1 MOL1         0.1043
      99    H47     23.636416   19.400068   20.329628 H          1 MOL1         0.0783
     100    O24     25.323088   18.450191   21.104072 O.3        1 MOL1        -0.3740
     101    C30     25.406517   20.410222   19.661755 C.3        1 MOL1         0.0138
     102    H48     24.793868   21.234993   19.272882 H          1 MOL1         0.0794
     103    H49     25.576531   19.715891   18.828179 H          1 MOL1         0.0794
     104    O25     26.661472   20.911765   20.139715 O.3        1 MOL1        -0.5486
     105    H50     26.484943   21.677863   20.722987 H          1 MOL1         0.3769
     106    C31     21.144590   14.160476   20.053689 C.3        1 MOL1         0.2972
     107    H51     20.760341   13.290453   19.506159 H          1 MOL1         0.0751
     108    O26     20.073103   14.910879   20.659006 O.3        1 MOL1        -0.3740
     109    C32     22.193412   13.736642   21.119118 C.3        1 MOL1         0.1003
     110    H52     23.018454   13.262948   20.571307 H          1 MOL1         0.0783
     111    O27     21.665107   12.784326   22.054207 O.3        1 MOL1        -0.5519
     112    H53     20.991751   13.266050   22.597936 H          1 MOL1         0.3769
     113    C33     22.775823   14.965310   21.863321 C.3        1 MOL1         0.1053
     114    H54     21.990799   15.395039   22.500835 H          1 MOL1         0.0783
     115    O28     23.878602   14.527110   22.664562 O.3        1 MOL1        -0.5519
     116    H55     23.528914   13.788954   23.208969 H          1 MOL1         0.3769
     117    C34     23.246870   16.066183   20.875802 C.3        1 MOL1         0.1018
     118    H56     24.206362   15.755649   20.442535 H          1 MOL1         0.0783
     119    C35     22.231814   16.326572   19.728213 C.3        1 MOL1         0.1043
     120    H57     21.357600   16.834628   20.156498 H          1 MOL1         0.0783
     121    O29     21.820595   15.061484   19.148060 O.3        1 MOL1        -0.3740
     122    C36     22.763892   17.245684   18.597086 C.3        1 MOL1         0.0138
     123    H58     22.522202   18.284329   18.854160 H          1 MOL1         0.0794
     124    H59     22.216497   17.016517   17.673051 H          1 MOL1         0.0794
     125    O30     24.175094   17.120020   18.376098 O.3        1 MOL1        -0.5486
     126    H60     24.630775   17.440933   19.187778 H          1 MOL1         0.3769
     127    C1      20.146869   17.649154   24.082978 C.2        1 MOL1         0.6021
     128    O1      21.337074   17.413654   24.132729 O.co2      1 MOL1        -0.6904
     129    O2      19.318297   17.025030   24.719434 O.co2      1 MOL1        -0.6904
     130    C2      19.658842   18.626751   23.014894 C.3        1 MOL1        -0.2102
     131    H1      18.636157   18.354999   22.728510 H          1 MOL1         0.0687
     132    H2      20.287823   18.481377   22.128622 H          1 MOL1         0.0687
     133    C3      19.714776   20.112771   23.447104 C.3        1 MOL1        -0.1974
     134    H3      20.719908   20.346620   23.822284 H          1 MOL1         0.0689
     135    H4      19.546062   20.749246   22.569681 H          1 MOL1         0.0689
     136    C4      18.668421   20.452706   24.527636 C.3        1 MOL1        -0.2987
     137    H5      18.825817   19.848046   25.430363 H          1 MOL1         0.0700
     138    H6      18.736788   21.510461   24.812383 H          1 MOL1         0.0700
     139    H7      17.651211   20.261489   24.162805 H          1 MOL1         0.0700
@<TRIPOS>BOND
    1     1     2    1
    2     1     3    1
    3     1     4    1
    4     4     5    1
    5     4     6    1
    6     6     7    1
    7     4     8    1
    8     8     9    1
    9     8    10    1
   10    10    11    1
   11     8    12    1
   12    12    13    1
   13    12    14    1
   14    14    15    1
   15     1    16    1
   16    14    16    1
   17    14    17    1
   18    17    18    1
   19    17    19    1
   20    17    20    1
   21    20    21    1
   22    22    23    1
   23    22    24    1
   24    22    25    1
   25    25    26    1
   26    25    27    1
   27    27    28    1
   28    25    29    1
   29    29    30    1
   30    29    31    1
   31    31    32    1
   32     3    33    1
   33    29    33    1
   34    33    34    1
   35    33    35    1
   36    35    36    1
   37    22    37    1
   38    35    37    1
   39    35    38    1
   40    38    39    1
   41    38    40    1
   42    38    41    1
   43    41    42    1
   44    43    44    1
   45    43    45    1
   46    43    46    1
   47    46    47    1
   48    46    48    1
   49    48    49    1
   50    46    50    1
   51    50    51    1
   52    50    52    1
   53    52    53    1
   54    24    54    1
   55    50    54    1
   56    54    55    1
   57    54    56    1
   58    56    57    1
   59    43    58    1
   60    56    58    1
   61    56    59    1
   62    59    60    1
   63    59    61    1
   64    59    62    1
   65    62    63    1
   66    64    65    1
   67    64    66    1
   68    64    67    1
   69    67    68    1
   70    67    69    1
   71    69    70    1
   72    67    71    1
   73    71    72    1
   74    71    73    1
   75    73    74    1
   76    45    75    1
   77    71    75    1
   78    75    76    1
   79    75    77    1
   80    77    78    1
   81    64    79    1
   82    77    79    1
   83    77    80    1
   84    80    81    1
   85    80    82    1
   86    80    83    1
   87    83    84    1
   88    85    86    1
   89    85    87    1
   90    85    88    1
   91    88    89    1
   92    88    90    1
   93    90    91    1
   94    88    92    1
   95    92    93    1
   96    92    94    1
   97    94    95    1
   98    66    96    1
   99    92    96    1
  100    96    97    1
  101    96    98    1
  102    98    99    1
  103    85   100    1
  104    98   100    1
  105    98   101    1
  106   101   102    1
  107   101   103    1
  108   101   104    1
  109   104   105    1
  110   106   107    1
  111    12   108    1
  112   106   108    1
  113   106   109    1
  114   109   110    1
  115   109   111    1
  116   111   112    1
  117   109   113    1
  118   113   114    1
  119   113   115    1
  120   115   116    1
  121    87   117    1
  122   113   117    1
  123   117   118    1
  124   117   119    1
  125   119   120    1
  126   106   121    1
  127   119   121    1
  128   119   122    1
  129   122   123    1
  130   122   124    1
  131   122   125    1
  132   125   126    1
  133   127   128    1
  134   127   129    2
  135   127   130    1
  136   130   131    1
  137   130   132    1
  138   130   133    1
  139   133   134    1
  140   133   135    1
  141   133   136    1
  142   136   137    1
  143   136   138    1
  144   136   139    1
@<TRIPOS>SUBSTRUCTURE
       1 MOL1            1 RESIDUE      1      MOL     
       2 MOL1          139 RESIDUE      1      MOL     
@<SCITEGIC>MOL_PROPERTY
feprocess Rank
SciTegic.value.IntegerValue
43

@<SCITEGIC>MOL_PROPERTY
Conf_Id
SciTegic.value.IntegerValue
627

@<SCITEGIC>MOL_PROPERTY
Probability
SciTegic.value.DoubleValue
0.00

@<SCITEGIC>MOL_PROPERTY
G
SciTegic.value.DoubleValue
488.320

@<SCITEGIC>MOL_PROPERTY
E
SciTegic.value.DoubleValue
313.196

@<SCITEGIC>MOL_PROPERTY
-TS
SciTegic.value.DoubleValue
175.123

@<SCITEGIC>MOL_PROPERTY
U+W
SciTegic.value.DoubleValue
190.685

@<SCITEGIC>MOL_PROPERTY
U
SciTegic.value.DoubleValue
264.170

@<SCITEGIC>MOL_PROPERTY
W
SciTegic.value.DoubleValue
-73.485

@<SCITEGIC>MOL_PROPERTY
W(PB)
SciTegic.value.DoubleValue
-79.446

@<SCITEGIC>MOL_PROPERTY
W(SA)
SciTegic.value.DoubleValue
5.961

@<SCITEGIC>MOL_PROPERTY
Valence
SciTegic.value.DoubleValue
153.146

@<SCITEGIC>MOL_PROPERTY
Coulomb
SciTegic.value.DoubleValue
131.224

@<SCITEGIC>MOL_PROPERTY
VdW
SciTegic.value.DoubleValue
-20.199

@<SCITEGIC>MOL_PROPERTY
VdW6
SciTegic.value.DoubleValue
-172.416

@<SCITEGIC>MOL_PROPERTY
VdW12
SciTegic.value.DoubleValue
152.217

@<SCITEGIC>MOL_PROPERTY
Bond
SciTegic.value.DoubleValue
4.965

@<SCITEGIC>MOL_PROPERTY
Angle
SciTegic.value.DoubleValue
15.210

@<SCITEGIC>MOL_PROPERTY
Pdih
SciTegic.value.DoubleValue
132.910

@<SCITEGIC>MOL_PROPERTY
Idih
SciTegic.value.DoubleValue
0.061

@<SCITEGIC>MOL_PROPERTY
Tether
SciTegic.value.DoubleValue
0.000

@<TRIPOS>MOLECULE
CD_guest-6_fast_vm2_rndm.mol2 : feprocess host+ligand conformer 44
         139         144           2
SMALL
USER_CHARGES
 
@<TRIPOS>ATOM
       1    C1      16.383840   15.359107   20.894770 C.3        1 MOL1         0.2972
       2    H1      15.331932   15.293627   20.587457 H          1 MOL1         0.0751
       3    O1      16.710289   16.682413   21.369831 O.3        1 MOL1        -0.3740
       4    C2      16.650822   14.334413   22.024517 C.3        1 MOL1         0.1003
       5    H2      16.401822   13.340321   21.630992 H          1 MOL1         0.0783
       6    O2      15.822612   14.612014   23.165121 O.3        1 MOL1        -0.5519
       7    H3      15.452494   15.520464   23.035281 H          1 MOL1         0.3769
       8    C3      18.142303   14.326776   22.426706 C.3        1 MOL1         0.1053
       9    H4      18.365406   15.290798   22.903553 H          1 MOL1         0.0783
      10    O3      18.383442   13.262110   23.353582 O.3        1 MOL1        -0.5519
      11    H5      17.660192   13.335513   24.015419 H          1 MOL1         0.3769
      12    C4      19.062518   14.169616   21.190438 C.3        1 MOL1         0.1018
      13    H6      18.992974   13.135467   20.828601 H          1 MOL1         0.0783
      14    C5      18.676849   15.165221   20.056990 C.3        1 MOL1         0.1043
      15    H7      18.901049   16.177280   20.413558 H          1 MOL1         0.0783
      16    O4      17.256151   15.060678   19.783655 O.3        1 MOL1        -0.3740
      17    C6      19.435343   14.982564   18.717310 C.3        1 MOL1         0.0138
      18    H8      20.348982   15.587704   18.746812 H          1 MOL1         0.0794
      19    H9      18.816681   15.389518   17.906227 H          1 MOL1         0.0794
      20    O5      19.770736   13.619579   18.438296 O.3        1 MOL1        -0.5486
      21    H10     20.627741   13.444559   18.888814 H          1 MOL1         0.3769
      22    C7      14.877835   20.500184   21.068301 C.3        1 MOL1         0.2972
      23    H11     14.197480   21.273381   20.689073 H          1 MOL1         0.0751
      24    O6      15.772630   21.044751   22.055447 O.3        1 MOL1        -0.3740
      25    C8      14.055626   19.364394   21.739414 C.3        1 MOL1         0.1003
      26    H12     13.315661   19.019832   21.005309 H          1 MOL1         0.0783
      27    O7      13.374612   19.863160   22.900024 O.3        1 MOL1        -0.5519
      28    H13     14.039658   20.396143   23.393785 H          1 MOL1         0.3769
      29    C9      14.940851   18.152725   22.126896 C.3        1 MOL1         0.1053
      30    H14     15.610213   18.457272   22.943498 H          1 MOL1         0.0783
      31    O8      14.107059   17.069722   22.553955 O.3        1 MOL1        -0.5519
      32    H15     13.457455   17.472948   23.172230 H          1 MOL1         0.3769
      33    C10     15.809891   17.716635   20.926133 C.3        1 MOL1         0.1018
      34    H16     15.150402   17.360358   20.123179 H          1 MOL1         0.0783
      35    C11     16.625030   18.918196   20.387641 C.3        1 MOL1         0.1043
      36    H17     17.273580   19.298627   21.188095 H          1 MOL1         0.0783
      37    O9      15.677731   19.941162   19.998253 O.3        1 MOL1        -0.3740
      38    C12     17.527013   18.590269   19.170430 C.3        1 MOL1         0.0138
      39    H18     18.481532   18.195884   19.540894 H          1 MOL1         0.0794
      40    H19     17.752158   19.524447   18.640036 H          1 MOL1         0.0794
      41    O10     16.933154   17.647749   18.269550 O.3        1 MOL1        -0.5486
      42    H20     16.923308   16.773164   18.723530 H          1 MOL1         0.3769
      43    C13     18.470895   24.169639   21.994424 C.3        1 MOL1         0.2972
      44    H21     19.010462   25.125617   22.006135 H          1 MOL1         0.0751
      45    O11     19.383974   23.065803   21.819808 O.3        1 MOL1        -0.3740
      46    C14     17.647374   24.034347   23.297303 C.3        1 MOL1         0.1003
      47    H22     16.910288   24.847753   23.286126 H          1 MOL1         0.0783
      48    O12     18.467416   24.184394   24.465645 O.3        1 MOL1        -0.5519
      49    H23     18.987624   23.342266   24.578497 H          1 MOL1         0.3769
      50    C15     16.867997   22.703557   23.329693 C.3        1 MOL1         0.1053
      51    H24     17.599029   21.889922   23.409154 H          1 MOL1         0.0783
      52    O13     16.010039   22.691051   24.476294 O.3        1 MOL1        -0.5519
      53    H25     16.598427   22.891529   25.237576 H          1 MOL1         0.3769
      54    C16     16.031603   22.472395   22.042599 C.3        1 MOL1         0.1018
      55    H26     15.095176   23.036955   22.135731 H          1 MOL1         0.0783
      56    C17     16.779901   22.897513   20.731598 C.3        1 MOL1         0.1043
      57    H27     17.475224   22.088679   20.488500 H          1 MOL1         0.0783
      58    O14     17.529769   24.131204   20.906235 O.3        1 MOL1        -0.3740
      59    C18     15.868773   23.139898   19.497604 C.3        1 MOL1         0.0138
      60    H28     15.575393   22.181997   19.055114 H          1 MOL1         0.0794
      61    H29     16.454064   23.664778   18.730709 H          1 MOL1         0.0794
      62    O15     14.702555   23.903672   19.826701 O.3        1 MOL1        -0.5486
      63    H30     14.229888   24.102947   18.989058 H          1 MOL1         0.3769
      64    C19     23.200989   22.289663   20.301152 C.3        1 MOL1         0.2972
      65    H31     24.144722   22.301971   19.741338 H          1 MOL1         0.0751
      66    O16     23.040956   21.063753   21.038935 O.3        1 MOL1        -0.3740
      67    C20     23.118203   23.493138   21.275923 C.3        1 MOL1         0.1003
      68    H32     23.197518   24.401673   20.664898 H          1 MOL1         0.0783
      69    O17     24.196896   23.477987   22.224471 O.3        1 MOL1        -0.5519
      70    H33     24.139299   22.622779   22.720699 H          1 MOL1         0.3769
      71    C21     21.753570   23.539090   22.009343 C.3        1 MOL1         0.1053
      72    H34     21.724447   22.710606   22.727541 H          1 MOL1         0.0783
      73    O18     21.651577   24.788935   22.699018 O.3        1 MOL1        -0.5519
      74    H35     22.460556   24.848380   23.252195 H          1 MOL1         0.3769
      75    C22     20.556763   23.380951   21.031551 C.3        1 MOL1         0.1018
      76    H36     20.437355   24.330057   20.492825 H          1 MOL1         0.0783
      77    C23     20.774884   22.246832   19.986993 C.3        1 MOL1         0.1043
      78    H37     20.712190   21.279741   20.500775 H          1 MOL1         0.0783
      79    O19     22.086892   22.395258   19.392029 O.3        1 MOL1        -0.3740
      80    C24     19.742524   22.208969   18.830281 C.3        1 MOL1         0.0138
      81    H38     18.916850   21.549702   19.118584 H          1 MOL1         0.0794
      82    H39     20.216503   21.742486   17.956244 H          1 MOL1         0.0794
      83    O20     19.237775   23.502581   18.475593 O.3        1 MOL1        -0.5486
      84    H40     18.718722   23.838916   19.242847 H          1 MOL1         0.3769
      85    C25     24.980226   17.584285   22.104880 C.3        1 MOL1         0.2972
      86    H41     25.698293   16.797168   22.369163 H          1 MOL1         0.0751
      87    O21     23.641291   17.058714   22.008861 O.3        1 MOL1        -0.3740
      88    C26     24.992455   18.685551   23.194136 C.3        1 MOL1         0.1003
      89    H42     26.007023   19.101416   23.240802 H          1 MOL1         0.0783
      90    O22     24.658702   18.099034   24.461556 O.3        1 MOL1        -0.5519
      91    H43     23.973491   17.417393   24.276769 H          1 MOL1         0.3769
      92    C27     24.020112   19.836706   22.832502 C.3        1 MOL1         0.1053
      93    H44     22.998110   19.445081   22.903940 H          1 MOL1         0.0783
      94    O23     24.183604   20.941448   23.731755 O.3        1 MOL1        -0.5519
      95    H45     23.371893   20.953091   24.310109 H          1 MOL1         0.3769
      96    C28     24.239143   20.342177   21.385097 C.3        1 MOL1         0.1018
      97    H46     25.129345   20.985039   21.366635 H          1 MOL1         0.0783
      98    C29     24.389397   19.188034   20.355629 C.3        1 MOL1         0.1043
      99    H47     23.398584   18.734073   20.234402 H          1 MOL1         0.0783
     100    O24     25.318817   18.184298   20.838138 O.3        1 MOL1        -0.3740
     101    C30     24.858655   19.650588   18.955099 C.3        1 MOL1         0.0138
     102    H48     24.036301   20.196067   18.472897 H          1 MOL1         0.0794
     103    H49     25.062425   18.762538   18.341781 H          1 MOL1         0.0794
     104    O25     26.021688   20.484374   19.024133 O.3        1 MOL1        -0.5486
     105    H50     26.316584   20.662403   18.104470 H          1 MOL1         0.3769
     106    C31     21.458824   13.601399   21.330459 C.3        1 MOL1         0.2972
     107    H51     21.094956   12.594745   21.088427 H          1 MOL1         0.0751
     108    O26     20.380570   14.491726   21.666693 O.3        1 MOL1        -0.3740
     109    C32     22.391196   13.549090   22.564021 C.3        1 MOL1         0.1003
     110    H52     23.245686   12.907364   22.312836 H          1 MOL1         0.0783
     111    O27     21.687688   12.996361   23.688100 O.3        1 MOL1        -0.5519
     112    H53     20.759322   13.329547   23.628039 H          1 MOL1         0.3769
     113    C33     22.927925   14.960524   22.907166 C.3        1 MOL1         0.1053
     114    H54     22.085689   15.567855   23.264833 H          1 MOL1         0.0783
     115    O28     23.913621   14.855913   23.938919 O.3        1 MOL1        -0.5519
     116    H55     23.512724   14.271224   24.619427 H          1 MOL1         0.3769
     117    C34     23.532915   15.662837   21.664936 C.3        1 MOL1         0.1018
     118    H56     24.510430   15.210430   21.452831 H          1 MOL1         0.0783
     119    C35     22.623452   15.544055   20.406022 C.3        1 MOL1         0.1043
     120    H57     21.737998   16.170425   20.570551 H          1 MOL1         0.0783
     121    O29     22.202461   14.166539   20.230403 O.3        1 MOL1        -0.3740
     122    C36     23.270539   16.019934   19.077831 C.3        1 MOL1         0.0138
     123    H58     23.016394   17.074590   18.921017 H          1 MOL1         0.0794
     124    H59     22.813525   15.464076   18.248223 H          1 MOL1         0.0794
     125    O30     24.693053   15.856348   19.044211 O.3        1 MOL1        -0.5486
     126    H60     25.079440   16.550505   19.628304 H          1 MOL1         0.3769
     127    C1      20.522234   21.100875   24.564267 C.2        1 MOL1         0.6021
     128    O1      19.597893   21.716754   25.056909 O.co2      1 MOL1        -0.6904
     129    O2      21.678749   21.202988   24.925598 O.co2      1 MOL1        -0.6904
     130    C2      20.228643   20.203812   23.367945 C.3        1 MOL1        -0.2102
     131    H1      20.959546   20.442080   22.591447 H          1 MOL1         0.0687
     132    H2      19.241808   20.457494   22.967118 H          1 MOL1         0.0687
     133    C3      20.289792   18.698038   23.703268 C.3        1 MOL1        -0.1974
     134    H3      21.260528   18.458087   24.158432 H          1 MOL1         0.0689
     135    H4      19.519093   18.453703   24.447015 H          1 MOL1         0.0689
     136    C4      20.086954   17.844851   22.440664 C.3        1 MOL1        -0.2987
     137    H5      20.851949   18.070720   21.687171 H          1 MOL1         0.0700
     138    H6      20.157418   16.784366   22.696859 H          1 MOL1         0.0700
     139    H7      19.098908   18.025382   22.002995 H          1 MOL1         0.0700
@<TRIPOS>BOND
    1     1     2    1
    2     1     3    1
    3     1     4    1
    4     4     5    1
    5     4     6    1
    6     6     7    1
    7     4     8    1
    8     8     9    1
    9     8    10    1
   10    10    11    1
   11     8    12    1
   12    12    13    1
   13    12    14    1
   14    14    15    1
   15     1    16    1
   16    14    16    1
   17    14    17    1
   18    17    18    1
   19    17    19    1
   20    17    20    1
   21    20    21    1
   22    22    23    1
   23    22    24    1
   24    22    25    1
   25    25    26    1
   26    25    27    1
   27    27    28    1
   28    25    29    1
   29    29    30    1
   30    29    31    1
   31    31    32    1
   32     3    33    1
   33    29    33    1
   34    33    34    1
   35    33    35    1
   36    35    36    1
   37    22    37    1
   38    35    37    1
   39    35    38    1
   40    38    39    1
   41    38    40    1
   42    38    41    1
   43    41    42    1
   44    43    44    1
   45    43    45    1
   46    43    46    1
   47    46    47    1
   48    46    48    1
   49    48    49    1
   50    46    50    1
   51    50    51    1
   52    50    52    1
   53    52    53    1
   54    24    54    1
   55    50    54    1
   56    54    55    1
   57    54    56    1
   58    56    57    1
   59    43    58    1
   60    56    58    1
   61    56    59    1
   62    59    60    1
   63    59    61    1
   64    59    62    1
   65    62    63    1
   66    64    65    1
   67    64    66    1
   68    64    67    1
   69    67    68    1
   70    67    69    1
   71    69    70    1
   72    67    71    1
   73    71    72    1
   74    71    73    1
   75    73    74    1
   76    45    75    1
   77    71    75    1
   78    75    76    1
   79    75    77    1
   80    77    78    1
   81    64    79    1
   82    77    79    1
   83    77    80    1
   84    80    81    1
   85    80    82    1
   86    80    83    1
   87    83    84    1
   88    85    86    1
   89    85    87    1
   90    85    88    1
   91    88    89    1
   92    88    90    1
   93    90    91    1
   94    88    92    1
   95    92    93    1
   96    92    94    1
   97    94    95    1
   98    66    96    1
   99    92    96    1
  100    96    97    1
  101    96    98    1
  102    98    99    1
  103    85   100    1
  104    98   100    1
  105    98   101    1
  106   101   102    1
  107   101   103    1
  108   101   104    1
  109   104   105    1
  110   106   107    1
  111    12   108    1
  112   106   108    1
  113   106   109    1
  114   109   110    1
  115   109   111    1
  116   111   112    1
  117   109   113    1
  118   113   114    1
  119   113   115    1
  120   115   116    1
  121    87   117    1
  122   113   117    1
  123   117   118    1
  124   117   119    1
  125   119   120    1
  126   106   121    1
  127   119   121    1
  128   119   122    1
  129   122   123    1
  130   122   124    1
  131   122   125    1
  132   125   126    1
  133   127   128    1
  134   127   129    2
  135   127   130    1
  136   130   131    1
  137   130   132    1
  138   130   133    1
  139   133   134    1
  140   133   135    1
  141   133   136    1
  142   136   137    1
  143   136   138    1
  144   136   139    1
@<TRIPOS>SUBSTRUCTURE
       1 MOL1            1 RESIDUE      1      MOL     
       2 MOL1          139 RESIDUE      1      MOL     
@<SCITEGIC>MOL_PROPERTY
feprocess Rank
SciTegic.value.IntegerValue
44

@<SCITEGIC>MOL_PROPERTY
Conf_Id
SciTegic.value.IntegerValue
597

@<SCITEGIC>MOL_PROPERTY
Probability
SciTegic.value.DoubleValue
0.00

@<SCITEGIC>MOL_PROPERTY
G
SciTegic.value.DoubleValue
488.320

@<SCITEGIC>MOL_PROPERTY
E
SciTegic.value.DoubleValue
311.847

@<SCITEGIC>MOL_PROPERTY
-TS
SciTegic.value.DoubleValue
176.474

@<SCITEGIC>MOL_PROPERTY
U+W
SciTegic.value.DoubleValue
189.335

@<SCITEGIC>MOL_PROPERTY
U
SciTegic.value.DoubleValue
269.802

@<SCITEGIC>MOL_PROPERTY
W
SciTegic.value.DoubleValue
-80.467

@<SCITEGIC>MOL_PROPERTY
W(PB)
SciTegic.value.DoubleValue
-86.356

@<SCITEGIC>MOL_PROPERTY
W(SA)
SciTegic.value.DoubleValue
5.889

@<SCITEGIC>MOL_PROPERTY
Valence
SciTegic.value.DoubleValue
153.370

@<SCITEGIC>MOL_PROPERTY
Coulomb
SciTegic.value.DoubleValue
138.861

@<SCITEGIC>MOL_PROPERTY
VdW
SciTegic.value.DoubleValue
-22.428

@<SCITEGIC>MOL_PROPERTY
VdW6
SciTegic.value.DoubleValue
-175.499

@<SCITEGIC>MOL_PROPERTY
VdW12
SciTegic.value.DoubleValue
153.070

@<SCITEGIC>MOL_PROPERTY
Bond
SciTegic.value.DoubleValue
5.148

@<SCITEGIC>MOL_PROPERTY
Angle
SciTegic.value.DoubleValue
15.048

@<SCITEGIC>MOL_PROPERTY
Pdih
SciTegic.value.DoubleValue
133.166

@<SCITEGIC>MOL_PROPERTY
Idih
SciTegic.value.DoubleValue
0.009

@<SCITEGIC>MOL_PROPERTY
Tether
SciTegic.value.DoubleValue
0.000

@<TRIPOS>MOLECULE
CD_guest-6_fast_vm2_rndm.mol2 : feprocess host+ligand conformer 45
         139         144           2
SMALL
USER_CHARGES
 
@<TRIPOS>ATOM
       1    C1      16.357254   15.381140   20.037335 C.3        1 MOL1         0.2972
       2    H1      15.345544   15.285890   19.623276 H          1 MOL1         0.0751
       3    O1      16.589939   16.718674   20.526547 O.3        1 MOL1        -0.3740
       4    C2      16.599895   14.328313   21.153533 C.3        1 MOL1         0.1003
       5    H2      16.463554   13.345625   20.683568 H          1 MOL1         0.0783
       6    O2      15.657668   14.449459   22.230677 O.3        1 MOL1        -0.5519
       7    H3      15.848425   15.313740   22.675183 H          1 MOL1         0.3769
       8    C3      18.049619   14.380126   21.700052 C.3        1 MOL1         0.1053
       9    H4      18.165006   15.301513   22.284687 H          1 MOL1         0.0783
      10    O3      18.234661   13.231597   22.535211 O.3        1 MOL1        -0.5519
      11    H5      17.508668   13.269969   23.194679 H          1 MOL1         0.3769
      12    C4      19.115075   14.397497   20.565903 C.3        1 MOL1         0.1018
      13    H6      19.247079   13.377097   20.185630 H          1 MOL1         0.0783
      14    C5      18.717079   15.336000   19.393557 C.3        1 MOL1         0.1043
      15    H7      18.834956   16.368840   19.739642 H          1 MOL1         0.0783
      16    O4      17.335860   15.118633   19.008561 O.3        1 MOL1        -0.3740
      17    C6      19.617229   15.185612   18.142690 C.3        1 MOL1         0.0138
      18    H8      20.601930   15.615909   18.369969 H          1 MOL1         0.0794
      19    H9      19.184091   15.782969   17.329594 H          1 MOL1         0.0794
      20    O5      19.767847   13.822448   17.726428 O.3        1 MOL1        -0.5486
      21    H10     20.342128   13.375741   18.384650 H          1 MOL1         0.3769
      22    C7      14.787543   20.153781   21.998491 C.3        1 MOL1         0.2972
      23    H11     14.116400   20.915564   22.415471 H          1 MOL1         0.0751
      24    O6      15.993130   20.741652   21.465835 O.3        1 MOL1        -0.3740
      25    C8      15.162710   19.102996   23.079469 C.3        1 MOL1         0.1003
      26    H12     14.235438   18.606636   23.392808 H          1 MOL1         0.0783
      27    O7      15.766580   19.731108   24.222127 O.3        1 MOL1        -0.5519
      28    H13     15.695322   20.706610   24.096115 H          1 MOL1         0.3769
      29    C9      16.099245   18.028201   22.473863 C.3        1 MOL1         0.1053
      30    H14     17.028817   18.533681   22.195632 H          1 MOL1         0.0783
      31    O8      16.393219   16.996221   23.422360 O.3        1 MOL1        -0.5519
      32    H15     17.374078   17.084548   23.570928 H          1 MOL1         0.3769
      33    C10     15.502885   17.403384   21.187727 C.3        1 MOL1         0.1018
      34    H16     14.691460   16.720184   21.468566 H          1 MOL1         0.0783
      35    C11     14.962401   18.483249   20.207903 C.3        1 MOL1         0.1043
      36    H17     15.824575   19.000861   19.767063 H          1 MOL1         0.0783
      37    O9      14.139458   19.446817   20.918593 O.3        1 MOL1        -0.3740
      38    C12     14.134184   17.899034   19.038585 C.3        1 MOL1         0.0138
      39    H18     14.817003   17.372498   18.358197 H          1 MOL1         0.0794
      40    H19     13.689887   18.730482   18.475180 H          1 MOL1         0.0794
      41    O10     13.112540   17.001845   19.491865 O.3        1 MOL1        -0.5486
      42    H20     12.580749   16.736136   18.710080 H          1 MOL1         0.3769
      43    C13     18.342131   24.122995   21.611575 C.3        1 MOL1         0.2972
      44    H21     18.770787   25.133164   21.590717 H          1 MOL1         0.0751
      45    O11     19.366717   23.114466   21.736000 O.3        1 MOL1        -0.3740
      46    C14     17.383527   23.992610   22.817394 C.3        1 MOL1         0.1003
      47    H22     16.587907   24.737661   22.686183 H          1 MOL1         0.0783
      48    O12     18.086184   24.259062   24.041335 O.3        1 MOL1        -0.5519
      49    H23     19.026361   23.992164   23.892083 H          1 MOL1         0.3769
      50    C15     16.723670   22.593688   22.866725 C.3        1 MOL1         0.1053
      51    H24     17.502096   21.868595   23.135636 H          1 MOL1         0.0783
      52    O13     15.705733   22.606670   23.872443 O.3        1 MOL1        -0.5519
      53    H25     16.104101   23.095585   24.628538 H          1 MOL1         0.3769
      54    C16     16.121272   22.178106   21.495154 C.3        1 MOL1         0.1018
      55    H26     15.152611   22.674226   21.355674 H          1 MOL1         0.0783
      56    C17     17.053383   22.521420   20.300518 C.3        1 MOL1         0.1043
      57    H27     17.887908   21.813956   20.328826 H          1 MOL1         0.0783
      58    O14     17.581579   23.865674   20.414472 O.3        1 MOL1        -0.3740
      59    C18     16.378177   22.364086   18.915986 C.3        1 MOL1         0.0138
      60    H28     16.218001   21.294558   18.724009 H          1 MOL1         0.0794
      61    H29     17.070722   22.730836   18.146764 H          1 MOL1         0.0794
      62    O15     15.131853   23.064727   18.826538 O.3        1 MOL1        -0.5486
      63    H30     14.466784   22.552370   19.334133 H          1 MOL1         0.3769
      64    C19     23.471632   22.611703   20.955479 C.3        1 MOL1         0.2972
      65    H31     24.499882   22.807105   20.624879 H          1 MOL1         0.0751
      66    O16     23.299737   21.240208   21.365356 O.3        1 MOL1        -0.3740
      67    C20     23.100680   23.526033   22.154114 C.3        1 MOL1         0.1003
      68    H32     23.236218   24.564147   21.824048 H          1 MOL1         0.0783
      69    O17     23.957978   23.278825   23.280207 O.3        1 MOL1        -0.5519
      70    H33     24.016354   22.296484   23.399676 H          1 MOL1         0.3769
      71    C21     21.614068   23.348435   22.554347 C.3        1 MOL1         0.1053
      72    H34     21.483540   22.334154   22.956632 H          1 MOL1         0.0783
      73    O18     21.266828   24.316717   23.550885 O.3        1 MOL1        -0.5519
      74    H35     22.002775   24.288160   24.202082 H          1 MOL1         0.3769
      75    C22     20.690570   23.508402   21.321879 C.3        1 MOL1         0.1018
      76    H36     20.723386   24.557268   20.998803 H          1 MOL1         0.0783
      77    C23     21.156670   22.602975   20.147994 C.3        1 MOL1         0.1043
      78    H37     21.051570   21.557016   20.453331 H          1 MOL1         0.0783
      79    O19     22.550732   22.882775   19.875896 O.3        1 MOL1        -0.3740
      80    C24     20.366346   22.772091   18.825449 C.3        1 MOL1         0.0138
      81    H38     19.502457   22.097482   18.845032 H          1 MOL1         0.0794
      82    H39     21.004104   22.439951   17.995484 H          1 MOL1         0.0794
      83    O20     19.925588   24.115617   18.597089 O.3        1 MOL1        -0.5486
      84    H40     19.114895   24.246908   19.142168 H          1 MOL1         0.3769
      85    C25     25.245502   17.589277   21.430721 C.3        1 MOL1         0.2972
      86    H41     25.941134   16.740631   21.407451 H          1 MOL1         0.0751
      87    O21     23.872819   17.148549   21.325036 O.3        1 MOL1        -0.3740
      88    C26     25.449204   18.452869   22.704412 C.3        1 MOL1         0.1003
      89    H42     26.445637   18.906424   22.621502 H          1 MOL1         0.0783
      90    O22     25.415211   17.673408   23.907618 O.3        1 MOL1        -0.5519
      91    H43     24.496465   17.314739   23.989926 H          1 MOL1         0.3769
      92    C27     24.415707   19.607161   22.735744 C.3        1 MOL1         0.1053
      93    H44     23.405395   19.179686   22.811953 H          1 MOL1         0.0783
      94    O23     24.676498   20.451304   23.862817 O.3        1 MOL1        -0.5519
      95    H45     24.773479   19.838666   24.625112 H          1 MOL1         0.3769
      96    C28     24.501578   20.443840   21.433724 C.3        1 MOL1         0.1018
      97    H46     25.399917   21.071649   21.501371 H          1 MOL1         0.0783
      98    C29     24.571815   19.567448   20.146495 C.3        1 MOL1         0.1043
      99    H47     23.576404   19.149543   19.962578 H          1 MOL1         0.0783
     100    O24     25.506877   18.470051   20.316975 O.3        1 MOL1        -0.3740
     101    C30     24.974236   20.359491   18.879371 C.3        1 MOL1         0.0138
     102    H48     24.137817   21.012543   18.596140 H          1 MOL1         0.0794
     103    H49     25.124456   19.648615   18.055874 H          1 MOL1         0.0794
     104    O25     26.156956   21.143482   19.083120 O.3        1 MOL1        -0.5486
     105    H50     26.388448   21.560789   18.224740 H          1 MOL1         0.3769
     106    C31     21.166041   14.075664   21.917691 C.3        1 MOL1         0.2972
     107    H51     20.646585   13.143574   22.169086 H          1 MOL1         0.0751
     108    O26     20.361599   14.927764   21.072869 O.3        1 MOL1        -0.3740
     109    C32     21.549541   14.843695   23.209294 C.3        1 MOL1         0.1003
     110    H52     22.229889   14.196321   23.776785 H          1 MOL1         0.0783
     111    O27     20.397098   15.120308   24.020715 O.3        1 MOL1        -0.5519
     112    H53     19.963996   15.938394   23.653645 H          1 MOL1         0.3769
     113    C33     22.312855   16.143838   22.862155 C.3        1 MOL1         0.1053
     114    H54     21.622440   16.801259   22.325820 H          1 MOL1         0.0783
     115    O28     22.746108   16.786641   24.063999 O.3        1 MOL1        -0.5519
     116    H55     21.993746   17.394594   24.305764 H          1 MOL1         0.3769
     117    C34     23.517188   15.881230   21.922167 C.3        1 MOL1         0.1018
     118    H56     24.341536   15.452827   22.507209 H          1 MOL1         0.0783
     119    C35     23.145687   14.934227   20.744746 C.3        1 MOL1         0.1043
     120    H57     22.520024   15.500153   20.041857 H          1 MOL1         0.0783
     121    O29     22.396198   13.784737   21.217428 O.3        1 MOL1        -0.3740
     122    C36     24.377616   14.429955   19.955801 C.3        1 MOL1         0.0138
     123    H58     24.802443   15.275868   19.398453 H          1 MOL1         0.0794
     124    H59     24.042040   13.688367   19.218565 H          1 MOL1         0.0794
     125    O30     25.376588   13.863991   20.813957 O.3        1 MOL1        -0.5486
     126    H60     26.091000   13.505458   20.243172 H          1 MOL1         0.3769
     127    C1      19.837120   18.496694   23.169037 C.2        1 MOL1         0.6021
     128    O1      19.160913   17.484041   23.138822 O.co2      1 MOL1        -0.6904
     129    O2      20.721893   18.672870   23.984036 O.co2      1 MOL1        -0.6904
     130    C2      19.595691   19.598569   22.135340 C.3        1 MOL1        -0.2102
     131    H1      20.436600   20.297716   22.186779 H          1 MOL1         0.0687
     132    H2      18.712529   20.147276   22.472802 H          1 MOL1         0.0687
     133    C3      19.374630   19.135251   20.668235 C.3        1 MOL1        -0.1974
     134    H3      18.604512   18.358604   20.640730 H          1 MOL1         0.0689
     135    H4      18.983760   19.972937   20.082274 H          1 MOL1         0.0689
     136    C4      20.653178   18.621887   19.980388 C.3        1 MOL1        -0.2987
     137    H5      21.034947   17.724175   20.477147 H          1 MOL1         0.0700
     138    H6      20.451851   18.366347   18.932676 H          1 MOL1         0.0700
     139    H7      21.434802   19.387182   19.999291 H          1 MOL1         0.0700
@<TRIPOS>BOND
    1     1     2    1
    2     1     3    1
    3     1     4    1
    4     4     5    1
    5     4     6    1
    6     6     7    1
    7     4     8    1
    8     8     9    1
    9     8    10    1
   10    10    11    1
   11     8    12    1
   12    12    13    1
   13    12    14    1
   14    14    15    1
   15     1    16    1
   16    14    16    1
   17    14    17    1
   18    17    18    1
   19    17    19    1
   20    17    20    1
   21    20    21    1
   22    22    23    1
   23    22    24    1
   24    22    25    1
   25    25    26    1
   26    25    27    1
   27    27    28    1
   28    25    29    1
   29    29    30    1
   30    29    31    1
   31    31    32    1
   32     3    33    1
   33    29    33    1
   34    33    34    1
   35    33    35    1
   36    35    36    1
   37    22    37    1
   38    35    37    1
   39    35    38    1
   40    38    39    1
   41    38    40    1
   42    38    41    1
   43    41    42    1
   44    43    44    1
   45    43    45    1
   46    43    46    1
   47    46    47    1
   48    46    48    1
   49    48    49    1
   50    46    50    1
   51    50    51    1
   52    50    52    1
   53    52    53    1
   54    24    54    1
   55    50    54    1
   56    54    55    1
   57    54    56    1
   58    56    57    1
   59    43    58    1
   60    56    58    1
   61    56    59    1
   62    59    60    1
   63    59    61    1
   64    59    62    1
   65    62    63    1
   66    64    65    1
   67    64    66    1
   68    64    67    1
   69    67    68    1
   70    67    69    1
   71    69    70    1
   72    67    71    1
   73    71    72    1
   74    71    73    1
   75    73    74    1
   76    45    75    1
   77    71    75    1
   78    75    76    1
   79    75    77    1
   80    77    78    1
   81    64    79    1
   82    77    79    1
   83    77    80    1
   84    80    81    1
   85    80    82    1
   86    80    83    1
   87    83    84    1
   88    85    86    1
   89    85    87    1
   90    85    88    1
   91    88    89    1
   92    88    90    1
   93    90    91    1
   94    88    92    1
   95    92    93    1
   96    92    94    1
   97    94    95    1
   98    66    96    1
   99    92    96    1
  100    96    97    1
  101    96    98    1
  102    98    99    1
  103    85   100    1
  104    98   100    1
  105    98   101    1
  106   101   102    1
  107   101   103    1
  108   101   104    1
  109   104   105    1
  110   106   107    1
  111    12   108    1
  112   106   108    1
  113   106   109    1
  114   109   110    1
  115   109   111    1
  116   111   112    1
  117   109   113    1
  118   113   114    1
  119   113   115    1
  120   115   116    1
  121    87   117    1
  122   113   117    1
  123   117   118    1
  124   117   119    1
  125   119   120    1
  126   106   121    1
  127   119   121    1
  128   119   122    1
  129   122   123    1
  130   122   124    1
  131   122   125    1
  132   125   126    1
  133   127   128    1
  134   127   129    2
  135   127   130    1
  136   130   131    1
  137   130   132    1
  138   130   133    1
  139   133   134    1
  140   133   135    1
  141   133   136    1
  142   136   137    1
  143   136   138    1
  144   136   139    1
@<TRIPOS>SUBSTRUCTURE
       1 MOL1            1 RESIDUE      1      MOL     
       2 MOL1          139 RESIDUE      1      MOL     
@<SCITEGIC>MOL_PROPERTY
feprocess Rank
SciTegic.value.IntegerValue
45

@<SCITEGIC>MOL_PROPERTY
Conf_Id
SciTegic.value.IntegerValue
79

@<SCITEGIC>MOL_PROPERTY
Probability
SciTegic.value.DoubleValue
0.00

@<SCITEGIC>MOL_PROPERTY
G
SciTegic.value.DoubleValue
488.462

@<SCITEGIC>MOL_PROPERTY
E
SciTegic.value.DoubleValue
310.183

@<SCITEGIC>MOL_PROPERTY
-TS
SciTegic.value.DoubleValue
178.279

@<SCITEGIC>MOL_PROPERTY
U+W
SciTegic.value.DoubleValue
187.671

@<SCITEGIC>MOL_PROPERTY
U
SciTegic.value.DoubleValue
263.564

@<SCITEGIC>MOL_PROPERTY
W
SciTegic.value.DoubleValue
-75.892

@<SCITEGIC>MOL_PROPERTY
W(PB)
SciTegic.value.DoubleValue
-81.935

@<SCITEGIC>MOL_PROPERTY
W(SA)
SciTegic.value.DoubleValue
6.043

@<SCITEGIC>MOL_PROPERTY
Valence
SciTegic.value.DoubleValue
153.399

@<SCITEGIC>MOL_PROPERTY
Coulomb
SciTegic.value.DoubleValue
130.447

@<SCITEGIC>MOL_PROPERTY
VdW
SciTegic.value.DoubleValue
-20.282

@<SCITEGIC>MOL_PROPERTY
VdW6
SciTegic.value.DoubleValue
-179.697

@<SCITEGIC>MOL_PROPERTY
VdW12
SciTegic.value.DoubleValue
159.415

@<SCITEGIC>MOL_PROPERTY
Bond
SciTegic.value.DoubleValue
5.470

@<SCITEGIC>MOL_PROPERTY
Angle
SciTegic.value.DoubleValue
16.239

@<SCITEGIC>MOL_PROPERTY
Pdih
SciTegic.value.DoubleValue
131.688

@<SCITEGIC>MOL_PROPERTY
Idih
SciTegic.value.DoubleValue
0.001

@<SCITEGIC>MOL_PROPERTY
Tether
SciTegic.value.DoubleValue
0.000

@<TRIPOS>MOLECULE
CD_guest-6_fast_vm2_rndm.mol2 : feprocess host+ligand conformer 46
         139         144           2
SMALL
USER_CHARGES
 
@<TRIPOS>ATOM
       1    C1      16.261855   15.147582   21.559978 C.3        1 MOL1         0.2972
       2    H1      15.169722   15.040289   21.530489 H          1 MOL1         0.0751
       3    O1      16.662183   16.527099   21.467535 O.3        1 MOL1        -0.3740
       4    C2      16.808497   14.579700   22.889391 C.3        1 MOL1         0.1003
       5    H2      16.549625   13.513364   22.922593 H          1 MOL1         0.0783
       6    O2      16.205360   15.247233   24.009729 O.3        1 MOL1        -0.5519
       7    H3      15.817812   16.089385   23.665229 H          1 MOL1         0.3769
       8    C3      18.349246   14.699373   22.949180 C.3        1 MOL1         0.1053
       9    H4      18.611364   15.765701   23.005909 H          1 MOL1         0.0783
      10    O3      18.807325   14.024577   24.121646 O.3        1 MOL1        -0.5519
      11    H5      18.206464   14.330360   24.837909 H          1 MOL1         0.3769
      12    C4      19.016582   14.098542   21.683014 C.3        1 MOL1         0.1018
      13    H6      18.998602   13.003307   21.746928 H          1 MOL1         0.0783
      14    C5      18.320006   14.559485   20.371112 C.3        1 MOL1         0.1043
      15    H7      18.568784   15.615738   20.219451 H          1 MOL1         0.0783
      16    O4      16.878583   14.426536   20.472104 O.3        1 MOL1        -0.3740
      17    C6      18.803974   13.804072   19.109261 C.3        1 MOL1         0.0138
      18    H8      19.832970   14.117125   18.886257 H          1 MOL1         0.0794
      19    H9      18.180615   14.111928   18.259186 H          1 MOL1         0.0794
      20    O5      18.753869   12.380808   19.264352 O.3        1 MOL1        -0.5486
      21    H10     19.535265   12.113467   19.793526 H          1 MOL1         0.3769
      22    C7      15.028904   20.253355   20.483491 C.3        1 MOL1         0.2972
      23    H11     14.392401   21.042373   20.062700 H          1 MOL1         0.0751
      24    O6      16.203628   20.794210   21.117710 O.3        1 MOL1        -0.3740
      25    C8      14.261412   19.445577   21.563264 C.3        1 MOL1         0.1003
      26    H12     13.372801   19.015439   21.083345 H          1 MOL1         0.0783
      27    O7      13.848905   20.298678   22.643752 O.3        1 MOL1        -0.5519
      28    H13     14.613751   20.890446   22.859794 H          1 MOL1         0.3769
      29    C9      15.128972   18.277816   22.098572 C.3        1 MOL1         0.1053
      30    H14     15.982943   18.702723   22.644756 H          1 MOL1         0.0783
      31    O8      14.347323   17.461932   22.977458 O.3        1 MOL1        -0.5519
      32    H15     13.866436   18.097096   23.554069 H          1 MOL1         0.3769
      33    C10     15.679131   17.426630   20.928505 C.3        1 MOL1         0.1018
      34    H16     14.845458   16.889223   20.457325 H          1 MOL1         0.0783
      35    C11     16.375412   18.309000   19.860136 C.3        1 MOL1         0.1043
      36    H17     17.256013   18.776585   20.315387 H          1 MOL1         0.0783
      37    O9      15.449853   19.340687   19.443510 O.3        1 MOL1        -0.3740
      38    C12     16.868237   17.537450   18.608231 C.3        1 MOL1         0.0138
      39    H18     17.891164   17.188993   18.797685 H          1 MOL1         0.0794
      40    H19     16.924110   18.238299   17.764767 H          1 MOL1         0.0794
      41    O10     16.037811   16.420048   18.267034 O.3        1 MOL1        -0.5486
      42    H20     16.190076   15.724994   18.948948 H          1 MOL1         0.3769
      43    C13     18.459494   24.247198   21.436028 C.3        1 MOL1         0.2972
      44    H21     18.860300   25.268992   21.433330 H          1 MOL1         0.0751
      45    O11     19.489317   23.265643   21.659327 O.3        1 MOL1        -0.3740
      46    C14     17.380924   24.071545   22.535353 C.3        1 MOL1         0.1003
      47    H22     16.552076   24.749092   22.292246 H          1 MOL1         0.0783
      48    O12     17.893309   24.408417   23.833770 O.3        1 MOL1        -0.5519
      49    H23     18.760236   23.940664   23.942753 H          1 MOL1         0.3769
      50    C15     16.831787   22.623786   22.521807 C.3        1 MOL1         0.1053
      51    H24     17.644034   21.942775   22.811818 H          1 MOL1         0.0783
      52    O13     15.750834   22.511911   23.454199 O.3        1 MOL1        -0.5519
      53    H25     16.068841   22.963458   24.267629 H          1 MOL1         0.3769
      54    C16     16.343045   22.226681   21.106649 C.3        1 MOL1         0.1018
      55    H26     15.385114   22.730950   20.923286 H          1 MOL1         0.0783
      56    C17     17.361597   22.596217   19.989830 C.3        1 MOL1         0.1043
      57    H27     18.214489   21.908392   20.061655 H          1 MOL1         0.0783
      58    O14     17.832222   23.956018   20.169487 O.3        1 MOL1        -0.3740
      59    C18     16.786745   22.469317   18.558426 C.3        1 MOL1         0.0138
      60    H28     16.673537   21.403494   18.320423 H          1 MOL1         0.0794
      61    H29     17.516924   22.883574   17.850458 H          1 MOL1         0.0794
      62    O15     15.525133   23.135799   18.419677 O.3        1 MOL1        -0.5486
      63    H30     15.249978   23.058401   17.480200 H          1 MOL1         0.3769
      64    C19     23.501492   22.598027   22.188731 C.3        1 MOL1         0.2972
      65    H31     24.584062   22.624758   22.367548 H          1 MOL1         0.0751
      66    O16     23.077365   21.302182   21.726971 O.3        1 MOL1        -0.3740
      67    C20     22.743634   22.958763   23.491086 C.3        1 MOL1         0.1003
      68    H32     23.013120   23.991748   23.745956 H          1 MOL1         0.0783
      69    O17     23.121351   22.099194   24.575775 O.3        1 MOL1        -0.5519
      70    H33     22.802258   21.182412   24.339648 H          1 MOL1         0.3769
      71    C21     21.216952   22.904814   23.268736 C.3        1 MOL1         0.1053
      72    H34     20.942216   21.861285   23.078519 H          1 MOL1         0.0783
      73    O18     20.548542   23.367377   24.446422 O.3        1 MOL1        -0.5519
      74    H35     20.983787   22.884080   25.184295 H          1 MOL1         0.3769
      75    C22     20.788801   23.752362   22.045545 C.3        1 MOL1         0.1018
      76    H36     20.767542   24.809297   22.342060 H          1 MOL1         0.0783
      77    C23     21.713632   23.558047   20.809936 C.3        1 MOL1         0.1043
      78    H37     21.465678   22.583219   20.375994 H          1 MOL1         0.0783
      79    O19     23.118373   23.562357   21.183319 O.3        1 MOL1        -0.3740
      80    C24     21.491922   24.618294   19.705107 C.3        1 MOL1         0.0138
      81    H38     20.505121   24.449005   19.253137 H          1 MOL1         0.0794
      82    H39     22.241554   24.467865   18.916647 H          1 MOL1         0.0794
      83    O20     21.568358   25.954170   20.218063 O.3        1 MOL1        -0.5486
      84    H40     21.479961   26.570364   19.458428 H          1 MOL1         0.3769
      85    C25     24.627054   17.730460   20.237787 C.3        1 MOL1         0.2972
      86    H41     25.205404   16.965777   19.703892 H          1 MOL1         0.0751
      87    O21     23.418671   17.175598   20.792803 O.3        1 MOL1        -0.3740
      88    C26     25.477367   18.392974   21.357461 C.3        1 MOL1         0.1003
      89    H42     26.350838   18.838339   20.863848 H          1 MOL1         0.0783
      90    O22     25.937156   17.434229   22.322567 O.3        1 MOL1        -0.5519
      91    H43     25.130688   17.079612   22.776879 H          1 MOL1         0.3769
      92    C27     24.706586   19.538849   22.061896 C.3        1 MOL1         0.1053
      93    H44     23.897393   19.096451   22.659792 H          1 MOL1         0.0783
      94    O23     25.622005   20.244882   22.907158 O.3        1 MOL1        -0.5519
      95    H45     26.020224   19.560960   23.487530 H          1 MOL1         0.3769
      96    C28     24.071631   20.518711   21.039505 C.3        1 MOL1         0.1018
      97    H46     24.865090   21.149674   20.618584 H          1 MOL1         0.0783
      98    C29     23.345349   19.779404   19.883530 C.3        1 MOL1         0.1043
      99    H47     22.456148   19.290147   20.299140 H          1 MOL1         0.0783
     100    O24     24.233941   18.779476   19.325365 O.3        1 MOL1        -0.3740
     101    C30     22.849315   20.700033   18.738235 C.3        1 MOL1         0.0138
     102    H48     21.822058   21.009657   18.967110 H          1 MOL1         0.0794
     103    H49     22.799085   20.111741   17.812346 H          1 MOL1         0.0794
     104    O25     23.672660   21.857743   18.541753 O.3        1 MOL1        -0.5486
     105    H50     23.617116   22.400067   19.362006 H          1 MOL1         0.3769
     106    C31     21.459616   13.729263   21.895607 C.3        1 MOL1         0.2972
     107    H51     21.118760   12.725699   22.179376 H          1 MOL1         0.0751
     108    O26     20.357109   14.619260   21.615099 O.3        1 MOL1        -0.3740
     109    C32     22.338098   14.347592   23.013361 C.3        1 MOL1         0.1003
     110    H52     23.261010   13.756884   23.075692 H          1 MOL1         0.0783
     111    O27     21.674677   14.292972   24.283542 O.3        1 MOL1        -0.5519
     112    H53     20.747214   14.602629   24.145950 H          1 MOL1         0.3769
     113    C33     22.729965   15.791544   22.616069 C.3        1 MOL1         0.1053
     114    H54     21.807403   16.373051   22.513956 H          1 MOL1         0.0783
     115    O28     23.548504   16.401507   23.619450 O.3        1 MOL1        -0.5519
     116    H55     22.888279   16.845876   24.216714 H          1 MOL1         0.3769
     117    C34     23.446927   15.806516   21.242400 C.3        1 MOL1         0.1018
     118    H56     24.470795   15.432935   21.372673 H          1 MOL1         0.0783
     119    C35     22.697732   14.959109   20.169656 C.3        1 MOL1         0.1043
     120    H57     21.803581   15.519885   19.866239 H          1 MOL1         0.0783
     121    O29     22.283729   13.674771   20.711156 O.3        1 MOL1        -0.3740
     122    C36     23.528920   14.705704   18.889467 C.3        1 MOL1         0.0138
     123    H58     23.614202   15.651154   18.336997 H          1 MOL1         0.0794
     124    H59     22.979408   14.002719   18.249150 H          1 MOL1         0.0794
     125    O30     24.835094   14.194896   19.183926 O.3        1 MOL1        -0.5486
     126    H60     25.271530   13.982032   18.330195 H          1 MOL1         0.3769
     127    C1      20.991172   18.826124   24.007945 C.2        1 MOL1         0.6021
     128    O1      21.096189   17.700585   24.457000 O.co2      1 MOL1        -0.6904
     129    O2      21.861620   19.668030   24.111297 O.co2      1 MOL1        -0.6904
     130    C2      19.659953   19.240695   23.377605 C.3        1 MOL1        -0.2102
     131    H1      19.321893   20.136820   23.910531 H          1 MOL1         0.0687
     132    H2      18.918222   18.457904   23.577390 H          1 MOL1         0.0687
     133    C3      19.716275   19.545018   21.856082 C.3        1 MOL1        -0.1974
     134    H3      18.786012   20.045761   21.563457 H          1 MOL1         0.0689
     135    H4      20.530936   20.247520   21.642543 H          1 MOL1         0.0689
     136    C4      19.896265   18.277260   21.000770 C.3        1 MOL1        -0.2987
     137    H5      19.124070   17.538760   21.238923 H          1 MOL1         0.0700
     138    H6      19.838031   18.514752   19.931515 H          1 MOL1         0.0700
     139    H7      20.870509   17.818398   21.192491 H          1 MOL1         0.0700
@<TRIPOS>BOND
    1     1     2    1
    2     1     3    1
    3     1     4    1
    4     4     5    1
    5     4     6    1
    6     6     7    1
    7     4     8    1
    8     8     9    1
    9     8    10    1
   10    10    11    1
   11     8    12    1
   12    12    13    1
   13    12    14    1
   14    14    15    1
   15     1    16    1
   16    14    16    1
   17    14    17    1
   18    17    18    1
   19    17    19    1
   20    17    20    1
   21    20    21    1
   22    22    23    1
   23    22    24    1
   24    22    25    1
   25    25    26    1
   26    25    27    1
   27    27    28    1
   28    25    29    1
   29    29    30    1
   30    29    31    1
   31    31    32    1
   32     3    33    1
   33    29    33    1
   34    33    34    1
   35    33    35    1
   36    35    36    1
   37    22    37    1
   38    35    37    1
   39    35    38    1
   40    38    39    1
   41    38    40    1
   42    38    41    1
   43    41    42    1
   44    43    44    1
   45    43    45    1
   46    43    46    1
   47    46    47    1
   48    46    48    1
   49    48    49    1
   50    46    50    1
   51    50    51    1
   52    50    52    1
   53    52    53    1
   54    24    54    1
   55    50    54    1
   56    54    55    1
   57    54    56    1
   58    56    57    1
   59    43    58    1
   60    56    58    1
   61    56    59    1
   62    59    60    1
   63    59    61    1
   64    59    62    1
   65    62    63    1
   66    64    65    1
   67    64    66    1
   68    64    67    1
   69    67    68    1
   70    67    69    1
   71    69    70    1
   72    67    71    1
   73    71    72    1
   74    71    73    1
   75    73    74    1
   76    45    75    1
   77    71    75    1
   78    75    76    1
   79    75    77    1
   80    77    78    1
   81    64    79    1
   82    77    79    1
   83    77    80    1
   84    80    81    1
   85    80    82    1
   86    80    83    1
   87    83    84    1
   88    85    86    1
   89    85    87    1
   90    85    88    1
   91    88    89    1
   92    88    90    1
   93    90    91    1
   94    88    92    1
   95    92    93    1
   96    92    94    1
   97    94    95    1
   98    66    96    1
   99    92    96    1
  100    96    97    1
  101    96    98    1
  102    98    99    1
  103    85   100    1
  104    98   100    1
  105    98   101    1
  106   101   102    1
  107   101   103    1
  108   101   104    1
  109   104   105    1
  110   106   107    1
  111    12   108    1
  112   106   108    1
  113   106   109    1
  114   109   110    1
  115   109   111    1
  116   111   112    1
  117   109   113    1
  118   113   114    1
  119   113   115    1
  120   115   116    1
  121    87   117    1
  122   113   117    1
  123   117   118    1
  124   117   119    1
  125   119   120    1
  126   106   121    1
  127   119   121    1
  128   119   122    1
  129   122   123    1
  130   122   124    1
  131   122   125    1
  132   125   126    1
  133   127   128    1
  134   127   129    2
  135   127   130    1
  136   130   131    1
  137   130   132    1
  138   130   133    1
  139   133   134    1
  140   133   135    1
  141   133   136    1
  142   136   137    1
  143   136   138    1
  144   136   139    1
@<TRIPOS>SUBSTRUCTURE
       1 MOL1            1 RESIDUE      1      MOL     
       2 MOL1          139 RESIDUE      1      MOL     
@<SCITEGIC>MOL_PROPERTY
feprocess Rank
SciTegic.value.IntegerValue
46

@<SCITEGIC>MOL_PROPERTY
Conf_Id
SciTegic.value.IntegerValue
320

@<SCITEGIC>MOL_PROPERTY
Probability
SciTegic.value.DoubleValue
0.00

@<SCITEGIC>MOL_PROPERTY
G
SciTegic.value.DoubleValue
488.710

@<SCITEGIC>MOL_PROPERTY
E
SciTegic.value.DoubleValue
312.844

@<SCITEGIC>MOL_PROPERTY
-TS
SciTegic.value.DoubleValue
175.867

@<SCITEGIC>MOL_PROPERTY
U+W
SciTegic.value.DoubleValue
190.332

@<SCITEGIC>MOL_PROPERTY
U
SciTegic.value.DoubleValue
266.903

@<SCITEGIC>MOL_PROPERTY
W
SciTegic.value.DoubleValue
-76.571

@<SCITEGIC>MOL_PROPERTY
W(PB)
SciTegic.value.DoubleValue
-82.541

@<SCITEGIC>MOL_PROPERTY
W(SA)
SciTegic.value.DoubleValue
5.970

@<SCITEGIC>MOL_PROPERTY
Valence
SciTegic.value.DoubleValue
153.200

@<SCITEGIC>MOL_PROPERTY
Coulomb
SciTegic.value.DoubleValue
136.197

@<SCITEGIC>MOL_PROPERTY
VdW
SciTegic.value.DoubleValue
-22.494

@<SCITEGIC>MOL_PROPERTY
VdW6
SciTegic.value.DoubleValue
-174.937

@<SCITEGIC>MOL_PROPERTY
VdW12
SciTegic.value.DoubleValue
152.442

@<SCITEGIC>MOL_PROPERTY
Bond
SciTegic.value.DoubleValue
4.974

@<SCITEGIC>MOL_PROPERTY
Angle
SciTegic.value.DoubleValue
14.630

@<SCITEGIC>MOL_PROPERTY
Pdih
SciTegic.value.DoubleValue
133.581

@<SCITEGIC>MOL_PROPERTY
Idih
SciTegic.value.DoubleValue
0.016

@<SCITEGIC>MOL_PROPERTY
Tether
SciTegic.value.DoubleValue
0.000

@<TRIPOS>MOLECULE
CD_guest-6_fast_vm2_rndm.mol2 : feprocess host+ligand conformer 47
         139         144           2
SMALL
USER_CHARGES
 
@<TRIPOS>ATOM
       1    C1      16.230117   15.308727   21.914394 C.3        1 MOL1         0.2972
       2    H1      15.146894   15.263877   22.085688 H          1 MOL1         0.0751
       3    O1      16.645148   16.634537   21.534122 O.3        1 MOL1        -0.3740
       4    C2      16.981759   14.870059   23.196876 C.3        1 MOL1         0.1003
       5    H2      16.706804   13.825244   23.390207 H          1 MOL1         0.0783
       6    O2      16.602469   15.668869   24.327369 O.3        1 MOL1        -0.5519
       7    H3      16.895054   16.605054   24.136779 H          1 MOL1         0.3769
       8    C3      18.509930   14.929784   22.990622 C.3        1 MOL1         0.1053
       9    H4      18.784322   15.985060   22.900229 H          1 MOL1         0.0783
      10    O3      19.171552   14.364065   24.127066 O.3        1 MOL1        -0.5519
      11    H5      18.736507   14.782760   24.903184 H          1 MOL1         0.3769
      12    C4      18.955739   14.193976   21.702166 C.3        1 MOL1         0.1018
      13    H6      19.012242   13.118269   21.915072 H          1 MOL1         0.0783
      14    C5      18.027257   14.457200   20.481774 C.3        1 MOL1         0.1043
      15    H7      18.263052   15.462019   20.115112 H          1 MOL1         0.0783
      16    O4      16.623333   14.411285   20.853141 O.3        1 MOL1        -0.3740
      17    C6      18.259792   13.479270   19.305288 C.3        1 MOL1         0.0138
      18    H8      19.236700   13.701593   18.854946 H          1 MOL1         0.0794
      19    H9      17.497831   13.665455   18.536528 H          1 MOL1         0.0794
      20    O5      18.218794   12.110285   19.726301 O.3        1 MOL1        -0.5486
      21    H10     18.298862   11.549204   18.924156 H          1 MOL1         0.3769
      22    C7      15.108534   20.268597   20.207539 C.3        1 MOL1         0.2972
      23    H11     14.545525   21.072527   19.716671 H          1 MOL1         0.0751
      24    O6      16.330914   20.766873   20.784073 O.3        1 MOL1        -0.3740
      25    C8      14.242380   19.550088   21.280030 C.3        1 MOL1         0.1003
      26    H12     13.374516   19.135113   20.751251 H          1 MOL1         0.0783
      27    O7      13.769907   20.454338   22.290124 O.3        1 MOL1        -0.5519
      28    H13     14.566647   20.746138   22.801686 H          1 MOL1         0.3769
      29    C9      15.000434   18.364214   21.929452 C.3        1 MOL1         0.1053
      30    H14     15.802249   18.770828   22.559821 H          1 MOL1         0.0783
      31    O8      14.074199   17.615389   22.724782 O.3        1 MOL1        -0.5519
      32    H15     13.675746   18.265792   23.342202 H          1 MOL1         0.3769
      33    C10     15.649634   17.437038   20.867979 C.3        1 MOL1         0.1018
      34    H16     14.862214   16.817534   20.419732 H          1 MOL1         0.0783
      35    C11     16.373688   18.228261   19.743298 C.3        1 MOL1         0.1043
      36    H17     17.273560   18.686407   20.174757 H          1 MOL1         0.0783
      37    O9      15.489455   19.264052   19.241180 O.3        1 MOL1        -0.3740
      38    C12     16.850051   17.363486   18.546703 C.3        1 MOL1         0.0138
      39    H18     17.880823   17.043054   18.741673 H          1 MOL1         0.0794
      40    H19     16.885691   17.996255   17.649887 H          1 MOL1         0.0794
      41    O10     16.022515   16.217239   18.305835 O.3        1 MOL1        -0.5486
      42    H20     16.093031   15.632403   19.095225 H          1 MOL1         0.3769
      43    C13     18.498411   23.880994   22.288657 C.3        1 MOL1         0.2972
      44    H21     18.908021   24.803584   22.719774 H          1 MOL1         0.0751
      45    O11     19.551719   23.011081   21.825539 O.3        1 MOL1        -0.3740
      46    C14     17.638000   23.146505   23.349052 C.3        1 MOL1         0.1003
      47    H22     16.797005   23.805495   23.599460 H          1 MOL1         0.0783
      48    O12     18.398402   22.887376   24.540503 O.3        1 MOL1        -0.5519
      49    H23     18.583478   21.910166   24.563400 H          1 MOL1         0.3769
      50    C15     17.062102   21.838963   22.762635 C.3        1 MOL1         0.1053
      51    H24     17.910548   21.177264   22.562886 H          1 MOL1         0.0783
      52    O13     16.186545   21.205109   23.702903 O.3        1 MOL1        -0.5519
      53    H25     16.789209   20.640505   24.258354 H          1 MOL1         0.3769
      54    C16     16.335611   22.062935   21.415057 C.3        1 MOL1         0.1018
      55    H26     15.325314   22.448799   21.601557 H          1 MOL1         0.0783
      56    C17     17.114599   23.011598   20.459263 C.3        1 MOL1         0.1043
      57    H27     17.952322   22.432508   20.055067 H          1 MOL1         0.0783
      58    O14     17.643686   24.170655   21.159709 O.3        1 MOL1        -0.3740
      59    C18     16.275956   23.500200   19.254505 C.3        1 MOL1         0.0138
      60    H28     16.096542   22.647208   18.586322 H          1 MOL1         0.0794
      61    H29     16.864256   24.236757   18.690940 H          1 MOL1         0.0794
      62    O15     15.026257   24.068789   19.663333 O.3        1 MOL1        -0.5486
      63    H30     14.583041   24.423710   18.861936 H          1 MOL1         0.3769
      64    C19     23.511311   22.815468   20.728696 C.3        1 MOL1         0.2972
      65    H31     24.536114   22.946453   20.358277 H          1 MOL1         0.0751
      66    O16     23.222575   21.425609   20.997827 O.3        1 MOL1        -0.3740
      67    C20     23.258354   23.672739   21.995995 C.3        1 MOL1         0.1003
      68    H32     23.369097   24.722438   21.694125 H          1 MOL1         0.0783
      69    O17     24.207315   23.394887   23.036198 O.3        1 MOL1        -0.5519
      70    H33     24.047061   22.461248   23.325208 H          1 MOL1         0.3769
      71    C21     21.809720   23.483622   22.510163 C.3        1 MOL1         0.1053
      72    H34     21.714075   22.463148   22.907309 H          1 MOL1         0.0783
      73    O18     21.567369   24.438967   23.548347 O.3        1 MOL1        -0.5519
      74    H35     22.315436   24.337947   24.176128 H          1 MOL1         0.3769
      75    C22     20.759484   23.661534   21.379224 C.3        1 MOL1         0.1018
      76    H36     20.609756   24.737159   21.221333 H          1 MOL1         0.0783
      77    C23     21.173563   22.997627   20.029817 C.3        1 MOL1         0.1043
      78    H37     21.048964   21.913921   20.127739 H          1 MOL1         0.0783
      79    O19     22.565688   23.280285   19.741107 O.3        1 MOL1        -0.3740
      80    C24     20.322931   23.421918   18.802114 C.3        1 MOL1         0.0138
      81    H38     19.529914   22.678994   18.654905 H          1 MOL1         0.0794
      82    H39     20.956752   23.377396   17.906343 H          1 MOL1         0.0794
      83    O20     19.744936   24.728160   18.924886 O.3        1 MOL1        -0.5486
      84    H40     19.080653   24.689159   19.651962 H          1 MOL1         0.3769
      85    C25     24.855994   17.708814   21.822453 C.3        1 MOL1         0.2972
      86    H41     25.498977   16.856453   22.076846 H          1 MOL1         0.0751
      87    O21     23.579503   17.276904   21.311790 O.3        1 MOL1        -0.3740
      88    C26     24.630838   18.605570   23.067204 C.3        1 MOL1         0.1003
      89    H42     25.616258   18.975030   23.379631 H          1 MOL1         0.0783
      90    O22     24.039957   17.874830   24.154077 O.3        1 MOL1        -0.5519
      91    H43     24.022750   16.923123   23.890039 H          1 MOL1         0.3769
      92    C27     23.752930   19.827624   22.715197 C.3        1 MOL1         0.1053
      93    H44     22.748570   19.459571   22.472147 H          1 MOL1         0.0783
      94    O23     23.691705   20.689010   23.855902 O.3        1 MOL1        -0.5519
      95    H45     23.482978   20.085613   24.604420 H          1 MOL1         0.3769
      96    C28     24.298198   20.594212   21.482191 C.3        1 MOL1         0.1018
      97    H46     25.170631   21.185561   21.789551 H          1 MOL1         0.0783
      98    C29     24.689116   19.639121   20.317825 C.3        1 MOL1         0.1043
      99    H47     23.762313   19.250977   19.875093 H          1 MOL1         0.0783
     100    O24     25.480945   18.526100   20.809934 O.3        1 MOL1        -0.3740
     101    C30     25.477612   20.339741   19.185548 C.3        1 MOL1         0.0138
     102    H48     24.792444   21.008896   18.647681 H          1 MOL1         0.0794
     103    H49     25.816503   19.577354   18.471364 H          1 MOL1         0.0794
     104    O25     26.594089   21.087308   19.684527 O.3        1 MOL1        -0.5486
     105    H50     27.088650   21.436133   18.910972 H          1 MOL1         0.3769
     106    C31     21.276091   13.831512   20.970664 C.3        1 MOL1         0.2972
     107    H51     20.875644   12.832453   20.755151 H          1 MOL1         0.0751
     108    O26     20.239647   14.750679   21.361818 O.3        1 MOL1        -0.3740
     109    C32     22.325306   13.782798   22.110226 C.3        1 MOL1         0.1003
     110    H52     23.147740   13.141995   21.766469 H          1 MOL1         0.0783
     111    O27     21.769088   13.224774   23.311342 O.3        1 MOL1        -0.5519
     112    H53     20.932699   13.718397   23.509194 H          1 MOL1         0.3769
     113    C33     22.904931   15.193553   22.387261 C.3        1 MOL1         0.1053
     114    H54     22.103229   15.817546   22.806596 H          1 MOL1         0.0783
     115    O28     23.971800   15.070609   23.333689 O.3        1 MOL1        -0.5519
     116    H55     23.648841   14.416324   23.994608 H          1 MOL1         0.3769
     117    C34     23.411194   15.864297   21.079626 C.3        1 MOL1         0.1018
     118    H56     24.355046   15.392694   20.777997 H          1 MOL1         0.0783
     119    C35     22.387793   15.739097   19.916511 C.3        1 MOL1         0.1043
     120    H57     21.528256   16.383388   20.139487 H          1 MOL1         0.0783
     121    O29     21.933126   14.368399   19.802049 O.3        1 MOL1        -0.3740
     122    C36     22.942239   16.201356   18.545987 C.3        1 MOL1         0.0138
     123    H58     22.987355   17.298655   18.541792 H          1 MOL1         0.0794
     124    H59     22.230210   15.904639   17.764550 H          1 MOL1         0.0794
     125    O30     24.239766   15.665039   18.259535 O.3        1 MOL1        -0.5486
     126    H60     24.885416   16.145348   18.821651 H          1 MOL1         0.3769
     127    C1      18.688950   18.968722   24.127200 C.2        1 MOL1         0.6021
     128    O1      18.622807   20.062418   24.658389 O.co2      1 MOL1        -0.6904
     129    O2      17.744443   18.207558   24.054664 O.co2      1 MOL1        -0.6904
     130    C2      20.040795   18.500156   23.592950 C.3        1 MOL1        -0.2102
     131    H1      20.266712   17.549442   24.089278 H          1 MOL1         0.0687
     132    H2      20.808203   19.211206   23.921055 H          1 MOL1         0.0687
     133    C3      20.122038   18.302171   22.054404 C.3        1 MOL1        -0.1974
     134    H3      21.060659   17.785990   21.831806 H          1 MOL1         0.0689
     135    H4      19.311704   17.652744   21.702991 H          1 MOL1         0.0689
     136    C4      20.086831   19.618887   21.260174 C.3        1 MOL1        -0.2987
     137    H5      20.741562   20.367791   21.720830 H          1 MOL1         0.0700
     138    H6      20.417679   19.456250   20.226921 H          1 MOL1         0.0700
     139    H7      19.071378   20.024557   21.224708 H          1 MOL1         0.0700
@<TRIPOS>BOND
    1     1     2    1
    2     1     3    1
    3     1     4    1
    4     4     5    1
    5     4     6    1
    6     6     7    1
    7     4     8    1
    8     8     9    1
    9     8    10    1
   10    10    11    1
   11     8    12    1
   12    12    13    1
   13    12    14    1
   14    14    15    1
   15     1    16    1
   16    14    16    1
   17    14    17    1
   18    17    18    1
   19    17    19    1
   20    17    20    1
   21    20    21    1
   22    22    23    1
   23    22    24    1
   24    22    25    1
   25    25    26    1
   26    25    27    1
   27    27    28    1
   28    25    29    1
   29    29    30    1
   30    29    31    1
   31    31    32    1
   32     3    33    1
   33    29    33    1
   34    33    34    1
   35    33    35    1
   36    35    36    1
   37    22    37    1
   38    35    37    1
   39    35    38    1
   40    38    39    1
   41    38    40    1
   42    38    41    1
   43    41    42    1
   44    43    44    1
   45    43    45    1
   46    43    46    1
   47    46    47    1
   48    46    48    1
   49    48    49    1
   50    46    50    1
   51    50    51    1
   52    50    52    1
   53    52    53    1
   54    24    54    1
   55    50    54    1
   56    54    55    1
   57    54    56    1
   58    56    57    1
   59    43    58    1
   60    56    58    1
   61    56    59    1
   62    59    60    1
   63    59    61    1
   64    59    62    1
   65    62    63    1
   66    64    65    1
   67    64    66    1
   68    64    67    1
   69    67    68    1
   70    67    69    1
   71    69    70    1
   72    67    71    1
   73    71    72    1
   74    71    73    1
   75    73    74    1
   76    45    75    1
   77    71    75    1
   78    75    76    1
   79    75    77    1
   80    77    78    1
   81    64    79    1
   82    77    79    1
   83    77    80    1
   84    80    81    1
   85    80    82    1
   86    80    83    1
   87    83    84    1
   88    85    86    1
   89    85    87    1
   90    85    88    1
   91    88    89    1
   92    88    90    1
   93    90    91    1
   94    88    92    1
   95    92    93    1
   96    92    94    1
   97    94    95    1
   98    66    96    1
   99    92    96    1
  100    96    97    1
  101    96    98    1
  102    98    99    1
  103    85   100    1
  104    98   100    1
  105    98   101    1
  106   101   102    1
  107   101   103    1
  108   101   104    1
  109   104   105    1
  110   106   107    1
  111    12   108    1
  112   106   108    1
  113   106   109    1
  114   109   110    1
  115   109   111    1
  116   111   112    1
  117   109   113    1
  118   113   114    1
  119   113   115    1
  120   115   116    1
  121    87   117    1
  122   113   117    1
  123   117   118    1
  124   117   119    1
  125   119   120    1
  126   106   121    1
  127   119   121    1
  128   119   122    1
  129   122   123    1
  130   122   124    1
  131   122   125    1
  132   125   126    1
  133   127   128    1
  134   127   129    2
  135   127   130    1
  136   130   131    1
  137   130   132    1
  138   130   133    1
  139   133   134    1
  140   133   135    1
  141   133   136    1
  142   136   137    1
  143   136   138    1
  144   136   139    1
@<TRIPOS>SUBSTRUCTURE
       1 MOL1            1 RESIDUE      1      MOL     
       2 MOL1          139 RESIDUE      1      MOL     
@<SCITEGIC>MOL_PROPERTY
feprocess Rank
SciTegic.value.IntegerValue
47

@<SCITEGIC>MOL_PROPERTY
Conf_Id
SciTegic.value.IntegerValue
888

@<SCITEGIC>MOL_PROPERTY
Probability
SciTegic.value.DoubleValue
0.00

@<SCITEGIC>MOL_PROPERTY
G
SciTegic.value.DoubleValue
488.783

@<SCITEGIC>MOL_PROPERTY
E
SciTegic.value.DoubleValue
310.418

@<SCITEGIC>MOL_PROPERTY
-TS
SciTegic.value.DoubleValue
178.366

@<SCITEGIC>MOL_PROPERTY
U+W
SciTegic.value.DoubleValue
187.906

@<SCITEGIC>MOL_PROPERTY
U
SciTegic.value.DoubleValue
261.065

@<SCITEGIC>MOL_PROPERTY
W
SciTegic.value.DoubleValue
-73.158

@<SCITEGIC>MOL_PROPERTY
W(PB)
SciTegic.value.DoubleValue
-79.118

@<SCITEGIC>MOL_PROPERTY
W(SA)
SciTegic.value.DoubleValue
5.960

@<SCITEGIC>MOL_PROPERTY
Valence
SciTegic.value.DoubleValue
152.955

@<SCITEGIC>MOL_PROPERTY
Coulomb
SciTegic.value.DoubleValue
128.566

@<SCITEGIC>MOL_PROPERTY
VdW
SciTegic.value.DoubleValue
-20.457

@<SCITEGIC>MOL_PROPERTY
VdW6
SciTegic.value.DoubleValue
-178.334

@<SCITEGIC>MOL_PROPERTY
VdW12
SciTegic.value.DoubleValue
157.876

@<SCITEGIC>MOL_PROPERTY
Bond
SciTegic.value.DoubleValue
5.371

@<SCITEGIC>MOL_PROPERTY
Angle
SciTegic.value.DoubleValue
16.314

@<SCITEGIC>MOL_PROPERTY
Pdih
SciTegic.value.DoubleValue
131.264

@<SCITEGIC>MOL_PROPERTY
Idih
SciTegic.value.DoubleValue
0.007

@<SCITEGIC>MOL_PROPERTY
Tether
SciTegic.value.DoubleValue
0.000

@<TRIPOS>MOLECULE
CD_guest-6_fast_vm2_rndm.mol2 : feprocess host+ligand conformer 48
         139         144           2
SMALL
USER_CHARGES
 
@<TRIPOS>ATOM
       1    C1      16.046093   15.087342   21.597927 C.3        1 MOL1         0.2972
       2    H1      14.956400   14.956074   21.583964 H          1 MOL1         0.0751
       3    O1      16.414588   16.478789   21.534966 O.3        1 MOL1        -0.3740
       4    C2      16.628171   14.499792   22.904501 C.3        1 MOL1         0.1003
       5    H2      16.417529   13.422920   22.921154 H          1 MOL1         0.0783
       6    O2      15.991564   15.132485   24.027001 O.3        1 MOL1        -0.5519
       7    H3      15.798948   16.060337   23.754318 H          1 MOL1         0.3769
       8    C3      18.164159   14.693942   22.929302 C.3        1 MOL1         0.1053
       9    H4      18.352950   15.772340   22.980307 H          1 MOL1         0.0783
      10    O3      18.755743   14.068165   24.073494 O.3        1 MOL1        -0.5519
      11    H5      19.406108   14.745442   24.405277 H          1 MOL1         0.3769
      12    C4      18.837476   14.150131   21.641848 C.3        1 MOL1         0.1018
      13    H6      18.873870   13.054802   21.706427 H          1 MOL1         0.0783
      14    C5      18.094170   14.592748   20.342442 C.3        1 MOL1         0.1043
      15    H7      18.312181   15.656591   20.187511 H          1 MOL1         0.0783
      16    O4      16.660130   14.413290   20.483126 O.3        1 MOL1        -0.3740
      17    C6      18.516960   13.838614   19.057268 C.3        1 MOL1         0.0138
      18    H8      19.495743   14.208700   18.728884 H          1 MOL1         0.0794
      19    H9      17.802551   14.083572   18.259710 H          1 MOL1         0.0794
      20    O5      18.568467   12.420346   19.254737 O.3        1 MOL1        -0.5486
      21    H10     18.750532   12.004532   18.383895 H          1 MOL1         0.3769
      22    C7      15.010618   20.232782   20.450698 C.3        1 MOL1         0.2972
      23    H11     14.454268   21.084423   20.038637 H          1 MOL1         0.0751
      24    O6      16.297031   20.638001   20.961484 O.3        1 MOL1        -0.3740
      25    C8      14.208993   19.528692   21.579055 C.3        1 MOL1         0.1003
      26    H12     13.282259   19.150356   21.128363 H          1 MOL1         0.0783
      27    O7      13.871190   20.432260   22.641971 O.3        1 MOL1        -0.5519
      28    H13     14.724034   20.763079   23.022486 H          1 MOL1         0.3769
      29    C9      15.000255   18.316262   22.127337 C.3        1 MOL1         0.1053
      30    H14     15.903712   18.692992   22.626465 H          1 MOL1         0.0783
      31    O8      14.192968   17.599899   23.067367 O.3        1 MOL1        -0.5519
      32    H15     13.787809   18.289809   23.638292 H          1 MOL1         0.3769
      33    C10     15.435423   17.371850   20.978542 C.3        1 MOL1         0.1018
      34    H16     14.548363   16.838226   20.612948 H          1 MOL1         0.0783
      35    C11     16.097521   18.137896   19.797484 C.3        1 MOL1         0.1043
      36    H17     17.067457   18.524121   20.135383 H          1 MOL1         0.0783
      37    O9      15.245991   19.248598   19.418663 O.3        1 MOL1        -0.3740
      38    C12     16.379037   17.280370   18.535302 C.3        1 MOL1         0.0138
      39    H18     17.396664   16.877905   18.607559 H          1 MOL1         0.0794
      40    H19     16.364708   17.938741   17.656473 H          1 MOL1         0.0794
      41    O10     15.450088   16.204507   18.355969 O.3        1 MOL1        -0.5486
      42    H20     15.686099   15.507953   19.012329 H          1 MOL1         0.3769
      43    C13     18.596617   23.904589   22.024603 C.3        1 MOL1         0.2972
      44    H21     18.986743   24.887143   22.320895 H          1 MOL1         0.0751
      45    O11     19.663641   22.986060   21.725626 O.3        1 MOL1        -0.3740
      46    C14     17.757388   23.302078   23.176685 C.3        1 MOL1         0.1003
      47    H22     16.915043   23.979972   23.366540 H          1 MOL1         0.0783
      48    O12     18.554127   23.187052   24.365056 O.3        1 MOL1        -0.5519
      49    H23     19.471740   23.001092   24.061356 H          1 MOL1         0.3769
      50    C15     17.184943   21.922868   22.777423 C.3        1 MOL1         0.1053
      51    H24     18.024887   21.224222   22.664828 H          1 MOL1         0.0783
      52    O13     16.309591   21.463403   23.812286 O.3        1 MOL1        -0.5519
      53    H25     16.815121   21.594653   24.645306 H          1 MOL1         0.3769
      54    C16     16.428878   21.995007   21.426886 C.3        1 MOL1         0.1018
      55    H26     15.454529   22.475168   21.588179 H          1 MOL1         0.0783
      56    C17     17.232385   22.760513   20.338472 C.3        1 MOL1         0.1043
      57    H27     18.069663   22.116125   20.046561 H          1 MOL1         0.0783
      58    O14     17.756068   24.012206   20.855886 O.3        1 MOL1        -0.3740
      59    C18     16.415000   23.062300   19.059582 C.3        1 MOL1         0.0138
      60    H28     16.239864   22.117931   18.526633 H          1 MOL1         0.0794
      61    H29     17.016673   23.701356   18.399390 H          1 MOL1         0.0794
      62    O15     15.162809   23.691976   19.357221 O.3        1 MOL1        -0.5486
      63    H30     14.738209   23.929527   18.504095 H          1 MOL1         0.3769
      64    C19     23.663365   22.761857   20.735275 C.3        1 MOL1         0.2972
      65    H31     24.690770   22.885433   20.369248 H          1 MOL1         0.0751
      66    O16     23.406985   21.410468   21.167242 O.3        1 MOL1        -0.3740
      67    C20     23.351390   23.734652   21.901947 C.3        1 MOL1         0.1003
      68    H32     23.412614   24.753841   21.498570 H          1 MOL1         0.0783
      69    O17     24.295572   23.605861   22.974921 O.3        1 MOL1        -0.5519
      70    H33     24.242690   22.671502   23.299928 H          1 MOL1         0.3769
      71    C21     21.905252   23.510082   22.409077 C.3        1 MOL1         0.1053
      72    H34     21.850442   22.507996   22.857446 H          1 MOL1         0.0783
      73    O18     21.586377   24.498102   23.393759 O.3        1 MOL1        -0.5519
      74    H35     22.367517   24.531247   23.989262 H          1 MOL1         0.3769
      75    C22     20.883932   23.576812   21.242455 C.3        1 MOL1         0.1018
      76    H36     20.748680   24.629449   20.961838 H          1 MOL1         0.0783
      77    C23     21.332422   22.765480   19.990721 C.3        1 MOL1         0.1043
      78    H37     21.240954   21.697370   20.224149 H          1 MOL1         0.0783
      79    O19     22.718081   23.066670   19.686222 O.3        1 MOL1        -0.3740
      80    C24     20.484533   23.010891   18.714056 C.3        1 MOL1         0.0138
      81    H38     19.696595   22.249669   18.667880 H          1 MOL1         0.0794
      82    H39     21.122886   22.849634   17.835096 H          1 MOL1         0.0794
      83    O20     19.897656   24.317561   18.657726 O.3        1 MOL1        -0.5486
      84    H40     19.209278   24.361340   19.361891 H          1 MOL1         0.3769
      85    C25     24.910216   17.721444   22.084294 C.3        1 MOL1         0.2972
      86    H41     25.492191   16.825931   22.334486 H          1 MOL1         0.0751
      87    O21     23.541837   17.394472   21.773479 O.3        1 MOL1        -0.3740
      88    C26     24.939684   18.717739   23.269248 C.3        1 MOL1         0.1003
      89    H42     25.983126   19.031734   23.400833 H          1 MOL1         0.0783
      90    O22     24.483391   18.105440   24.484152 O.3        1 MOL1        -0.5519
      91    H43     23.505943   17.933418   24.370922 H          1 MOL1         0.3769
      92    C27     24.100320   19.973337   22.945869 C.3        1 MOL1         0.1053
      93    H44     23.048256   19.668482   22.869177 H          1 MOL1         0.0783
      94    O23     24.246116   20.921018   24.008193 O.3        1 MOL1        -0.5519
      95    H45     24.069220   20.403975   24.826225 H          1 MOL1         0.3769
      96    C28     24.522984   20.608962   21.595910 C.3        1 MOL1         0.1018
      97    H46     25.430705   21.207096   21.750459 H          1 MOL1         0.0783
      98    C29     24.746994   19.560623   20.467438 C.3        1 MOL1         0.1043
      99    H47     23.755958   19.237736   20.132365 H          1 MOL1         0.0783
     100    O24     25.477551   18.398463   20.941265 O.3        1 MOL1        -0.3740
     101    C30     25.477300   20.134198   19.229980 C.3        1 MOL1         0.0138
     102    H48     24.801116   20.833847   18.720164 H          1 MOL1         0.0794
     103    H49     25.683247   19.312607   18.530796 H          1 MOL1         0.0794
     104    O25     26.693200   20.804378   19.584378 O.3        1 MOL1        -0.5486
     105    H50     27.138089   21.075140   18.751603 H          1 MOL1         0.3769
     106    C31     21.192569   14.037572   20.915579 C.3        1 MOL1         0.2972
     107    H51     20.826989   13.088515   20.503642 H          1 MOL1         0.0751
     108    O26     20.161921   14.722531   21.649973 O.3        1 MOL1        -0.3740
     109    C32     22.374670   13.777709   21.884124 C.3        1 MOL1         0.1003
     110    H52     23.128147   13.206311   21.326735 H          1 MOL1         0.0783
     111    O27     21.929926   13.005210   23.009736 O.3        1 MOL1        -0.5519
     112    H53     21.147003   13.483890   23.371247 H          1 MOL1         0.3769
     113    C33     23.041103   15.089914   22.375840 C.3        1 MOL1         0.1053
     114    H54     22.363481   15.575221   23.089803 H          1 MOL1         0.0783
     115    O28     24.271688   14.747314   23.022923 O.3        1 MOL1        -0.5519
     116    H55     24.026707   14.098700   23.717959 H          1 MOL1         0.3769
     117    C34     23.301239   16.087941   21.215259 C.3        1 MOL1         0.1018
     118    H56     24.158914   15.737291   20.626963 H          1 MOL1         0.0783
     119    C35     22.065465   16.224896   20.287463 C.3        1 MOL1         0.1043
     120    H57     21.256527   16.695703   20.860309 H          1 MOL1         0.0783
     121    O29     21.652197   14.907337   19.859218 O.3        1 MOL1        -0.3740
     122    C36     22.298964   17.101511   19.031213 C.3        1 MOL1         0.0138
     123    H58     22.109838   18.147714   19.302483 H          1 MOL1         0.0794
     124    H59     21.552189   16.833701   18.272086 H          1 MOL1         0.0794
     125    O30     23.621018   16.968741   18.491858 O.3        1 MOL1        -0.5486
     126    H60     24.251079   17.263212   19.186552 H          1 MOL1         0.3769
     127    C1      20.621962   17.465345   24.215464 C.2        1 MOL1         0.6021
     128    O1      20.397964   16.299800   24.487592 O.co2      1 MOL1        -0.6904
     129    O2      21.716496   17.981515   24.331428 O.co2      1 MOL1        -0.6904
     130    C2      19.441842   18.349055   23.806408 C.3        1 MOL1        -0.2102
     131    H1      19.584430   19.341560   24.249934 H          1 MOL1         0.0687
     132    H2      18.542246   17.926088   24.269262 H          1 MOL1         0.0687
     133    C3      19.212700   18.477055   22.276679 C.3        1 MOL1        -0.1974
     134    H3      19.203068   17.482370   21.814608 H          1 MOL1         0.0689
     135    H4      18.220723   18.912121   22.108464 H          1 MOL1         0.0689
     136    C4      20.264859   19.363507   21.582094 C.3        1 MOL1        -0.2987
     137    H5      21.264391   18.923158   21.671321 H          1 MOL1         0.0700
     138    H6      20.033676   19.478989   20.516109 H          1 MOL1         0.0700
     139    H7      20.295735   20.360170   22.038439 H          1 MOL1         0.0700
@<TRIPOS>BOND
    1     1     2    1
    2     1     3    1
    3     1     4    1
    4     4     5    1
    5     4     6    1
    6     6     7    1
    7     4     8    1
    8     8     9    1
    9     8    10    1
   10    10    11    1
   11     8    12    1
   12    12    13    1
   13    12    14    1
   14    14    15    1
   15     1    16    1
   16    14    16    1
   17    14    17    1
   18    17    18    1
   19    17    19    1
   20    17    20    1
   21    20    21    1
   22    22    23    1
   23    22    24    1
   24    22    25    1
   25    25    26    1
   26    25    27    1
   27    27    28    1
   28    25    29    1
   29    29    30    1
   30    29    31    1
   31    31    32    1
   32     3    33    1
   33    29    33    1
   34    33    34    1
   35    33    35    1
   36    35    36    1
   37    22    37    1
   38    35    37    1
   39    35    38    1
   40    38    39    1
   41    38    40    1
   42    38    41    1
   43    41    42    1
   44    43    44    1
   45    43    45    1
   46    43    46    1
   47    46    47    1
   48    46    48    1
   49    48    49    1
   50    46    50    1
   51    50    51    1
   52    50    52    1
   53    52    53    1
   54    24    54    1
   55    50    54    1
   56    54    55    1
   57    54    56    1
   58    56    57    1
   59    43    58    1
   60    56    58    1
   61    56    59    1
   62    59    60    1
   63    59    61    1
   64    59    62    1
   65    62    63    1
   66    64    65    1
   67    64    66    1
   68    64    67    1
   69    67    68    1
   70    67    69    1
   71    69    70    1
   72    67    71    1
   73    71    72    1
   74    71    73    1
   75    73    74    1
   76    45    75    1
   77    71    75    1
   78    75    76    1
   79    75    77    1
   80    77    78    1
   81    64    79    1
   82    77    79    1
   83    77    80    1
   84    80    81    1
   85    80    82    1
   86    80    83    1
   87    83    84    1
   88    85    86    1
   89    85    87    1
   90    85    88    1
   91    88    89    1
   92    88    90    1
   93    90    91    1
   94    88    92    1
   95    92    93    1
   96    92    94    1
   97    94    95    1
   98    66    96    1
   99    92    96    1
  100    96    97    1
  101    96    98    1
  102    98    99    1
  103    85   100    1
  104    98   100    1
  105    98   101    1
  106   101   102    1
  107   101   103    1
  108   101   104    1
  109   104   105    1
  110   106   107    1
  111    12   108    1
  112   106   108    1
  113   106   109    1
  114   109   110    1
  115   109   111    1
  116   111   112    1
  117   109   113    1
  118   113   114    1
  119   113   115    1
  120   115   116    1
  121    87   117    1
  122   113   117    1
  123   117   118    1
  124   117   119    1
  125   119   120    1
  126   106   121    1
  127   119   121    1
  128   119   122    1
  129   122   123    1
  130   122   124    1
  131   122   125    1
  132   125   126    1
  133   127   128    1
  134   127   129    2
  135   127   130    1
  136   130   131    1
  137   130   132    1
  138   130   133    1
  139   133   134    1
  140   133   135    1
  141   133   136    1
  142   136   137    1
  143   136   138    1
  144   136   139    1
@<TRIPOS>SUBSTRUCTURE
       1 MOL1            1 RESIDUE      1      MOL     
       2 MOL1          139 RESIDUE      1      MOL     
@<SCITEGIC>MOL_PROPERTY
feprocess Rank
SciTegic.value.IntegerValue
48

@<SCITEGIC>MOL_PROPERTY
Conf_Id
SciTegic.value.IntegerValue
503

@<SCITEGIC>MOL_PROPERTY
Probability
SciTegic.value.DoubleValue
0.00

@<SCITEGIC>MOL_PROPERTY
G
SciTegic.value.DoubleValue
488.818

@<SCITEGIC>MOL_PROPERTY
E
SciTegic.value.DoubleValue
312.413

@<SCITEGIC>MOL_PROPERTY
-TS
SciTegic.value.DoubleValue
176.404

@<SCITEGIC>MOL_PROPERTY
U+W
SciTegic.value.DoubleValue
189.902

@<SCITEGIC>MOL_PROPERTY
U
SciTegic.value.DoubleValue
265.088

@<SCITEGIC>MOL_PROPERTY
W
SciTegic.value.DoubleValue
-75.185

@<SCITEGIC>MOL_PROPERTY
W(PB)
SciTegic.value.DoubleValue
-81.081

@<SCITEGIC>MOL_PROPERTY
W(SA)
SciTegic.value.DoubleValue
5.896

@<SCITEGIC>MOL_PROPERTY
Valence
SciTegic.value.DoubleValue
151.014

@<SCITEGIC>MOL_PROPERTY
Coulomb
SciTegic.value.DoubleValue
136.486

@<SCITEGIC>MOL_PROPERTY
VdW
SciTegic.value.DoubleValue
-22.413

@<SCITEGIC>MOL_PROPERTY
VdW6
SciTegic.value.DoubleValue
-176.068

@<SCITEGIC>MOL_PROPERTY
VdW12
SciTegic.value.DoubleValue
153.655

@<SCITEGIC>MOL_PROPERTY
Bond
SciTegic.value.DoubleValue
4.919

@<SCITEGIC>MOL_PROPERTY
Angle
SciTegic.value.DoubleValue
14.971

@<SCITEGIC>MOL_PROPERTY
Pdih
SciTegic.value.DoubleValue
131.109

@<SCITEGIC>MOL_PROPERTY
Idih
SciTegic.value.DoubleValue
0.015

@<SCITEGIC>MOL_PROPERTY
Tether
SciTegic.value.DoubleValue
0.000

@<TRIPOS>MOLECULE
CD_guest-6_fast_vm2_rndm.mol2 : feprocess host+ligand conformer 49
         139         144           2
SMALL
USER_CHARGES
 
@<TRIPOS>ATOM
       1    C1      16.285822   15.479318   20.281281 C.3        1 MOL1         0.2972
       2    H1      15.307873   15.371228   19.794769 H          1 MOL1         0.0751
       3    O1      16.415993   16.759020   20.925965 O.3        1 MOL1        -0.3740
       4    C2      16.510095   14.364511   21.338267 C.3        1 MOL1         0.1003
       5    H2      16.439360   13.403839   20.811856 H          1 MOL1         0.0783
       6    O2      15.507747   14.405623   22.366404 O.3        1 MOL1        -0.5519
       7    H3      15.506088   15.323180   22.740987 H          1 MOL1         0.3769
       8    C3      17.927358   14.458758   21.959357 C.3        1 MOL1         0.1053
       9    H4      17.981865   15.377057   22.560551 H          1 MOL1         0.0783
      10    O3      18.152639   13.316367   22.792680 O.3        1 MOL1        -0.5519
      11    H5      17.345738   13.239600   23.348160 H          1 MOL1         0.3769
      12    C4      19.017350   14.529297   20.859638 C.3        1 MOL1         0.1018
      13    H6      19.068870   13.548117   20.369796 H          1 MOL1         0.0783
      14    C5      18.682616   15.611672   19.793449 C.3        1 MOL1         0.1043
      15    H7      18.728698   16.595623   20.273779 H          1 MOL1         0.0783
      16    O4      17.340064   15.377987   19.300350 O.3        1 MOL1        -0.3740
      17    C6      19.632298   15.664193   18.570597 C.3        1 MOL1         0.0138
      18    H8      20.478992   16.316044   18.814894 H          1 MOL1         0.0794
      19    H9      19.098978   16.141375   17.737656 H          1 MOL1         0.0794
      20    O5      20.111818   14.375931   18.170119 O.3        1 MOL1        -0.5486
      21    H10     20.877184   14.167044   18.754106 H          1 MOL1         0.3769
      22    C7      14.553398   20.301399   21.748805 C.3        1 MOL1         0.2972
      23    H11     13.898661   21.159289   21.946872 H          1 MOL1         0.0751
      24    O6      15.938277   20.688465   21.642311 O.3        1 MOL1        -0.3740
      25    C8      14.425982   19.255349   22.882025 C.3        1 MOL1         0.1003
      26    H12     13.397315   18.872268   22.864622 H          1 MOL1         0.0783
      27    O7      14.685855   19.845362   24.165064 O.3        1 MOL1        -0.5519
      28    H13     15.356165   20.561632   24.029002 H          1 MOL1         0.3769
      29    C9      15.380394   18.067326   22.624986 C.3        1 MOL1         0.1053
      30    H14     16.409877   18.435340   22.714536 H          1 MOL1         0.0783
      31    O8      15.146996   17.049950   23.604501 O.3        1 MOL1        -0.5519
      32    H15     15.124653   17.528586   24.463189 H          1 MOL1         0.3769
      33    C10     15.200198   17.480284   21.202182 C.3        1 MOL1         0.1018
      34    H16     14.322864   16.819995   21.209807 H          1 MOL1         0.0783
      35    C11     15.048301   18.565409   20.092037 C.3        1 MOL1         0.1043
      36    H17     16.042594   18.980901   19.888950 H          1 MOL1         0.0783
      37    O9      14.175817   19.643204   20.522492 O.3        1 MOL1        -0.3740
      38    C12     14.514157   18.009296   18.750506 C.3        1 MOL1         0.0138
      39    H18     15.300537   17.396596   18.289303 H          1 MOL1         0.0794
      40    H19     14.320594   18.852967   18.074539 H          1 MOL1         0.0794
      41    O10     13.326026   17.226878   18.922995 O.3        1 MOL1        -0.5486
      42    H20     13.001068   16.977461   18.030314 H          1 MOL1         0.3769
      43    C13     18.524859   23.937079   21.486616 C.3        1 MOL1         0.2972
      44    H21     18.965525   24.940921   21.429106 H          1 MOL1         0.0751
      45    O11     19.536813   22.913469   21.457843 O.3        1 MOL1        -0.3740
      46    C14     17.733267   23.786996   22.808278 C.3        1 MOL1         0.1003
      47    H22     16.937699   24.543418   22.804071 H          1 MOL1         0.0783
      48    O12     18.591047   24.009065   23.939348 O.3        1 MOL1        -0.5519
      49    H23     19.520790   23.947946   23.608382 H          1 MOL1         0.3769
      50    C15     17.068715   22.393208   22.895947 C.3        1 MOL1         0.1053
      51    H24     17.862386   21.636445   22.971261 H          1 MOL1         0.0783
      52    O13     16.237810   22.342557   24.059072 O.3        1 MOL1        -0.5519
      53    H25     16.785004   22.739177   24.774001 H          1 MOL1         0.3769
      54    C16     16.231660   22.097064   21.626952 C.3        1 MOL1         0.1018
      55    H26     15.323413   22.712853   21.648164 H          1 MOL1         0.0783
      56    C17     17.027112   22.384900   20.323184 C.3        1 MOL1         0.1043
      57    H27     17.823534   21.637621   20.246178 H          1 MOL1         0.0783
      58    O14     17.624454   23.706677   20.379539 O.3        1 MOL1        -0.3740
      59    C18     16.184080   22.268663   19.029223 C.3        1 MOL1         0.0138
      60    H28     16.032074   21.204378   18.805814 H          1 MOL1         0.0794
      61    H29     16.761687   22.693185   18.197267 H          1 MOL1         0.0794
      62    O15     14.914640   22.923524   19.131951 O.3        1 MOL1        -0.5486
      63    H30     14.302860   22.301686   19.581956 H          1 MOL1         0.3769
      64    C19     23.601036   22.446070   20.602532 C.3        1 MOL1         0.2972
      65    H31     24.617918   22.558544   20.204732 H          1 MOL1         0.0751
      66    O16     23.431558   21.190386   21.284950 O.3        1 MOL1        -0.3740
      67    C20     23.253522   23.586152   21.598628 C.3        1 MOL1         0.1003
      68    H32     23.323759   24.532496   21.046762 H          1 MOL1         0.0783
      69    O17     24.172686   23.620293   22.701718 O.3        1 MOL1        -0.5519
      70    H33     24.184633   22.715868   23.106551 H          1 MOL1         0.3769
      71    C21     21.797425   23.440118   22.110599 C.3        1 MOL1         0.1053
      72    H34     21.733205   22.523465   22.713692 H          1 MOL1         0.0783
      73    O18     21.451546   24.573814   22.913179 O.3        1 MOL1        -0.5519
      74    H35     22.230759   24.723810   23.494109 H          1 MOL1         0.3769
      75    C22     20.811616   23.309463   20.923316 C.3        1 MOL1         0.1018
      76    H36     20.756127   24.274454   20.402263 H          1 MOL1         0.0783
      77    C23     21.263499   22.219279   19.915494 C.3        1 MOL1         0.1043
      78    H37     21.212666   21.242849   20.413755 H          1 MOL1         0.0783
      79    O19     22.634223   22.487631   19.526983 O.3        1 MOL1        -0.3740
      80    C24     20.384291   22.117578   18.641552 C.3        1 MOL1         0.0138
      81    H38     19.570021   21.409105   18.839686 H          1 MOL1         0.0794
      82    H39     20.988747   21.686700   17.832378 H          1 MOL1         0.0794
      83    O20     19.833203   23.375054   18.229869 O.3        1 MOL1        -0.5486
      84    H40     19.135132   23.614941   18.882797 H          1 MOL1         0.3769
      85    C25     25.125573   17.660404   22.419424 C.3        1 MOL1         0.2972
      86    H41     25.745670   16.806252   22.720429 H          1 MOL1         0.0751
      87    O21     23.754952   17.262831   22.209485 O.3        1 MOL1        -0.3740
      88    C26     25.199124   18.765973   23.503713 C.3        1 MOL1         0.1003
      89    H42     26.241563   19.107716   23.540796 H          1 MOL1         0.0783
      90    O22     24.832456   18.264820   24.797771 O.3        1 MOL1        -0.5519
      91    H43     23.845364   18.123214   24.792286 H          1 MOL1         0.3769
      92    C27     24.318487   19.974352   23.118327 C.3        1 MOL1         0.1053
      93    H44     23.273724   19.647425   23.147019 H          1 MOL1         0.0783
      94    O23     24.511987   21.035533   24.059359 O.3        1 MOL1        -0.5519
      95    H45     24.391363   20.615518   24.940497 H          1 MOL1         0.3769
      96    C28     24.617206   20.479428   21.686154 C.3        1 MOL1         0.1018
      97    H46     25.504109   21.126333   21.713610 H          1 MOL1         0.0783
      98    C29     24.805445   19.330776   20.654162 C.3        1 MOL1         0.1043
      99    H47     23.803559   18.950035   20.427909 H          1 MOL1         0.0783
     100    O24     25.608678   18.244192   21.190319 O.3        1 MOL1        -0.3740
     101    C30     25.430403   19.794478   19.316802 C.3        1 MOL1         0.0138
     102    H48     24.694506   20.410385   18.782371 H          1 MOL1         0.0794
     103    H49     25.627842   18.910912   18.694983 H          1 MOL1         0.0794
     104    O25     26.636033   20.541821   19.517311 O.3        1 MOL1        -0.5486
     105    H50     27.019393   20.732731   18.633417 H          1 MOL1         0.3769
     106    C31     21.360053   13.970084   21.277842 C.3        1 MOL1         0.2972
     107    H51     21.006039   12.976550   20.974587 H          1 MOL1         0.0751
     108    O26     20.255872   14.865005   21.522734 O.3        1 MOL1        -0.3740
     109    C32     22.192372   13.838999   22.575576 C.3        1 MOL1         0.1003
     110    H52     23.008057   13.134083   22.368769 H          1 MOL1         0.0783
     111    O27     21.374312   13.316356   23.633526 O.3        1 MOL1        -0.5519
     112    H53     20.484840   13.731565   23.527234 H          1 MOL1         0.3769
     113    C33     22.829265   15.185914   22.994645 C.3        1 MOL1         0.1053
     114    H54     22.026717   15.842470   23.353240 H          1 MOL1         0.0783
     115    O28     23.770375   14.938382   24.044058 O.3        1 MOL1        -0.5519
     116    H55     23.256509   14.495090   24.753190 H          1 MOL1         0.3769
     117    C34     23.539640   15.891528   21.809777 C.3        1 MOL1         0.1018
     118    H56     24.484376   15.369291   21.609988 H          1 MOL1         0.0783
     119    C35     22.669735   15.888907   20.518785 C.3        1 MOL1         0.1043
     120    H57     21.808814   16.548860   20.689593 H          1 MOL1         0.0783
     121    O29     22.200265   14.543040   20.256328 O.3        1 MOL1        -0.3740
     122    C36     23.386004   16.385537   19.234305 C.3        1 MOL1         0.0138
     123    H58     23.191951   17.456810   19.111869 H          1 MOL1         0.0794
     124    H59     22.928431   15.890973   18.366965 H          1 MOL1         0.0794
     125    O30     24.797496   16.141001   19.237810 O.3        1 MOL1        -0.5486
     126    H60     25.199711   16.753013   19.898239 H          1 MOL1         0.3769
     127    C1      21.003131   18.056478   24.393920 C.2        1 MOL1         0.6021
     128    O1      20.238615   17.206342   24.807096 O.co2      1 MOL1        -0.6904
     129    O2      22.042985   18.348093   24.951911 O.co2      1 MOL1        -0.6904
     130    C2      20.708588   18.759674   23.066863 C.3        1 MOL1        -0.2102
     131    H1      21.447977   18.410712   22.340599 H          1 MOL1         0.0687
     132    H2      20.880697   19.832675   23.212689 H          1 MOL1         0.0687
     133    C3      19.289089   18.537071   22.496091 C.3        1 MOL1        -0.1974
     134    H3      19.092535   17.461283   22.405906 H          1 MOL1         0.0689
     135    H4      18.550225   18.940580   23.200668 H          1 MOL1         0.0689
     136    C4      19.131995   19.214356   21.122829 C.3        1 MOL1        -0.2987
     137    H5      19.860107   18.821824   20.401941 H          1 MOL1         0.0700
     138    H6      18.126425   19.046653   20.722846 H          1 MOL1         0.0700
     139    H7      19.286834   20.292760   21.219166 H          1 MOL1         0.0700
@<TRIPOS>BOND
    1     1     2    1
    2     1     3    1
    3     1     4    1
    4     4     5    1
    5     4     6    1
    6     6     7    1
    7     4     8    1
    8     8     9    1
    9     8    10    1
   10    10    11    1
   11     8    12    1
   12    12    13    1
   13    12    14    1
   14    14    15    1
   15     1    16    1
   16    14    16    1
   17    14    17    1
   18    17    18    1
   19    17    19    1
   20    17    20    1
   21    20    21    1
   22    22    23    1
   23    22    24    1
   24    22    25    1
   25    25    26    1
   26    25    27    1
   27    27    28    1
   28    25    29    1
   29    29    30    1
   30    29    31    1
   31    31    32    1
   32     3    33    1
   33    29    33    1
   34    33    34    1
   35    33    35    1
   36    35    36    1
   37    22    37    1
   38    35    37    1
   39    35    38    1
   40    38    39    1
   41    38    40    1
   42    38    41    1
   43    41    42    1
   44    43    44    1
   45    43    45    1
   46    43    46    1
   47    46    47    1
   48    46    48    1
   49    48    49    1
   50    46    50    1
   51    50    51    1
   52    50    52    1
   53    52    53    1
   54    24    54    1
   55    50    54    1
   56    54    55    1
   57    54    56    1
   58    56    57    1
   59    43    58    1
   60    56    58    1
   61    56    59    1
   62    59    60    1
   63    59    61    1
   64    59    62    1
   65    62    63    1
   66    64    65    1
   67    64    66    1
   68    64    67    1
   69    67    68    1
   70    67    69    1
   71    69    70    1
   72    67    71    1
   73    71    72    1
   74    71    73    1
   75    73    74    1
   76    45    75    1
   77    71    75    1
   78    75    76    1
   79    75    77    1
   80    77    78    1
   81    64    79    1
   82    77    79    1
   83    77    80    1
   84    80    81    1
   85    80    82    1
   86    80    83    1
   87    83    84    1
   88    85    86    1
   89    85    87    1
   90    85    88    1
   91    88    89    1
   92    88    90    1
   93    90    91    1
   94    88    92    1
   95    92    93    1
   96    92    94    1
   97    94    95    1
   98    66    96    1
   99    92    96    1
  100    96    97    1
  101    96    98    1
  102    98    99    1
  103    85   100    1
  104    98   100    1
  105    98   101    1
  106   101   102    1
  107   101   103    1
  108   101   104    1
  109   104   105    1
  110   106   107    1
  111    12   108    1
  112   106   108    1
  113   106   109    1
  114   109   110    1
  115   109   111    1
  116   111   112    1
  117   109   113    1
  118   113   114    1
  119   113   115    1
  120   115   116    1
  121    87   117    1
  122   113   117    1
  123   117   118    1
  124   117   119    1
  125   119   120    1
  126   106   121    1
  127   119   121    1
  128   119   122    1
  129   122   123    1
  130   122   124    1
  131   122   125    1
  132   125   126    1
  133   127   128    1
  134   127   129    2
  135   127   130    1
  136   130   131    1
  137   130   132    1
  138   130   133    1
  139   133   134    1
  140   133   135    1
  141   133   136    1
  142   136   137    1
  143   136   138    1
  144   136   139    1
@<TRIPOS>SUBSTRUCTURE
       1 MOL1            1 RESIDUE      1      MOL     
       2 MOL1          139 RESIDUE      1      MOL     
@<SCITEGIC>MOL_PROPERTY
feprocess Rank
SciTegic.value.IntegerValue
49

@<SCITEGIC>MOL_PROPERTY
Conf_Id
SciTegic.value.IntegerValue
965

@<SCITEGIC>MOL_PROPERTY
Probability
SciTegic.value.DoubleValue
0.00

@<SCITEGIC>MOL_PROPERTY
G
SciTegic.value.DoubleValue
488.877

@<SCITEGIC>MOL_PROPERTY
E
SciTegic.value.DoubleValue
314.631

@<SCITEGIC>MOL_PROPERTY
-TS
SciTegic.value.DoubleValue
174.246

@<SCITEGIC>MOL_PROPERTY
U+W
SciTegic.value.DoubleValue
192.120

@<SCITEGIC>MOL_PROPERTY
U
SciTegic.value.DoubleValue
274.623

@<SCITEGIC>MOL_PROPERTY
W
SciTegic.value.DoubleValue
-82.503

@<SCITEGIC>MOL_PROPERTY
W(PB)
SciTegic.value.DoubleValue
-88.456

@<SCITEGIC>MOL_PROPERTY
W(SA)
SciTegic.value.DoubleValue
5.953

@<SCITEGIC>MOL_PROPERTY
Valence
SciTegic.value.DoubleValue
154.452

@<SCITEGIC>MOL_PROPERTY
Coulomb
SciTegic.value.DoubleValue
143.085

@<SCITEGIC>MOL_PROPERTY
VdW
SciTegic.value.DoubleValue
-22.914

@<SCITEGIC>MOL_PROPERTY
VdW6
SciTegic.value.DoubleValue
-172.867

@<SCITEGIC>MOL_PROPERTY
VdW12
SciTegic.value.DoubleValue
149.953

@<SCITEGIC>MOL_PROPERTY
Bond
SciTegic.value.DoubleValue
4.812

@<SCITEGIC>MOL_PROPERTY
Angle
SciTegic.value.DoubleValue
14.252

@<SCITEGIC>MOL_PROPERTY
Pdih
SciTegic.value.DoubleValue
135.380

@<SCITEGIC>MOL_PROPERTY
Idih
SciTegic.value.DoubleValue
0.008

@<SCITEGIC>MOL_PROPERTY
Tether
SciTegic.value.DoubleValue
0.000

@<TRIPOS>MOLECULE
CD_guest-6_fast_vm2_rndm.mol2 : feprocess host+ligand conformer 50
         139         144           2
SMALL
USER_CHARGES
 
@<TRIPOS>ATOM
       1    C1      16.137091   15.307299   20.323752 C.3        1 MOL1         0.2972
       2    H1      15.115135   15.210688   19.935363 H          1 MOL1         0.0751
       3    O1      16.392858   16.642080   20.806943 O.3        1 MOL1        -0.3740
       4    C2      16.418607   14.268426   21.444918 C.3        1 MOL1         0.1003
       5    H2      16.331793   13.274941   20.986021 H          1 MOL1         0.0783
       6    O2      15.471174   14.356714   22.518880 O.3        1 MOL1        -0.5519
       7    H3      15.605754   15.239476   22.947708 H          1 MOL1         0.3769
       8    C3      17.868546   14.417558   21.970668 C.3        1 MOL1         0.1053
       9    H4      17.963627   15.396040   22.463492 H          1 MOL1         0.0783
      10    O3      18.152501   13.370323   22.905798 O.3        1 MOL1        -0.5519
      11    H5      17.379692   13.349743   23.512437 H          1 MOL1         0.3769
      12    C4      18.884614   14.358928   20.803101 C.3        1 MOL1         0.1018
      13    H6      18.930774   13.321725   20.446470 H          1 MOL1         0.0783
      14    C5      18.483328   15.293752   19.625630 C.3        1 MOL1         0.1043
      15    H7      18.587941   16.330903   19.961898 H          1 MOL1         0.0783
      16    O4      17.096541   15.050455   19.272528 O.3        1 MOL1        -0.3740
      17    C6      19.353341   15.158178   18.350471 C.3        1 MOL1         0.0138
      18    H8      20.230450   15.808770   18.459387 H          1 MOL1         0.0794
      19    H9      18.779413   15.539049   17.495241 H          1 MOL1         0.0794
      20    O5      19.782436   13.816014   18.096722 O.3        1 MOL1        -0.5486
      21    H10     20.630413   13.697284   18.580780 H          1 MOL1         0.3769
      22    C7      14.912002   20.201695   22.175308 C.3        1 MOL1         0.2972
      23    H11     14.346526   21.060522   22.558341 H          1 MOL1         0.0751
      24    O6      16.231072   20.586758   21.738621 O.3        1 MOL1        -0.3740
      25    C8      15.037682   19.117804   23.273542 C.3        1 MOL1         0.1003
      26    H12     14.026570   18.746817   23.483747 H          1 MOL1         0.0783
      27    O7      15.586301   19.669290   24.480308 O.3        1 MOL1        -0.5519
      28    H13     16.560182   19.817387   24.325335 H          1 MOL1         0.3769
      29    C9      15.880918   17.933238   22.747091 C.3        1 MOL1         0.1053
      30    H14     16.887765   18.308664   22.535632 H          1 MOL1         0.0783
      31    O8      15.969099   16.899182   23.732375 O.3        1 MOL1        -0.5519
      32    H15     16.753171   17.164381   24.287060 H          1 MOL1         0.3769
      33    C10     15.311894   17.374341   21.418462 C.3        1 MOL1         0.1018
      34    H16     14.443408   16.738571   21.634590 H          1 MOL1         0.0783
      35    C11     14.930570   18.495957   20.407543 C.3        1 MOL1         0.1043
      36    H17     15.866778   18.876280   19.984487 H          1 MOL1         0.0783
      37    O9      14.233603   19.596392   21.052074 O.3        1 MOL1        -0.3740
      38    C12     14.071964   17.992388   19.223386 C.3        1 MOL1         0.0138
      39    H18     14.698667   17.354478   18.585579 H          1 MOL1         0.0794
      40    H19     13.765418   18.856624   18.618824 H          1 MOL1         0.0794
      41    O10     12.922736   17.259267   19.664613 O.3        1 MOL1        -0.5486
      42    H20     12.387712   17.037386   18.871350 H          1 MOL1         0.3769
      43    C13     18.477620   24.022660   20.997260 C.3        1 MOL1         0.2972
      44    H21     18.804033   25.020259   20.677211 H          1 MOL1         0.0751
      45    O11     19.581054   23.247714   21.504006 O.3        1 MOL1        -0.3740
      46    C14     17.442473   24.158927   22.139972 C.3        1 MOL1         0.1003
      47    H22     16.615674   24.772446   21.759117 H          1 MOL1         0.0783
      48    O12     18.041480   24.818927   23.266862 O.3        1 MOL1        -0.5519
      49    H23     18.970558   24.487437   23.320770 H          1 MOL1         0.3769
      50    C15     16.858069   22.786609   22.562166 C.3        1 MOL1         0.1053
      51    H24     17.640725   22.219160   23.085873 H          1 MOL1         0.0783
      52    O13     15.749091   23.024759   23.435641 O.3        1 MOL1        -0.5519
      53    H25     16.106348   23.582899   24.159845 H          1 MOL1         0.3769
      54    C16     16.402374   21.957292   21.331863 C.3        1 MOL1         0.1018
      55    H26     15.468716   22.382389   20.941493 H          1 MOL1         0.0783
      56    C17     17.471568   21.948666   20.206434 C.3        1 MOL1         0.1043
      57    H27     18.344468   21.393743   20.572847 H          1 MOL1         0.0783
      58    O14     17.863781   23.309614   19.902212 O.3        1 MOL1        -0.3740
      59    C18     17.013090   21.254763   18.897261 C.3        1 MOL1         0.0138
      60    H28     17.255315   20.187114   18.972161 H          1 MOL1         0.0794
      61    H29     17.601442   21.653429   18.060444 H          1 MOL1         0.0794
      62    O15     15.613276   21.416290   18.632566 O.3        1 MOL1        -0.5486
      63    H30     15.124170   20.981744   19.367284 H          1 MOL1         0.3769
      64    C19     23.691332   22.699217   20.988229 C.3        1 MOL1         0.2972
      65    H31     24.749449   22.804895   20.715974 H          1 MOL1         0.0751
      66    O16     23.408513   21.402847   21.543645 O.3        1 MOL1        -0.3740
      67    C20     23.277732   23.757525   22.042270 C.3        1 MOL1         0.1003
      68    H32     23.456293   24.747157   21.602156 H          1 MOL1         0.0783
      69    O17     24.061156   23.623640   23.239733 O.3        1 MOL1        -0.5519
      70    H33     24.045294   22.666772   23.496913 H          1 MOL1         0.3769
      71    C21     21.767434   23.644634   22.371310 C.3        1 MOL1         0.1053
      72    H34     21.600034   22.692023   22.893664 H          1 MOL1         0.0783
      73    O18     21.383188   24.734811   23.216923 O.3        1 MOL1        -0.5519
      74    H35     22.072076   24.771871   23.916843 H          1 MOL1         0.3769
      75    C22     20.901735   23.646497   21.085475 C.3        1 MOL1         0.1018
      76    H36     20.911028   24.662384   20.669471 H          1 MOL1         0.0783
      77    C23     21.438850   22.639924   20.025451 C.3        1 MOL1         0.1043
      78    H37     21.294975   21.623909   20.410256 H          1 MOL1         0.0783
      79    O19     22.853948   22.878351   19.825588 O.3        1 MOL1        -0.3740
      80    C24     20.747723   22.688673   18.639837 C.3        1 MOL1         0.0138
      81    H38     19.878545   22.020577   18.662177 H          1 MOL1         0.0794
      82    H39     21.439669   22.279593   17.891652 H          1 MOL1         0.0794
      83    O20     20.335116   24.004796   18.256962 O.3        1 MOL1        -0.5486
      84    H40     19.422810   24.121778   18.606235 H          1 MOL1         0.3769
      85    C25     24.984931   17.665766   22.209186 C.3        1 MOL1         0.2972
      86    H41     25.609534   16.781432   22.389936 H          1 MOL1         0.0751
      87    O21     23.603552   17.308529   22.005979 O.3        1 MOL1        -0.3740
      88    C26     25.069982   18.619431   23.424416 C.3        1 MOL1         0.1003
      89    H42     26.116995   18.932459   23.528737 H          1 MOL1         0.0783
      90    O22     24.653022   17.944331   24.621991 O.3        1 MOL1        -0.5519
      91    H43     24.074229   17.193284   24.340382 H          1 MOL1         0.3769
      92    C27     24.213046   19.883139   23.188730 C.3        1 MOL1         0.1053
      93    H44     23.160915   19.574909   23.185077 H          1 MOL1         0.0783
      94    O23     24.434988   20.819143   24.249013 O.3        1 MOL1        -0.5519
      95    H45     24.373063   20.286138   25.072854 H          1 MOL1         0.3769
      96    C28     24.530881   20.548595   21.826637 C.3        1 MOL1         0.1018
      97    H46     25.467297   21.113805   21.923911 H          1 MOL1         0.0783
      98    C29     24.632809   19.526689   20.657787 C.3        1 MOL1         0.1043
      99    H47     23.614659   19.189332   20.426440 H          1 MOL1         0.0783
     100    O24     25.436635   18.380473   21.040851 O.3        1 MOL1        -0.3740
     101    C30     25.223599   20.123257   19.357963 C.3        1 MOL1         0.0138
     102    H48     24.485417   20.809018   18.920883 H          1 MOL1         0.0794
     103    H49     25.377687   19.309267   18.636824 H          1 MOL1         0.0794
     104    O25     26.453769   20.819103   19.594461 O.3        1 MOL1        -0.5486
     105    H50     26.806039   21.105715   18.723712 H          1 MOL1         0.3769
     106    C31     21.277472   13.945979   21.107641 C.3        1 MOL1         0.2972
     107    H51     20.966714   12.935784   20.812525 H          1 MOL1         0.0751
     108    O26     20.143598   14.801676   21.344785 O.3        1 MOL1        -0.3740
     109    C32     22.091122   13.876538   22.424933 C.3        1 MOL1         0.1003
     110    H52     22.955547   13.223724   22.247078 H          1 MOL1         0.0783
     111    O27     21.286463   13.323326   23.478790 O.3        1 MOL1        -0.5519
     112    H53     20.357410   13.621669   23.315432 H          1 MOL1         0.3769
     113    C33     22.621112   15.274265   22.825218 C.3        1 MOL1         0.1053
     114    H54     21.760547   15.902726   23.088722 H          1 MOL1         0.0783
     115    O28     23.497709   15.153526   23.950642 O.3        1 MOL1        -0.5519
     116    H55     23.025974   14.561341   24.578017 H          1 MOL1         0.3769
     117    C34     23.364642   15.936871   21.641200 C.3        1 MOL1         0.1018
     118    H56     24.299109   15.388668   21.462401 H          1 MOL1         0.0783
     119    C35     22.511766   15.913931   20.343997 C.3        1 MOL1         0.1043
     120    H57     21.626109   16.538744   20.506713 H          1 MOL1         0.0783
     121    O29     22.096032   14.549303   20.080516 O.3        1 MOL1        -0.3740
     122    C36     23.229058   16.467107   19.085156 C.3        1 MOL1         0.0138
     123    H58     23.053229   17.548696   19.032562 H          1 MOL1         0.0794
     124    H59     22.761634   16.027165   18.194250 H          1 MOL1         0.0794
     125    O30     24.638331   16.209848   19.076707 O.3        1 MOL1        -0.5486
     126    H60     25.050593   16.838118   19.714727 H          1 MOL1         0.3769
     127    C1      18.952955   18.898118   24.119263 C.2        1 MOL1         0.6021
     128    O1      18.354066   19.951338   24.220744 O.co2      1 MOL1        -0.6904
     129    O2      18.502966   17.837646   24.510983 O.co2      1 MOL1        -0.6904
     130    C2      20.327226   18.897165   23.452334 C.3        1 MOL1        -0.2102
     131    H1      20.668046   17.860394   23.362775 H          1 MOL1         0.0687
     132    H2      21.013392   19.398548   24.143701 H          1 MOL1         0.0687
     133    C3      20.391311   19.593982   22.067673 C.3        1 MOL1        -0.1974
     134    H3      20.037348   20.628483   22.165299 H          1 MOL1         0.0689
     135    H4      21.436944   19.641244   21.744824 H          1 MOL1         0.0689
     136    C4      19.582242   18.861365   20.981117 C.3        1 MOL1        -0.2987
     137    H5      18.508268   18.912758   21.191794 H          1 MOL1         0.0700
     138    H6      19.757664   19.309048   19.995207 H          1 MOL1         0.0700
     139    H7      19.871474   17.807009   20.939397 H          1 MOL1         0.0700
@<TRIPOS>BOND
    1     1     2    1
    2     1     3    1
    3     1     4    1
    4     4     5    1
    5     4     6    1
    6     6     7    1
    7     4     8    1
    8     8     9    1
    9     8    10    1
   10    10    11    1
   11     8    12    1
   12    12    13    1
   13    12    14    1
   14    14    15    1
   15     1    16    1
   16    14    16    1
   17    14    17    1
   18    17    18    1
   19    17    19    1
   20    17    20    1
   21    20    21    1
   22    22    23    1
   23    22    24    1
   24    22    25    1
   25    25    26    1
   26    25    27    1
   27    27    28    1
   28    25    29    1
   29    29    30    1
   30    29    31    1
   31    31    32    1
   32     3    33    1
   33    29    33    1
   34    33    34    1
   35    33    35    1
   36    35    36    1
   37    22    37    1
   38    35    37    1
   39    35    38    1
   40    38    39    1
   41    38    40    1
   42    38    41    1
   43    41    42    1
   44    43    44    1
   45    43    45    1
   46    43    46    1
   47    46    47    1
   48    46    48    1
   49    48    49    1
   50    46    50    1
   51    50    51    1
   52    50    52    1
   53    52    53    1
   54    24    54    1
   55    50    54    1
   56    54    55    1
   57    54    56    1
   58    56    57    1
   59    43    58    1
   60    56    58    1
   61    56    59    1
   62    59    60    1
   63    59    61    1
   64    59    62    1
   65    62    63    1
   66    64    65    1
   67    64    66    1
   68    64    67    1
   69    67    68    1
   70    67    69    1
   71    69    70    1
   72    67    71    1
   73    71    72    1
   74    71    73    1
   75    73    74    1
   76    45    75    1
   77    71    75    1
   78    75    76    1
   79    75    77    1
   80    77    78    1
   81    64    79    1
   82    77    79    1
   83    77    80    1
   84    80    81    1
   85    80    82    1
   86    80    83    1
   87    83    84    1
   88    85    86    1
   89    85    87    1
   90    85    88    1
   91    88    89    1
   92    88    90    1
   93    90    91    1
   94    88    92    1
   95    92    93    1
   96    92    94    1
   97    94    95    1
   98    66    96    1
   99    92    96    1
  100    96    97    1
  101    96    98    1
  102    98    99    1
  103    85   100    1
  104    98   100    1
  105    98   101    1
  106   101   102    1
  107   101   103    1
  108   101   104    1
  109   104   105    1
  110   106   107    1
  111    12   108    1
  112   106   108    1
  113   106   109    1
  114   109   110    1
  115   109   111    1
  116   111   112    1
  117   109   113    1
  118   113   114    1
  119   113   115    1
  120   115   116    1
  121    87   117    1
  122   113   117    1
  123   117   118    1
  124   117   119    1
  125   119   120    1
  126   106   121    1
  127   119   121    1
  128   119   122    1
  129   122   123    1
  130   122   124    1
  131   122   125    1
  132   125   126    1
  133   127   128    1
  134   127   129    2
  135   127   130    1
  136   130   131    1
  137   130   132    1
  138   130   133    1
  139   133   134    1
  140   133   135    1
  141   133   136    1
  142   136   137    1
  143   136   138    1
  144   136   139    1
@<TRIPOS>SUBSTRUCTURE
       1 MOL1            1 RESIDUE      1      MOL     
       2 MOL1          139 RESIDUE      1      MOL     
@<SCITEGIC>MOL_PROPERTY
feprocess Rank
SciTegic.value.IntegerValue
50

@<SCITEGIC>MOL_PROPERTY
Conf_Id
SciTegic.value.IntegerValue
795

@<SCITEGIC>MOL_PROPERTY
Probability
SciTegic.value.DoubleValue
0.00

@<SCITEGIC>MOL_PROPERTY
G
SciTegic.value.DoubleValue
488.977

@<SCITEGIC>MOL_PROPERTY
E
SciTegic.value.DoubleValue
313.464

@<SCITEGIC>MOL_PROPERTY
-TS
SciTegic.value.DoubleValue
175.513

@<SCITEGIC>MOL_PROPERTY
U+W
SciTegic.value.DoubleValue
190.953

@<SCITEGIC>MOL_PROPERTY
U
SciTegic.value.DoubleValue
266.698

@<SCITEGIC>MOL_PROPERTY
W
SciTegic.value.DoubleValue
-75.745

@<SCITEGIC>MOL_PROPERTY
W(PB)
SciTegic.value.DoubleValue
-81.659

@<SCITEGIC>MOL_PROPERTY
W(SA)
SciTegic.value.DoubleValue
5.914

@<SCITEGIC>MOL_PROPERTY
Valence
SciTegic.value.DoubleValue
154.015

@<SCITEGIC>MOL_PROPERTY
Coulomb
SciTegic.value.DoubleValue
135.335

@<SCITEGIC>MOL_PROPERTY
VdW
SciTegic.value.DoubleValue
-22.652

@<SCITEGIC>MOL_PROPERTY
VdW6
SciTegic.value.DoubleValue
-175.696

@<SCITEGIC>MOL_PROPERTY
VdW12
SciTegic.value.DoubleValue
153.044

@<SCITEGIC>MOL_PROPERTY
Bond
SciTegic.value.DoubleValue
4.942

@<SCITEGIC>MOL_PROPERTY
Angle
SciTegic.value.DoubleValue
14.629

@<SCITEGIC>MOL_PROPERTY
Pdih
SciTegic.value.DoubleValue
134.443

@<SCITEGIC>MOL_PROPERTY
Idih
SciTegic.value.DoubleValue
0.001

@<SCITEGIC>MOL_PROPERTY
Tether
SciTegic.value.DoubleValue
0.000

@<TRIPOS>MOLECULE
CD_guest-6_fast_vm2_rndm.mol2 : feprocess host+ligand conformer 51
         139         144           2
SMALL
USER_CHARGES
 
@<TRIPOS>ATOM
       1    C1      16.365930   15.183992   22.064388 C.3        1 MOL1         0.2972
       2    H1      15.365011   15.063385   22.496995 H          1 MOL1         0.0751
       3    O1      16.522822   16.468081   21.424023 O.3        1 MOL1        -0.3740
       4    C2      17.455003   15.018623   23.156490 C.3        1 MOL1         0.1003
       5    H2      17.387735   13.989497   23.531106 H          1 MOL1         0.0783
       6    O2      17.244872   15.922278   24.251863 O.3        1 MOL1        -0.5519
       7    H3      17.668939   16.786879   23.998099 H          1 MOL1         0.3769
       8    C3      18.856049   15.210308   22.530456 C.3        1 MOL1         0.1053
       9    H4      18.905048   16.227445   22.131322 H          1 MOL1         0.0783
      10    O3      19.880792   15.039262   23.515378 O.3        1 MOL1        -0.5519
      11    H5      20.143779   15.969857   23.751856 H          1 MOL1         0.3769
      12    C4      19.082632   14.267057   21.326100 C.3        1 MOL1         0.1018
      13    H6      19.261485   13.247526   21.689386 H          1 MOL1         0.0783
      14    C5      17.874170   14.278845   20.344857 C.3        1 MOL1         0.1043
      15    H7      17.890005   15.234429   19.804875 H          1 MOL1         0.0783
      16    O4      16.616603   14.167362   21.066584 O.3        1 MOL1        -0.3740
      17    C6      17.935380   13.155635   19.282716 C.3        1 MOL1         0.0138
      18    H8      18.749666   13.384653   18.582073 H          1 MOL1         0.0794
      19    H9      16.998908   13.164792   18.709075 H          1 MOL1         0.0794
      20    O5      18.148263   11.865575   19.869517 O.3        1 MOL1        -0.5486
      21    H10     18.103155   11.199243   19.149347 H          1 MOL1         0.3769
      22    C7      14.717828   20.202715   21.298656 C.3        1 MOL1         0.2972
      23    H11     14.024430   21.043109   21.167850 H          1 MOL1         0.0751
      24    O6      16.050270   20.662375   21.603209 O.3        1 MOL1        -0.3740
      25    C8      14.234044   19.317114   22.470584 C.3        1 MOL1         0.1003
      26    H12     13.214010   18.991354   22.228669 H          1 MOL1         0.0783
      27    O7      14.207667   20.083512   23.685688 O.3        1 MOL1        -0.5519
      28    H13     14.974559   20.705883   23.641800 H          1 MOL1         0.3769
      29    C9      15.103601   18.045909   22.646427 C.3        1 MOL1         0.1053
      30    H14     16.074768   18.348033   23.062374 H          1 MOL1         0.0783
      31    O8      14.421032   17.173744   23.553376 O.3        1 MOL1        -0.5519
      32    H15     14.300985   17.696906   24.375041 H          1 MOL1         0.3769
      33    C10     15.361412   17.315067   21.298270 C.3        1 MOL1         0.1018
      34    H16     14.471562   16.735345   21.023042 H          1 MOL1         0.0783
      35    C11     15.712117   18.300710   20.152825 C.3        1 MOL1         0.1043
      36    H17     16.707238   18.705103   20.369054 H          1 MOL1         0.0783
      37    O9      14.762485   19.392676   20.107087 O.3        1 MOL1        -0.3740
      38    C12     15.782706   17.636073   18.755214 C.3        1 MOL1         0.0138
      39    H18     16.698808   17.032748   18.702460 H          1 MOL1         0.0794
      40    H19     15.871671   18.424037   17.996094 H          1 MOL1         0.0794
      41    O10     14.644484   16.812602   18.475060 O.3        1 MOL1        -0.5486
      42    H20     14.716677   16.011122   19.036530 H          1 MOL1         0.3769
      43    C13     18.483698   24.034318   20.996375 C.3        1 MOL1         0.2972
      44    H21     18.824651   25.042319   20.727446 H          1 MOL1         0.0751
      45    O11     19.582642   23.183259   21.376991 O.3        1 MOL1        -0.3740
      46    C14     17.506114   24.096034   22.198228 C.3        1 MOL1         0.1003
      47    H22     16.667183   24.740559   21.905296 H          1 MOL1         0.0783
      48    O12     18.149941   24.658072   23.353765 O.3        1 MOL1        -0.5519
      49    H23     19.065945   24.282778   23.393591 H          1 MOL1         0.3769
      50    C15     16.935711   22.692532   22.523294 C.3        1 MOL1         0.1053
      51    H24     17.755093   22.060764   22.893874 H          1 MOL1         0.0783
      52    O13     15.920578   22.813569   23.526277 O.3        1 MOL1        -0.5519
      53    H25     16.310109   23.396987   24.214786 H          1 MOL1         0.3769
      54    C16     16.345271   22.030042   21.254596 C.3        1 MOL1         0.1018
      55    H26     15.440113   22.584043   20.973410 H          1 MOL1         0.0783
      56    C17     17.354814   22.064290   20.071134 C.3        1 MOL1         0.1043
      57    H27     18.220766   21.441811   20.324371 H          1 MOL1         0.0783
      58    O14     17.794960   23.429810   19.879656 O.3        1 MOL1        -0.3740
      59    C18     16.804120   21.545315   18.718886 C.3        1 MOL1         0.0138
      60    H28     16.927966   20.456815   18.686908 H          1 MOL1         0.0794
      61    H29     17.421450   21.958327   17.910087 H          1 MOL1         0.0794
      62    O15     15.427562   21.875052   18.503929 O.3        1 MOL1        -0.5486
      63    H30     14.900253   21.150507   18.911990 H          1 MOL1         0.3769
      64    C19     23.699788   22.872406   21.240186 C.3        1 MOL1         0.2972
      65    H31     24.783060   23.015298   21.145376 H          1 MOL1         0.0751
      66    O16     23.354549   21.469011   21.267293 O.3        1 MOL1        -0.3740
      67    C20     23.148890   23.597569   22.497186 C.3        1 MOL1         0.1003
      68    H32     23.311758   24.672283   22.342551 H          1 MOL1         0.0783
      69    O17     23.832665   23.202094   23.694608 O.3        1 MOL1        -0.5519
      70    H33     23.600428   22.253121   23.855649 H          1 MOL1         0.3769
      71    C21     21.623877   23.365995   22.620178 C.3        1 MOL1         0.1053
      72    H34     21.451530   22.296549   22.794762 H          1 MOL1         0.0783
      73    O18     21.106320   24.126190   23.717610 O.3        1 MOL1        -0.5519
      74    H35     21.737329   23.976616   24.456264 H          1 MOL1         0.3769
      75    C22     20.895492   23.775501   21.315706 C.3        1 MOL1         0.1018
      76    H36     20.849766   24.872123   21.288279 H          1 MOL1         0.0783
      77    C23     21.597871   23.246814   20.031169 C.3        1 MOL1         0.1043
      78    H37     21.403654   22.170569   19.955518 H          1 MOL1         0.0783
      79    O19     23.030948   23.462651   20.106482 O.3        1 MOL1        -0.3740
      80    C24     21.077203   23.899665   18.728162 C.3        1 MOL1         0.0138
      81    H38     20.063995   23.525735   18.530633 H          1 MOL1         0.0794
      82    H39     21.712106   23.571087   17.894521 H          1 MOL1         0.0794
      83    O20     21.061201   25.330922   18.808069 O.3        1 MOL1        -0.5486
      84    H40     20.767318   25.673803   17.936003 H          1 MOL1         0.3769
      85    C25     24.661041   17.624972   22.114617 C.3        1 MOL1         0.2972
      86    H41     25.213684   16.735499   22.439518 H          1 MOL1         0.0751
      87    O21     23.541210   17.281341   21.272100 O.3        1 MOL1        -0.3740
      88    C26     24.163367   18.425502   23.346858 C.3        1 MOL1         0.1003
      89    H42     25.056009   18.722335   23.912183 H          1 MOL1         0.0783
      90    O22     23.321457   17.636041   24.200932 O.3        1 MOL1        -0.5519
      91    H43     22.424960   17.582437   23.768744 H          1 MOL1         0.3769
      92    C27     23.426576   19.712862   22.915339 C.3        1 MOL1         0.1053
      93    H44     22.504972   19.414062   22.408448 H          1 MOL1         0.0783
      94    O23     23.107892   20.474964   24.083367 O.3        1 MOL1        -0.5519
      95    H45     22.660902   19.835018   24.682476 H          1 MOL1         0.3769
      96    C28     24.264867   20.556196   21.919881 C.3        1 MOL1         0.1018
      97    H46     25.049610   21.082202   22.477897 H          1 MOL1         0.0783
      98    C29     24.901097   19.683602   20.799423 C.3        1 MOL1         0.1043
      99    H47     24.097316   19.374305   20.118027 H          1 MOL1         0.0783
     100    O24     25.526636   18.500673   21.360118 O.3        1 MOL1        -0.3740
     101    C30     25.955028   20.436260   19.950997 C.3        1 MOL1         0.0138
     102    H48     25.452996   21.240490   19.396211 H          1 MOL1         0.0794
     103    H49     26.362101   19.738198   19.207525 H          1 MOL1         0.0794
     104    O25     27.020055   20.976506   20.745260 O.3        1 MOL1        -0.5486
     105    H50     26.653508   21.681922   21.316686 H          1 MOL1         0.3769
     106    C31     21.302448   13.932651   20.256235 C.3        1 MOL1         0.2972
     107    H51     20.921459   12.977639   19.872802 H          1 MOL1         0.0751
     108    O26     20.215791   14.812213   20.615760 O.3        1 MOL1        -0.3740
     109    C32     22.275461   13.704552   21.447284 C.3        1 MOL1         0.1003
     110    H52     23.099060   13.093577   21.055406 H          1 MOL1         0.0783
     111    O27     21.661217   12.989847   22.530362 O.3        1 MOL1        -0.5519
     112    H53     21.003965   13.611279   22.934295 H          1 MOL1         0.3769
     113    C33     22.892372   15.030493   21.961266 C.3        1 MOL1         0.1053
     114    H54     22.109543   15.607875   22.468777 H          1 MOL1         0.0783
     115    O28     23.937443   14.695129   22.880903 O.3        1 MOL1        -0.5519
     116    H55     23.521306   14.102418   23.543539 H          1 MOL1         0.3769
     117    C34     23.450455   15.914353   20.811381 C.3        1 MOL1         0.1018
     118    H56     24.433126   15.531231   20.509607 H          1 MOL1         0.0783
     119    C35     22.508449   15.945781   19.575552 C.3        1 MOL1         0.1043
     120    H57     21.632659   16.551055   19.836844 H          1 MOL1         0.0783
     121    O29     22.069881   14.605509   19.234265 O.3        1 MOL1        -0.3740
     122    C36     23.141760   16.604318   18.325522 C.3        1 MOL1         0.0138
     123    H58     23.200532   17.687656   18.496449 H          1 MOL1         0.0794
     124    H59     22.468335   16.448596   17.472362 H          1 MOL1         0.0794
     125    O30     24.445124   16.089601   18.025027 O.3        1 MOL1        -0.5486
     126    H60     25.061525   16.433004   18.706922 H          1 MOL1         0.3769
     127    C1      19.686020   18.460942   23.047952 C.2        1 MOL1         0.6021
     128    O1      18.608803   18.261211   23.574776 O.co2      1 MOL1        -0.6904
     129    O2      20.681718   17.805296   23.303904 O.co2      1 MOL1        -0.6904
     130    C2      19.765813   19.565591   21.993687 C.3        1 MOL1        -0.2102
     131    H1      20.352077   20.375642   22.436891 H          1 MOL1         0.0687
     132    H2      18.756158   19.958439   21.840770 H          1 MOL1         0.0687
     133    C3      20.396101   19.155853   20.633381 C.3        1 MOL1        -0.1974
     134    H3      20.729871   20.055928   20.104495 H          1 MOL1         0.0689
     135    H4      21.292654   18.553740   20.812724 H          1 MOL1         0.0689
     136    C4      19.432793   18.377576   19.717468 C.3        1 MOL1        -0.2987
     137    H5      18.617625   19.024511   19.380271 H          1 MOL1         0.0700
     138    H6      19.957844   18.012681   18.825902 H          1 MOL1         0.0700
     139    H7      19.005698   17.512426   20.238844 H          1 MOL1         0.0700
@<TRIPOS>BOND
    1     1     2    1
    2     1     3    1
    3     1     4    1
    4     4     5    1
    5     4     6    1
    6     6     7    1
    7     4     8    1
    8     8     9    1
    9     8    10    1
   10    10    11    1
   11     8    12    1
   12    12    13    1
   13    12    14    1
   14    14    15    1
   15     1    16    1
   16    14    16    1
   17    14    17    1
   18    17    18    1
   19    17    19    1
   20    17    20    1
   21    20    21    1
   22    22    23    1
   23    22    24    1
   24    22    25    1
   25    25    26    1
   26    25    27    1
   27    27    28    1
   28    25    29    1
   29    29    30    1
   30    29    31    1
   31    31    32    1
   32     3    33    1
   33    29    33    1
   34    33    34    1
   35    33    35    1
   36    35    36    1
   37    22    37    1
   38    35    37    1
   39    35    38    1
   40    38    39    1
   41    38    40    1
   42    38    41    1
   43    41    42    1
   44    43    44    1
   45    43    45    1
   46    43    46    1
   47    46    47    1
   48    46    48    1
   49    48    49    1
   50    46    50    1
   51    50    51    1
   52    50    52    1
   53    52    53    1
   54    24    54    1
   55    50    54    1
   56    54    55    1
   57    54    56    1
   58    56    57    1
   59    43    58    1
   60    56    58    1
   61    56    59    1
   62    59    60    1
   63    59    61    1
   64    59    62    1
   65    62    63    1
   66    64    65    1
   67    64    66    1
   68    64    67    1
   69    67    68    1
   70    67    69    1
   71    69    70    1
   72    67    71    1
   73    71    72    1
   74    71    73    1
   75    73    74    1
   76    45    75    1
   77    71    75    1
   78    75    76    1
   79    75    77    1
   80    77    78    1
   81    64    79    1
   82    77    79    1
   83    77    80    1
   84    80    81    1
   85    80    82    1
   86    80    83    1
   87    83    84    1
   88    85    86    1
   89    85    87    1
   90    85    88    1
   91    88    89    1
   92    88    90    1
   93    90    91    1
   94    88    92    1
   95    92    93    1
   96    92    94    1
   97    94    95    1
   98    66    96    1
   99    92    96    1
  100    96    97    1
  101    96    98    1
  102    98    99    1
  103    85   100    1
  104    98   100    1
  105    98   101    1
  106   101   102    1
  107   101   103    1
  108   101   104    1
  109   104   105    1
  110   106   107    1
  111    12   108    1
  112   106   108    1
  113   106   109    1
  114   109   110    1
  115   109   111    1
  116   111   112    1
  117   109   113    1
  118   113   114    1
  119   113   115    1
  120   115   116    1
  121    87   117    1
  122   113   117    1
  123   117   118    1
  124   117   119    1
  125   119   120    1
  126   106   121    1
  127   119   121    1
  128   119   122    1
  129   122   123    1
  130   122   124    1
  131   122   125    1
  132   125   126    1
  133   127   128    1
  134   127   129    2
  135   127   130    1
  136   130   131    1
  137   130   132    1
  138   130   133    1
  139   133   134    1
  140   133   135    1
  141   133   136    1
  142   136   137    1
  143   136   138    1
  144   136   139    1
@<TRIPOS>SUBSTRUCTURE
       1 MOL1            1 RESIDUE      1      MOL     
       2 MOL1          139 RESIDUE      1      MOL     
@<SCITEGIC>MOL_PROPERTY
feprocess Rank
SciTegic.value.IntegerValue
51

@<SCITEGIC>MOL_PROPERTY
Conf_Id
SciTegic.value.IntegerValue
844

@<SCITEGIC>MOL_PROPERTY
Probability
SciTegic.value.DoubleValue
0.00

@<SCITEGIC>MOL_PROPERTY
G
SciTegic.value.DoubleValue
488.987

@<SCITEGIC>MOL_PROPERTY
E
SciTegic.value.DoubleValue
311.141

@<SCITEGIC>MOL_PROPERTY
-TS
SciTegic.value.DoubleValue
177.846

@<SCITEGIC>MOL_PROPERTY
U+W
SciTegic.value.DoubleValue
188.630

@<SCITEGIC>MOL_PROPERTY
U
SciTegic.value.DoubleValue
260.170

@<SCITEGIC>MOL_PROPERTY
W
SciTegic.value.DoubleValue
-71.540

@<SCITEGIC>MOL_PROPERTY
W(PB)
SciTegic.value.DoubleValue
-77.541

@<SCITEGIC>MOL_PROPERTY
W(SA)
SciTegic.value.DoubleValue
6.001

@<SCITEGIC>MOL_PROPERTY
Valence
SciTegic.value.DoubleValue
152.521

@<SCITEGIC>MOL_PROPERTY
Coulomb
SciTegic.value.DoubleValue
129.393

@<SCITEGIC>MOL_PROPERTY
VdW
SciTegic.value.DoubleValue
-21.743

@<SCITEGIC>MOL_PROPERTY
VdW6
SciTegic.value.DoubleValue
-178.995

@<SCITEGIC>MOL_PROPERTY
VdW12
SciTegic.value.DoubleValue
157.252

@<SCITEGIC>MOL_PROPERTY
Bond
SciTegic.value.DoubleValue
5.248

@<SCITEGIC>MOL_PROPERTY
Angle
SciTegic.value.DoubleValue
16.370

@<SCITEGIC>MOL_PROPERTY
Pdih
SciTegic.value.DoubleValue
130.901

@<SCITEGIC>MOL_PROPERTY
Idih
SciTegic.value.DoubleValue
0.002

@<SCITEGIC>MOL_PROPERTY
Tether
SciTegic.value.DoubleValue
0.000

@<TRIPOS>MOLECULE
CD_guest-6_fast_vm2_rndm.mol2 : feprocess host+ligand conformer 52
         139         144           2
SMALL
USER_CHARGES
 
@<TRIPOS>ATOM
       1    C1      16.055724   15.048312   21.429090 C.3        1 MOL1         0.2972
       2    H1      14.967535   14.931193   21.345499 H          1 MOL1         0.0751
       3    O1      16.430741   16.434609   21.535664 O.3        1 MOL1        -0.3740
       4    C2      16.561676   14.303106   22.684724 C.3        1 MOL1         0.1003
       5    H2      16.311705   13.240938   22.564714 H          1 MOL1         0.0783
       6    O2      15.912779   14.817427   23.858240 O.3        1 MOL1        -0.5519
       7    H3      15.697575   15.762074   23.667981 H          1 MOL1         0.3769
       8    C3      18.096513   14.422332   22.817924 C.3        1 MOL1         0.1053
       9    H4      18.327491   15.465604   23.061289 H          1 MOL1         0.0783
      10    O3      18.548627   13.573339   23.878772 O.3        1 MOL1        -0.5519
      11    H5      17.960278   13.779533   24.638257 H          1 MOL1         0.3769
      12    C4      18.837821   14.059523   21.505288 C.3        1 MOL1         0.1018
      13    H6      18.885325   12.965242   21.430797 H          1 MOL1         0.0783
      14    C5      18.161248   14.658692   20.232104 C.3        1 MOL1         0.1043
      15    H7      18.398704   15.729235   20.209389 H          1 MOL1         0.0783
      16    O4      16.720400   14.489302   20.281368 O.3        1 MOL1        -0.3740
      17    C6      18.634546   14.043646   18.891010 C.3        1 MOL1         0.0138
      18    H8      19.624363   14.441605   18.639779 H          1 MOL1         0.0794
      19    H9      17.951923   14.374884   18.096767 H          1 MOL1         0.0794
      20    O5      18.678239   12.612216   18.936949 O.3        1 MOL1        -0.5486
      21    H10     18.904855   12.292113   18.036598 H          1 MOL1         0.3769
      22    C7      15.036058   20.268455   20.644575 C.3        1 MOL1         0.2972
      23    H11     14.466494   21.125029   20.261839 H          1 MOL1         0.0751
      24    O6      16.289715   20.680096   21.220204 O.3        1 MOL1        -0.3740
      25    C8      14.226488   19.494999   21.720116 C.3        1 MOL1         0.1003
      26    H12     13.293993   19.160358   21.247460 H          1 MOL1         0.0783
      27    O7      13.910326   20.336082   22.841324 O.3        1 MOL1        -0.5519
      28    H13     14.764062   20.705828   23.182924 H          1 MOL1         0.3769
      29    C9      14.998170   18.238951   22.195055 C.3        1 MOL1         0.1053
      30    H14     15.881528   18.578846   22.746124 H          1 MOL1         0.0783
      31    O8      14.163854   17.454669   23.054437 O.3        1 MOL1        -0.5519
      32    H15     13.761592   18.097293   23.679715 H          1 MOL1         0.3769
      33    C10     15.483432   17.379865   21.001636 C.3        1 MOL1         0.1018
      34    H16     14.611634   16.885033   20.553814 H          1 MOL1         0.0783
      35    C11     16.195866   18.237216   19.918602 C.3        1 MOL1         0.1043
      36    H17     17.136504   18.615327   20.341035 H          1 MOL1         0.0783
      37    O9      15.336452   19.351151   19.570279 O.3        1 MOL1        -0.3740
      38    C12     16.558008   17.482597   18.612440 C.3        1 MOL1         0.0138
      39    H18     17.566636   17.065896   18.716417 H          1 MOL1         0.0794
      40    H19     16.604489   18.210958   17.791864 H          1 MOL1         0.0794
      41    O10     15.636110   16.436389   18.284541 O.3        1 MOL1        -0.5486
      42    H20     15.830713   15.681752   18.888261 H          1 MOL1         0.3769
      43    C13     18.665949   23.921382   22.054588 C.3        1 MOL1         0.2972
      44    H21     19.107639   24.895671   22.300933 H          1 MOL1         0.0751
      45    O11     19.685706   22.962957   21.709154 O.3        1 MOL1        -0.3740
      46    C14     17.833610   23.409975   23.258706 C.3        1 MOL1         0.1003
      47    H22     17.025612   24.135391   23.418779 H          1 MOL1         0.0783
      48    O12     18.626014   23.331792   24.452737 O.3        1 MOL1        -0.5519
      49    H23     19.318482   22.627525   24.304478 H          1 MOL1         0.3769
      50    C15     17.185209   22.043785   22.948858 C.3        1 MOL1         0.1053
      51    H24     17.989712   21.303005   22.874886 H          1 MOL1         0.0783
      52    O13     16.291576   21.682671   24.008276 O.3        1 MOL1        -0.5519
      53    H25     16.819369   21.791957   24.830397 H          1 MOL1         0.3769
      54    C16     16.414607   22.061933   21.606863 C.3        1 MOL1         0.1018
      55    H26     15.437786   22.537113   21.768237 H          1 MOL1         0.0783
      56    C17     17.186872   22.783459   20.465272 C.3        1 MOL1         0.1043
      57    H27     17.989335   22.107184   20.152336 H          1 MOL1         0.0783
      58    O14     17.774116   24.031108   20.923532 O.3        1 MOL1        -0.3740
      59    C18     16.323152   23.078287   19.215063 C.3        1 MOL1         0.0138
      60    H28     16.110426   22.129151   18.704959 H          1 MOL1         0.0794
      61    H29     16.907722   23.695216   18.519556 H          1 MOL1         0.0794
      62    O15     15.095695   23.736048   19.551369 O.3        1 MOL1        -0.5486
      63    H30     14.643170   23.970978   18.711901 H          1 MOL1         0.3769
      64    C19     23.630404   22.674482   20.461340 C.3        1 MOL1         0.2972
      65    H31     24.625884   22.789026   20.013744 H          1 MOL1         0.0751
      66    O16     23.429367   21.339469   20.962781 O.3        1 MOL1        -0.3740
      67    C20     23.389664   23.719528   21.583384 C.3        1 MOL1         0.1003
      68    H32     23.442028   24.707282   21.107158 H          1 MOL1         0.0783
      69    O17     24.395549   23.654408   22.605159 O.3        1 MOL1        -0.5519
      70    H33     24.283154   22.782638   23.061399 H          1 MOL1         0.3769
      71    C21     21.972202   23.572280   22.194559 C.3        1 MOL1         0.1053
      72    H34     21.933524   22.633854   22.765070 H          1 MOL1         0.0783
      73    O18     21.732669   24.686775   23.060958 O.3        1 MOL1        -0.5519
      74    H35     22.489291   24.699334   23.686021 H          1 MOL1         0.3769
      75    C22     20.871677   23.516878   21.100054 C.3        1 MOL1         0.1018
      76    H36     20.702691   24.538604   20.736366 H          1 MOL1         0.0783
      77    C23     21.250782   22.607898   19.893973 C.3        1 MOL1         0.1043
      78    H37     21.188646   21.562152   20.223145 H          1 MOL1         0.0783
      79    O19     22.606899   22.902544   19.469150 O.3        1 MOL1        -0.3740
      80    C24     20.321452   22.739827   18.657940 C.3        1 MOL1         0.0138
      81    H38     19.533749   21.980804   18.730331 H          1 MOL1         0.0794
      82    H39     20.901910   22.496131   17.758030 H          1 MOL1         0.0794
      83    O20     19.733322   24.040037   18.520236 O.3        1 MOL1        -0.5486
      84    H40     19.124953   24.171836   19.284302 H          1 MOL1         0.3769
      85    C25     24.823129   17.778485   22.295290 C.3        1 MOL1         0.2972
      86    H41     25.357745   16.895928   22.665716 H          1 MOL1         0.0751
      87    O21     23.470921   17.452778   21.896644 O.3        1 MOL1        -0.3740
      88    C26     24.777113   18.861551   23.399214 C.3        1 MOL1         0.1003
      89    H42     25.810499   19.170704   23.601589 H          1 MOL1         0.0783
      90    O22     24.198374   18.339618   24.606754 O.3        1 MOL1        -0.5519
      91    H43     23.238182   18.600415   24.610323 H          1 MOL1         0.3769
      92    C27     23.994908   20.090347   22.886233 C.3        1 MOL1         0.1053
      93    H44     22.975759   19.758274   22.677758 H          1 MOL1         0.0783
      94    O23     23.954628   21.117745   23.882118 O.3        1 MOL1        -0.5519
      95    H45     23.247263   20.821730   24.511387 H          1 MOL1         0.3769
      96    C28     24.541269   20.630061   21.544229 C.3        1 MOL1         0.1018
      97    H46     25.410142   21.275144   21.728709 H          1 MOL1         0.0783
      98    C29     24.887093   19.497907   20.531640 C.3        1 MOL1         0.1043
      99    H47     23.941296   19.165725   20.093979 H          1 MOL1         0.0783
     100    O24     25.518278   18.354304   21.166407 O.3        1 MOL1        -0.3740
     101    C30     25.780874   19.972513   19.362062 C.3        1 MOL1         0.0138
     102    H48     25.194601   20.652190   18.728998 H          1 MOL1         0.0794
     103    H49     26.047061   19.102359   18.747023 H          1 MOL1         0.0794
     104    O25     26.963116   20.636369   19.824609 O.3        1 MOL1        -0.5486
     105    H50     27.514361   20.846392   19.039120 H          1 MOL1         0.3769
     106    C31     21.228620   14.027467   20.925134 C.3        1 MOL1         0.2972
     107    H51     20.917538   13.075306   20.476210 H          1 MOL1         0.0751
     108    O26     20.152331   14.636862   21.661212 O.3        1 MOL1        -0.3740
     109    C32     22.392628   13.794045   21.920215 C.3        1 MOL1         0.1003
     110    H52     23.190365   13.276435   21.371695 H          1 MOL1         0.0783
     111    O27     21.950511   12.967704   23.009419 O.3        1 MOL1        -0.5519
     112    H53     21.068780   13.318267   23.281603 H          1 MOL1         0.3769
     113    C33     22.975871   15.124681   22.466233 C.3        1 MOL1         0.1053
     114    H54     22.237910   15.573537   23.145856 H          1 MOL1         0.0783
     115    O28     24.176714   14.815145   23.180111 O.3        1 MOL1        -0.5519
     116    H55     23.930896   14.093562   23.799819 H          1 MOL1         0.3769
     117    C34     23.258559   16.143999   21.326717 C.3        1 MOL1         0.1018
     118    H56     24.134320   15.810994   20.754953 H          1 MOL1         0.0783
     119    C35     22.038820   16.266076   20.374280 C.3        1 MOL1         0.1043
     120    H57     21.201428   16.702615   20.935179 H          1 MOL1         0.0783
     121    O29     21.675207   14.947837   19.907646 O.3        1 MOL1        -0.3740
     122    C36     22.278690   17.166955   19.137927 C.3        1 MOL1         0.0138
     123    H58     22.147803   18.213185   19.442224 H          1 MOL1         0.0794
     124    H59     21.500084   16.954976   18.393218 H          1 MOL1         0.0794
     125    O30     23.577060   16.981055   18.558615 O.3        1 MOL1        -0.5486
     126    H60     24.241663   17.204549   19.245543 H          1 MOL1         0.3769
     127    C1      20.741331   20.009701   24.065023 C.2        1 MOL1         0.6021
     128    O1      20.340736   21.140787   24.257912 O.co2      1 MOL1        -0.6904
     129    O2      21.640305   19.498743   24.708581 O.co2      1 MOL1        -0.6904
     130    C2      20.186525   19.249635   22.858139 C.3        1 MOL1        -0.2102
     131    H1      21.024413   18.968786   22.213162 H          1 MOL1         0.0687
     132    H2      19.566182   19.935447   22.272130 H          1 MOL1         0.0687
     133    C3      19.375807   17.979730   23.212285 C.3        1 MOL1        -0.1974
     134    H3      18.952845   17.562785   22.288998 H          1 MOL1         0.0689
     135    H4      20.049804   17.218129   23.628358 H          1 MOL1         0.0689
     136    C4      18.241321   18.263790   24.217812 C.3        1 MOL1        -0.2987
     137    H5      17.637280   19.118819   23.894606 H          1 MOL1         0.0700
     138    H6      17.583033   17.392649   24.324332 H          1 MOL1         0.0700
     139    H7      18.650045   18.501311   25.208607 H          1 MOL1         0.0700
@<TRIPOS>BOND
    1     1     2    1
    2     1     3    1
    3     1     4    1
    4     4     5    1
    5     4     6    1
    6     6     7    1
    7     4     8    1
    8     8     9    1
    9     8    10    1
   10    10    11    1
   11     8    12    1
   12    12    13    1
   13    12    14    1
   14    14    15    1
   15     1    16    1
   16    14    16    1
   17    14    17    1
   18    17    18    1
   19    17    19    1
   20    17    20    1
   21    20    21    1
   22    22    23    1
   23    22    24    1
   24    22    25    1
   25    25    26    1
   26    25    27    1
   27    27    28    1
   28    25    29    1
   29    29    30    1
   30    29    31    1
   31    31    32    1
   32     3    33    1
   33    29    33    1
   34    33    34    1
   35    33    35    1
   36    35    36    1
   37    22    37    1
   38    35    37    1
   39    35    38    1
   40    38    39    1
   41    38    40    1
   42    38    41    1
   43    41    42    1
   44    43    44    1
   45    43    45    1
   46    43    46    1
   47    46    47    1
   48    46    48    1
   49    48    49    1
   50    46    50    1
   51    50    51    1
   52    50    52    1
   53    52    53    1
   54    24    54    1
   55    50    54    1
   56    54    55    1
   57    54    56    1
   58    56    57    1
   59    43    58    1
   60    56    58    1
   61    56    59    1
   62    59    60    1
   63    59    61    1
   64    59    62    1
   65    62    63    1
   66    64    65    1
   67    64    66    1
   68    64    67    1
   69    67    68    1
   70    67    69    1
   71    69    70    1
   72    67    71    1
   73    71    72    1
   74    71    73    1
   75    73    74    1
   76    45    75    1
   77    71    75    1
   78    75    76    1
   79    75    77    1
   80    77    78    1
   81    64    79    1
   82    77    79    1
   83    77    80    1
   84    80    81    1
   85    80    82    1
   86    80    83    1
   87    83    84    1
   88    85    86    1
   89    85    87    1
   90    85    88    1
   91    88    89    1
   92    88    90    1
   93    90    91    1
   94    88    92    1
   95    92    93    1
   96    92    94    1
   97    94    95    1
   98    66    96    1
   99    92    96    1
  100    96    97    1
  101    96    98    1
  102    98    99    1
  103    85   100    1
  104    98   100    1
  105    98   101    1
  106   101   102    1
  107   101   103    1
  108   101   104    1
  109   104   105    1
  110   106   107    1
  111    12   108    1
  112   106   108    1
  113   106   109    1
  114   109   110    1
  115   109   111    1
  116   111   112    1
  117   109   113    1
  118   113   114    1
  119   113   115    1
  120   115   116    1
  121    87   117    1
  122   113   117    1
  123   117   118    1
  124   117   119    1
  125   119   120    1
  126   106   121    1
  127   119   121    1
  128   119   122    1
  129   122   123    1
  130   122   124    1
  131   122   125    1
  132   125   126    1
  133   127   128    1
  134   127   129    2
  135   127   130    1
  136   130   131    1
  137   130   132    1
  138   130   133    1
  139   133   134    1
  140   133   135    1
  141   133   136    1
  142   136   137    1
  143   136   138    1
  144   136   139    1
@<TRIPOS>SUBSTRUCTURE
       1 MOL1            1 RESIDUE      1      MOL     
       2 MOL1          139 RESIDUE      1      MOL     
@<SCITEGIC>MOL_PROPERTY
feprocess Rank
SciTegic.value.IntegerValue
52

@<SCITEGIC>MOL_PROPERTY
Conf_Id
SciTegic.value.IntegerValue
500

@<SCITEGIC>MOL_PROPERTY
Probability
SciTegic.value.DoubleValue
0.00

@<SCITEGIC>MOL_PROPERTY
G
SciTegic.value.DoubleValue
489.120

@<SCITEGIC>MOL_PROPERTY
E
SciTegic.value.DoubleValue
311.922

@<SCITEGIC>MOL_PROPERTY
-TS
SciTegic.value.DoubleValue
177.198

@<SCITEGIC>MOL_PROPERTY
U+W
SciTegic.value.DoubleValue
189.411

@<SCITEGIC>MOL_PROPERTY
U
SciTegic.value.DoubleValue
263.700

@<SCITEGIC>MOL_PROPERTY
W
SciTegic.value.DoubleValue
-74.290

@<SCITEGIC>MOL_PROPERTY
W(PB)
SciTegic.value.DoubleValue
-80.272

@<SCITEGIC>MOL_PROPERTY
W(SA)
SciTegic.value.DoubleValue
5.983

@<SCITEGIC>MOL_PROPERTY
Valence
SciTegic.value.DoubleValue
150.933

@<SCITEGIC>MOL_PROPERTY
Coulomb
SciTegic.value.DoubleValue
133.288

@<SCITEGIC>MOL_PROPERTY
VdW
SciTegic.value.DoubleValue
-20.521

@<SCITEGIC>MOL_PROPERTY
VdW6
SciTegic.value.DoubleValue
-173.761

@<SCITEGIC>MOL_PROPERTY
VdW12
SciTegic.value.DoubleValue
153.240

@<SCITEGIC>MOL_PROPERTY
Bond
SciTegic.value.DoubleValue
5.101

@<SCITEGIC>MOL_PROPERTY
Angle
SciTegic.value.DoubleValue
15.956

@<SCITEGIC>MOL_PROPERTY
Pdih
SciTegic.value.DoubleValue
129.846

@<SCITEGIC>MOL_PROPERTY
Idih
SciTegic.value.DoubleValue
0.029

@<SCITEGIC>MOL_PROPERTY
Tether
SciTegic.value.DoubleValue
0.000

@<TRIPOS>MOLECULE
CD_guest-6_fast_vm2_rndm.mol2 : feprocess host+ligand conformer 53
         139         144           2
SMALL
USER_CHARGES
 
@<TRIPOS>ATOM
       1    C1      16.339987   15.381576   20.128349 C.3        1 MOL1         0.2972
       2    H1      15.350486   15.309118   19.661015 H          1 MOL1         0.0751
       3    O1      16.574918   16.707471   20.651907 O.3        1 MOL1        -0.3740
       4    C2      16.506573   14.313425   21.246046 C.3        1 MOL1         0.1003
       5    H2      16.395061   13.331885   20.767139 H          1 MOL1         0.0783
       6    O2      15.508689   14.440271   22.269851 O.3        1 MOL1        -0.5519
       7    H3      15.688182   15.294370   22.738666 H          1 MOL1         0.3769
       8    C3      17.925627   14.379028   21.859648 C.3        1 MOL1         0.1053
       9    H4      18.025858   15.338630   22.385410 H          1 MOL1         0.0783
      10    O3      18.104055   13.298913   22.783073 O.3        1 MOL1        -0.5519
      11    H5      17.285723   13.284502   23.326954 H          1 MOL1         0.3769
      12    C4      19.014292   14.311179   20.760011 C.3        1 MOL1         0.1018
      13    H6      19.051746   13.285534   20.370324 H          1 MOL1         0.0783
      14    C5      18.730436   15.307381   19.598742 C.3        1 MOL1         0.1043
      15    H7      18.849629   16.327739   19.984608 H          1 MOL1         0.0783
      16    O4      17.365355   15.125591   19.143093 O.3        1 MOL1        -0.3740
      17    C6      19.675135   15.183758   18.375556 C.3        1 MOL1         0.0138
      18    H8      20.540967   15.837194   18.537864 H          1 MOL1         0.0794
      19    H9      19.151284   15.568541   17.490401 H          1 MOL1         0.0794
      20    O5      20.124446   13.845507   18.136461 O.3        1 MOL1        -0.5486
      21    H10     20.893047   13.696955   18.733749 H          1 MOL1         0.3769
      22    C7      14.852209   20.205870   22.007402 C.3        1 MOL1         0.2972
      23    H11     14.205806   21.009388   22.383527 H          1 MOL1         0.0751
      24    O6      16.126640   20.709866   21.561980 O.3        1 MOL1        -0.3740
      25    C8      15.080847   19.137154   23.106413 C.3        1 MOL1         0.1003
      26    H12     14.100221   18.706186   23.346923 H          1 MOL1         0.0783
      27    O7      15.642736   19.708047   24.298391 O.3        1 MOL1        -0.5519
      28    H13     15.807695   20.665077   24.116499 H          1 MOL1         0.3769
      29    C9      15.984990   17.997843   22.584018 C.3        1 MOL1         0.1053
      30    H14     16.987310   18.413582   22.417456 H          1 MOL1         0.0783
      31    O8      16.046849   16.966355   23.574095 O.3        1 MOL1        -0.5519
      32    H15     16.239156   17.443825   24.412477 H          1 MOL1         0.3769
      33    C10     15.465577   17.418536   21.241950 C.3        1 MOL1         0.1018
      34    H16     14.615272   16.758545   21.452994 H          1 MOL1         0.0783
      35    C11     15.037120   18.523294   20.231962 C.3        1 MOL1         0.1043
      36    H17     15.950180   18.987875   19.837202 H          1 MOL1         0.0783
      37    O9      14.233645   19.539131   20.887678 O.3        1 MOL1        -0.3740
      38    C12     14.240370   17.983561   19.019110 C.3        1 MOL1         0.0138
      39    H18     14.899414   17.340798   18.420152 H          1 MOL1         0.0794
      40    H19     13.959327   18.834601   18.384596 H          1 MOL1         0.0794
      41    O10     13.065397   17.258982   19.408263 O.3        1 MOL1        -0.5486
      42    H20     13.341930   16.449235   19.884404 H          1 MOL1         0.3769
      43    C13     18.472794   24.137605   21.571382 C.3        1 MOL1         0.2972
      44    H21     18.839622   25.170501   21.516296 H          1 MOL1         0.0751
      45    O11     19.573388   23.212819   21.685715 O.3        1 MOL1        -0.3740
      46    C14     17.520183   23.997542   22.791075 C.3        1 MOL1         0.1003
      47    H22     16.712847   24.725450   22.638884 H          1 MOL1         0.0783
      48    O12     18.189681   24.306221   24.022440 O.3        1 MOL1        -0.5519
      49    H23     18.811983   23.549996   24.212804 H          1 MOL1         0.3769
      50    C15     16.872652   22.595273   22.878409 C.3        1 MOL1         0.1053
      51    H24     17.648992   21.879484   23.164331 H          1 MOL1         0.0783
      52    O13     15.851134   22.613600   23.880464 O.3        1 MOL1        -0.5519
      53    H25     16.259507   23.074758   24.648238 H          1 MOL1         0.3769
      54    C16     16.281800   22.142013   21.520768 C.3        1 MOL1         0.1018
      55    H26     15.325760   22.653374   21.350753 H          1 MOL1         0.0783
      56    C17     17.237010   22.429503   20.333718 C.3        1 MOL1         0.1043
      57    H27     18.086172   21.740944   20.427813 H          1 MOL1         0.0783
      58    O14     17.722056   23.796513   20.384818 O.3        1 MOL1        -0.3740
      59    C18     16.592196   22.176902   18.946614 C.3        1 MOL1         0.0138
      60    H28     16.523190   21.092894   18.785919 H          1 MOL1         0.0794
      61    H29     17.257956   22.576093   18.170339 H          1 MOL1         0.0794
      62    O15     15.292129   22.765020   18.821875 O.3        1 MOL1        -0.5486
      63    H30     14.666451   22.206958   19.332317 H          1 MOL1         0.3769
      64    C19     23.526740   22.511633   20.596743 C.3        1 MOL1         0.2972
      65    H31     24.537366   22.529189   20.169296 H          1 MOL1         0.0751
      66    O16     23.250081   21.258119   21.249476 O.3        1 MOL1        -0.3740
      67    C20     23.329315   23.671323   21.605107 C.3        1 MOL1         0.1003
      68    H32     23.498259   24.605219   21.053426 H          1 MOL1         0.0783
      69    O17     24.273764   23.591742   22.684770 O.3        1 MOL1        -0.5519
      70    H33     24.154305   22.707318   23.114782 H          1 MOL1         0.3769
      71    C21     21.880533   23.705614   22.154832 C.3        1 MOL1         0.1053
      72    H34     21.756934   22.849607   22.829570 H          1 MOL1         0.0783
      73    O18     21.699344   24.926188   22.879938 O.3        1 MOL1        -0.5519
      74    H35     22.429488   24.951036   23.535660 H          1 MOL1         0.3769
      75    C22     20.807458   23.599406   21.034514 C.3        1 MOL1         0.1018
      76    H36     20.724542   24.582727   20.554026 H          1 MOL1         0.0783
      77    C23     21.163977   22.529673   19.955816 C.3        1 MOL1         0.1043
      78    H37     21.024254   21.534686   20.397007 H          1 MOL1         0.0783
      79    O19     22.547082   22.687565   19.555305 O.3        1 MOL1        -0.3740
      80    C24     20.311173   22.568374   18.660913 C.3        1 MOL1         0.0138
      81    H38     19.467581   21.879461   18.774660 H          1 MOL1         0.0794
      82    H39     20.918038   22.174697   17.834504 H          1 MOL1         0.0794
      83    O20     19.833701   23.877015   18.328422 O.3        1 MOL1        -0.5486
      84    H40     19.091667   24.077534   18.946300 H          1 MOL1         0.3769
      85    C25     24.936042   17.661738   22.340038 C.3        1 MOL1         0.2972
      86    H41     25.584380   16.825867   22.632865 H          1 MOL1         0.0751
      87    O21     23.585403   17.223530   22.090805 O.3        1 MOL1        -0.3740
      88    C26     24.899412   18.715305   23.473616 C.3        1 MOL1         0.1003
      89    H42     25.920295   19.091118   23.618513 H          1 MOL1         0.0783
      90    O22     24.444063   18.093882   24.686288 O.3        1 MOL1        -0.5519
      91    H43     23.818465   17.378113   24.421274 H          1 MOL1         0.3769
      92    C27     24.001029   19.912480   23.074172 C.3        1 MOL1         0.1053
      93    H44     22.968244   19.546426   23.028362 H          1 MOL1         0.0783
      94    O23     24.098273   20.969900   24.037009 O.3        1 MOL1        -0.5519
      95    H45     23.258384   20.924662   24.571673 H          1 MOL1         0.3769
      96    C28     24.379432   20.472870   21.679283 C.3        1 MOL1         0.1018
      97    H46     25.288598   21.080419   21.780775 H          1 MOL1         0.0783
      98    C29     24.593596   19.359872   20.613913 C.3        1 MOL1         0.1043
      99    H47     23.606019   18.953325   20.362234 H          1 MOL1         0.0783
     100    O24     25.426353   18.295098   21.141137 O.3        1 MOL1        -0.3740
     101    C30     25.228688   19.865560   19.296419 C.3        1 MOL1         0.0138
     102    H48     24.484950   20.469155   18.758909 H          1 MOL1         0.0794
     103    H49     25.461422   18.998128   18.664128 H          1 MOL1         0.0794
     104    O25     26.409707   20.642632   19.529695 O.3        1 MOL1        -0.5486
     105    H50     26.806217   20.852486   18.656071 H          1 MOL1         0.3769
     106    C31     21.357931   13.793060   21.287444 C.3        1 MOL1         0.2972
     107    H51     21.033370   12.772428   21.047864 H          1 MOL1         0.0751
     108    O26     20.241312   14.691913   21.405532 O.3        1 MOL1        -0.3740
     109    C32     22.091615   13.809186   22.651279 C.3        1 MOL1         0.1003
     110    H52     22.963331   13.146942   22.570255 H          1 MOL1         0.0783
     111    O27     21.220266   13.328240   23.687382 O.3        1 MOL1        -0.5519
     112    H53     20.305012   13.604770   23.436362 H          1 MOL1         0.3769
     113    C33     22.596979   15.233538   22.987692 C.3        1 MOL1         0.1053
     114    H54     21.723953   15.879616   23.155002 H          1 MOL1         0.0783
     115    O28     23.398804   15.189670   24.172154 O.3        1 MOL1        -0.5519
     116    H55     22.884835   14.643778   24.807888 H          1 MOL1         0.3769
     117    C34     23.415638   15.821717   21.813064 C.3        1 MOL1         0.1018
     118    H56     24.375161   15.291419   21.753550 H          1 MOL1         0.0783
     119    C35     22.668723   15.683922   20.456620 C.3        1 MOL1         0.1043
     120    H57     21.779889   16.325502   20.492322 H          1 MOL1         0.0783
     121    O29     22.252711   14.305432   20.274636 O.3        1 MOL1        -0.3740
     122    C36     23.488538   16.121779   19.214436 C.3        1 MOL1         0.0138
     123    H58     23.308991   17.189287   19.037415 H          1 MOL1         0.0794
     124    H59     23.104362   15.587425   18.335298 H          1 MOL1         0.0794
     125    O30     24.895403   15.890277   19.351272 O.3        1 MOL1        -0.5486
     126    H60     25.246456   16.592891   19.946931 H          1 MOL1         0.3769
     127    C1      20.423102   21.162987   24.419562 C.2        1 MOL1         0.6021
     128    O1      19.565126   21.960400   24.745686 O.co2      1 MOL1        -0.6904
     129    O2      21.483417   21.033227   25.001106 O.co2      1 MOL1        -0.6904
     130    C2      20.212502   20.361224   23.137451 C.3        1 MOL1        -0.2102
     131    H1      21.083275   20.524625   22.499744 H          1 MOL1         0.0687
     132    H2      19.354736   20.767111   22.596774 H          1 MOL1         0.0687
     133    C3      20.001567   18.849469   23.366245 C.3        1 MOL1        -0.1974
     134    H3      20.841127   18.439934   23.945042 H          1 MOL1         0.0689
     135    H4      19.091376   18.691273   23.960926 H          1 MOL1         0.0689
     136    C4      19.886763   18.106761   22.023043 C.3        1 MOL1        -0.2987
     137    H5      20.818817   18.194592   21.451388 H          1 MOL1         0.0700
     138    H6      19.685611   17.046100   22.199861 H          1 MOL1         0.0700
     139    H7      19.069926   18.512541   21.413003 H          1 MOL1         0.0700
@<TRIPOS>BOND
    1     1     2    1
    2     1     3    1
    3     1     4    1
    4     4     5    1
    5     4     6    1
    6     6     7    1
    7     4     8    1
    8     8     9    1
    9     8    10    1
   10    10    11    1
   11     8    12    1
   12    12    13    1
   13    12    14    1
   14    14    15    1
   15     1    16    1
   16    14    16    1
   17    14    17    1
   18    17    18    1
   19    17    19    1
   20    17    20    1
   21    20    21    1
   22    22    23    1
   23    22    24    1
   24    22    25    1
   25    25    26    1
   26    25    27    1
   27    27    28    1
   28    25    29    1
   29    29    30    1
   30    29    31    1
   31    31    32    1
   32     3    33    1
   33    29    33    1
   34    33    34    1
   35    33    35    1
   36    35    36    1
   37    22    37    1
   38    35    37    1
   39    35    38    1
   40    38    39    1
   41    38    40    1
   42    38    41    1
   43    41    42    1
   44    43    44    1
   45    43    45    1
   46    43    46    1
   47    46    47    1
   48    46    48    1
   49    48    49    1
   50    46    50    1
   51    50    51    1
   52    50    52    1
   53    52    53    1
   54    24    54    1
   55    50    54    1
   56    54    55    1
   57    54    56    1
   58    56    57    1
   59    43    58    1
   60    56    58    1
   61    56    59    1
   62    59    60    1
   63    59    61    1
   64    59    62    1
   65    62    63    1
   66    64    65    1
   67    64    66    1
   68    64    67    1
   69    67    68    1
   70    67    69    1
   71    69    70    1
   72    67    71    1
   73    71    72    1
   74    71    73    1
   75    73    74    1
   76    45    75    1
   77    71    75    1
   78    75    76    1
   79    75    77    1
   80    77    78    1
   81    64    79    1
   82    77    79    1
   83    77    80    1
   84    80    81    1
   85    80    82    1
   86    80    83    1
   87    83    84    1
   88    85    86    1
   89    85    87    1
   90    85    88    1
   91    88    89    1
   92    88    90    1
   93    90    91    1
   94    88    92    1
   95    92    93    1
   96    92    94    1
   97    94    95    1
   98    66    96    1
   99    92    96    1
  100    96    97    1
  101    96    98    1
  102    98    99    1
  103    85   100    1
  104    98   100    1
  105    98   101    1
  106   101   102    1
  107   101   103    1
  108   101   104    1
  109   104   105    1
  110   106   107    1
  111    12   108    1
  112   106   108    1
  113   106   109    1
  114   109   110    1
  115   109   111    1
  116   111   112    1
  117   109   113    1
  118   113   114    1
  119   113   115    1
  120   115   116    1
  121    87   117    1
  122   113   117    1
  123   117   118    1
  124   117   119    1
  125   119   120    1
  126   106   121    1
  127   119   121    1
  128   119   122    1
  129   122   123    1
  130   122   124    1
  131   122   125    1
  132   125   126    1
  133   127   128    1
  134   127   129    2
  135   127   130    1
  136   130   131    1
  137   130   132    1
  138   130   133    1
  139   133   134    1
  140   133   135    1
  141   133   136    1
  142   136   137    1
  143   136   138    1
  144   136   139    1
@<TRIPOS>SUBSTRUCTURE
       1 MOL1            1 RESIDUE      1      MOL     
       2 MOL1          139 RESIDUE      1      MOL     
@<SCITEGIC>MOL_PROPERTY
feprocess Rank
SciTegic.value.IntegerValue
53

@<SCITEGIC>MOL_PROPERTY
Conf_Id
SciTegic.value.IntegerValue
661

@<SCITEGIC>MOL_PROPERTY
Probability
SciTegic.value.DoubleValue
0.00

@<SCITEGIC>MOL_PROPERTY
G
SciTegic.value.DoubleValue
489.143

@<SCITEGIC>MOL_PROPERTY
E
SciTegic.value.DoubleValue
312.897

@<SCITEGIC>MOL_PROPERTY
-TS
SciTegic.value.DoubleValue
176.245

@<SCITEGIC>MOL_PROPERTY
U+W
SciTegic.value.DoubleValue
190.386

@<SCITEGIC>MOL_PROPERTY
U
SciTegic.value.DoubleValue
270.979

@<SCITEGIC>MOL_PROPERTY
W
SciTegic.value.DoubleValue
-80.593

@<SCITEGIC>MOL_PROPERTY
W(PB)
SciTegic.value.DoubleValue
-86.611

@<SCITEGIC>MOL_PROPERTY
W(SA)
SciTegic.value.DoubleValue
6.019

@<SCITEGIC>MOL_PROPERTY
Valence
SciTegic.value.DoubleValue
154.558

@<SCITEGIC>MOL_PROPERTY
Coulomb
SciTegic.value.DoubleValue
138.226

@<SCITEGIC>MOL_PROPERTY
VdW
SciTegic.value.DoubleValue
-21.806

@<SCITEGIC>MOL_PROPERTY
VdW6
SciTegic.value.DoubleValue
-175.159

@<SCITEGIC>MOL_PROPERTY
VdW12
SciTegic.value.DoubleValue
153.354

@<SCITEGIC>MOL_PROPERTY
Bond
SciTegic.value.DoubleValue
5.090

@<SCITEGIC>MOL_PROPERTY
Angle
SciTegic.value.DoubleValue
14.650

@<SCITEGIC>MOL_PROPERTY
Pdih
SciTegic.value.DoubleValue
134.798

@<SCITEGIC>MOL_PROPERTY
Idih
SciTegic.value.DoubleValue
0.020

@<SCITEGIC>MOL_PROPERTY
Tether
SciTegic.value.DoubleValue
0.000

@<TRIPOS>MOLECULE
CD_guest-6_fast_vm2_rndm.mol2 : feprocess host+ligand conformer 54
         139         144           2
SMALL
USER_CHARGES
 
@<TRIPOS>ATOM
       1    C1      16.261241   15.216691   20.532790 C.3        1 MOL1         0.2972
       2    H1      15.264668   15.118144   20.083243 H          1 MOL1         0.0751
       3    O1      16.474659   16.530797   21.081566 O.3        1 MOL1        -0.3740
       4    C2      16.469799   14.181745   21.666215 C.3        1 MOL1         0.1003
       5    H2      16.374578   13.183309   21.220005 H          1 MOL1         0.0783
       6    O2      15.479833   14.335230   22.696234 O.3        1 MOL1        -0.5519
       7    H3      15.486573   15.286844   22.973270 H          1 MOL1         0.3769
       8    C3      17.893308   14.305702   22.264324 C.3        1 MOL1         0.1053
       9    H4      17.946856   15.262382   22.798935 H          1 MOL1         0.0783
      10    O3      18.113803   13.227940   23.178919 O.3        1 MOL1        -0.5519
      11    H5      17.311483   13.200915   23.745382 H          1 MOL1         0.3769
      12    C4      18.991770   14.302653   21.166442 C.3        1 MOL1         0.1018
      13    H6      19.114134   13.273545   20.804444 H          1 MOL1         0.0783
      14    C5      18.643101   15.232412   19.965943 C.3        1 MOL1         0.1043
      15    H7      18.731439   16.274395   20.301654 H          1 MOL1         0.0783
      16    O4      17.281536   14.978878   19.541441 O.3        1 MOL1        -0.3740
      17    C6      19.557839   15.078892   18.721260 C.3        1 MOL1         0.0138
      18    H8      20.361865   15.821060   18.780435 H          1 MOL1         0.0794
      19    H9      18.972681   15.332189   17.827046 H          1 MOL1         0.0794
      20    O5      20.115421   13.766409   18.578912 O.3        1 MOL1        -0.5486
      21    H10     20.778037   13.649128   19.299640 H          1 MOL1         0.3769
      22    C7      14.817344   20.258728   21.541126 C.3        1 MOL1         0.2972
      23    H11     14.177094   21.144764   21.642811 H          1 MOL1         0.0751
      24    O6      16.213271   20.616696   21.499872 O.3        1 MOL1        -0.3740
      25    C8      14.590772   19.312123   22.742853 C.3        1 MOL1         0.1003
      26    H12     13.540014   18.994827   22.723976 H          1 MOL1         0.0783
      27    O7      14.859801   19.997435   23.976273 O.3        1 MOL1        -0.5519
      28    H13     15.430868   20.771361   23.751316 H          1 MOL1         0.3769
      29    C9      15.475726   18.052154   22.616784 C.3        1 MOL1         0.1053
      30    H14     16.520796   18.367050   22.724017 H          1 MOL1         0.0783
      31    O8      15.139735   17.125156   23.654691 O.3        1 MOL1        -0.5519
      32    H15     15.123789   17.664058   24.476780 H          1 MOL1         0.3769
      33    C10     15.318050   17.373237   21.234261 C.3        1 MOL1         0.1018
      34    H16     14.381955   16.799083   21.228975 H          1 MOL1         0.0783
      35    C11     15.342759   18.384826   20.052894 C.3        1 MOL1         0.1043
      36    H17     16.380311   18.718996   19.934356 H          1 MOL1         0.0783
      37    O9      14.505081   19.536881   20.331778 O.3        1 MOL1        -0.3740
      38    C12     14.901671   17.774077   18.701227 C.3        1 MOL1         0.0138
      39    H18     15.683013   17.082179   18.358830 H          1 MOL1         0.0794
      40    H19     14.832120   18.579409   17.957570 H          1 MOL1         0.0794
      41    O10     13.651269   17.082176   18.805406 O.3        1 MOL1        -0.5486
      42    H20     13.396112   16.790219   17.903030 H          1 MOL1         0.3769
      43    C13     18.590440   24.007095   20.871022 C.3        1 MOL1         0.2972
      44    H21     18.962337   24.989809   20.553235 H          1 MOL1         0.0751
      45    O11     19.639169   23.189663   21.417787 O.3        1 MOL1        -0.3740
      46    C14     17.489875   24.146690   21.957091 C.3        1 MOL1         0.1003
      47    H22     16.669653   24.729658   21.518434 H          1 MOL1         0.0783
      48    O12     17.986684   24.835170   23.116038 O.3        1 MOL1        -0.5519
      49    H23     18.842998   24.407370   23.372495 H          1 MOL1         0.3769
      50    C15     16.929090   22.756121   22.351789 C.3        1 MOL1         0.1053
      51    H24     17.727880   22.188713   22.849919 H          1 MOL1         0.0783
      52    O13     15.821095   22.918460   23.243472 O.3        1 MOL1        -0.5519
      53    H25     16.113504   23.594838   23.894538 H          1 MOL1         0.3769
      54    C16     16.487272   21.969527   21.093058 C.3        1 MOL1         0.1018
      55    H26     15.599557   22.457066   20.668526 H          1 MOL1         0.0783
      56    C17     17.602843   21.935428   20.014139 C.3        1 MOL1         0.1043
      57    H27     18.449394   21.356624   20.407204 H          1 MOL1         0.0783
      58    O14     18.025806   23.295752   19.746349 O.3        1 MOL1        -0.3740
      59    C18     17.186334   21.276542   18.672925 C.3        1 MOL1         0.0138
      60    H28     17.406975   20.203698   18.729356 H          1 MOL1         0.0794
      61    H29     17.817667   21.684952   17.872560 H          1 MOL1         0.0794
      62    O15     15.802477   21.467398   18.351576 O.3        1 MOL1        -0.5486
      63    H30     15.277077   20.917153   18.978412 H          1 MOL1         0.3769
      64    C19     23.643999   22.780902   22.069186 C.3        1 MOL1         0.2972
      65    H31     24.724056   22.868304   22.244797 H          1 MOL1         0.0751
      66    O16     23.259338   21.403459   21.879077 O.3        1 MOL1        -0.3740
      67    C20     22.871066   23.396336   23.264244 C.3        1 MOL1         0.1003
      68    H32     23.123035   24.464339   23.290109 H          1 MOL1         0.0783
      69    O17     23.261447   22.801774   24.510666 O.3        1 MOL1        -0.5519
      70    H33     22.840694   21.898556   24.548865 H          1 MOL1         0.3769
      71    C21     21.345821   23.275426   23.055637 C.3        1 MOL1         0.1053
      72    H34     21.082963   22.212690   23.092906 H          1 MOL1         0.0783
      73    O18     20.653429   23.973343   24.096364 O.3        1 MOL1        -0.5519
      74    H35     21.030541   23.617496   24.932022 H          1 MOL1         0.3769
      75    C22     20.905513   23.821955   21.677881 C.3        1 MOL1         0.1018
      76    H36     20.823199   24.915153   21.740529 H          1 MOL1         0.0783
      77    C23     21.851488   23.407357   20.514736 C.3        1 MOL1         0.1043
      78    H37     21.626411   22.360197   20.289787 H          1 MOL1         0.0783
      79    O19     23.252732   23.512985   20.886756 O.3        1 MOL1        -0.3740
      80    C24     21.622130   24.214313   19.214303 C.3        1 MOL1         0.0138
      81    H38     20.652928   23.922132   18.788041 H          1 MOL1         0.0794
      82    H39     22.394519   23.936257   18.484778 H          1 MOL1         0.0794
      83    O20     21.644165   25.627587   19.448047 O.3        1 MOL1        -0.5486
      84    H40     21.567863   26.075184   18.577093 H          1 MOL1         0.3769
      85    C25     24.792157   17.678189   20.835158 C.3        1 MOL1         0.2972
      86    H41     25.367877   16.843066   20.416322 H          1 MOL1         0.0751
      87    O21     23.570317   17.225707   21.447546 O.3        1 MOL1        -0.3740
      88    C26     25.623248   18.439483   21.897927 C.3        1 MOL1         0.1003
      89    H42     26.541204   18.782262   21.403137 H          1 MOL1         0.0783
      90    O22     25.972385   17.571787   22.988883 O.3        1 MOL1        -0.5519
      91    H43     25.131303   17.167669   23.317770 H          1 MOL1         0.3769
      92    C27     24.874302   19.690706   22.425454 C.3        1 MOL1         0.1053
      93    H44     24.054334   19.347049   23.066377 H          1 MOL1         0.0783
      94    O23     25.791040   20.482180   23.188266 O.3        1 MOL1        -0.5519
      95    H45     26.156475   19.874645   23.867365 H          1 MOL1         0.3769
      96    C28     24.262253   20.549657   21.285026 C.3        1 MOL1         0.1018
      97    H46     25.069620   21.131313   20.821549 H          1 MOL1         0.0783
      98    C29     23.564622   19.690753   20.190779 C.3        1 MOL1         0.1043
      99    H47     22.644026   19.270849   20.615709 H          1 MOL1         0.0783
     100    O24     24.447275   18.614624   19.794584 O.3        1 MOL1        -0.3740
     101    C30     23.157669   20.462392   18.907495 C.3        1 MOL1         0.0138
     102    H48     22.118726   20.795225   19.013104 H          1 MOL1         0.0794
     103    H49     23.170118   19.762032   18.061616 H          1 MOL1         0.0794
     104    O25     24.005209   21.582830   18.621709 O.3        1 MOL1        -0.5486
     105    H50     23.882220   22.240444   19.345520 H          1 MOL1         0.3769
     106    C31     21.258197   13.848452   21.975854 C.3        1 MOL1         0.2972
     107    H51     20.857291   12.837061   22.122603 H          1 MOL1         0.0751
     108    O26     20.195812   14.805500   21.782954 O.3        1 MOL1        -0.3740
     109    C32     22.082126   14.268540   23.219649 C.3        1 MOL1         0.1003
     110    H52     22.914165   13.561235   23.328412 H          1 MOL1         0.0783
     111    O27     21.248285   14.207182   24.386715 O.3        1 MOL1        -0.5519
     112    H53     20.411628   14.663883   24.150282 H          1 MOL1         0.3769
     113    C33     22.677281   15.685332   23.026629 C.3        1 MOL1         0.1053
     114    H54     21.839263   16.391927   23.007402 H          1 MOL1         0.0783
     115    O28     23.563798   16.029570   24.098302 O.3        1 MOL1        -0.5519
     116    H55     23.165818   16.851187   24.499326 H          1 MOL1         0.3769
     117    C34     23.441784   15.810305   21.686962 C.3        1 MOL1         0.1018
     118    H56     24.418564   15.319572   21.792584 H          1 MOL1         0.0783
     119    C35     22.656254   15.206331   20.489295 C.3        1 MOL1         0.1043
     120    H57     21.826617   15.890456   20.279753 H          1 MOL1         0.0783
     121    O29     22.121732   13.897831   20.820844 O.3        1 MOL1        -0.3740
     122    C36     23.487085   15.073362   19.189895 C.3        1 MOL1         0.0138
     123    H58     23.658068   16.076809   18.777744 H          1 MOL1         0.0794
     124    H59     22.896542   14.516963   18.449737 H          1 MOL1         0.0794
     125    O30     24.741166   14.419164   19.417716 O.3        1 MOL1        -0.5486
     126    H60     25.171984   14.287584   18.545018 H          1 MOL1         0.3769
     127    C1      21.656591   19.393771   24.257970 C.2        1 MOL1         0.6021
     128    O1      21.717520   20.499054   24.760372 O.co2      1 MOL1        -0.6904
     129    O2      22.312848   18.444645   24.643383 O.co2      1 MOL1        -0.6904
     130    C2      20.791882   19.219142   23.008106 C.3        1 MOL1        -0.2102
     131    H1      21.210940   18.409189   22.403616 H          1 MOL1         0.0687
     132    H2      20.880510   20.128189   22.405358 H          1 MOL1         0.0687
     133    C3      19.296365   18.943304   23.301004 C.3        1 MOL1        -0.1974
     134    H3      18.879255   19.767531   23.895960 H          1 MOL1         0.0689
     135    H4      18.744623   18.924272   22.351838 H          1 MOL1         0.0689
     136    C4      19.086996   17.606569   24.041951 C.3        1 MOL1        -0.2987
     137    H5      19.579727   17.619712   25.022897 H          1 MOL1         0.0700
     138    H6      18.021161   17.407402   24.204977 H          1 MOL1         0.0700
     139    H7      19.508116   16.776773   23.464758 H          1 MOL1         0.0700
@<TRIPOS>BOND
    1     1     2    1
    2     1     3    1
    3     1     4    1
    4     4     5    1
    5     4     6    1
    6     6     7    1
    7     4     8    1
    8     8     9    1
    9     8    10    1
   10    10    11    1
   11     8    12    1
   12    12    13    1
   13    12    14    1
   14    14    15    1
   15     1    16    1
   16    14    16    1
   17    14    17    1
   18    17    18    1
   19    17    19    1
   20    17    20    1
   21    20    21    1
   22    22    23    1
   23    22    24    1
   24    22    25    1
   25    25    26    1
   26    25    27    1
   27    27    28    1
   28    25    29    1
   29    29    30    1
   30    29    31    1
   31    31    32    1
   32     3    33    1
   33    29    33    1
   34    33    34    1
   35    33    35    1
   36    35    36    1
   37    22    37    1
   38    35    37    1
   39    35    38    1
   40    38    39    1
   41    38    40    1
   42    38    41    1
   43    41    42    1
   44    43    44    1
   45    43    45    1
   46    43    46    1
   47    46    47    1
   48    46    48    1
   49    48    49    1
   50    46    50    1
   51    50    51    1
   52    50    52    1
   53    52    53    1
   54    24    54    1
   55    50    54    1
   56    54    55    1
   57    54    56    1
   58    56    57    1
   59    43    58    1
   60    56    58    1
   61    56    59    1
   62    59    60    1
   63    59    61    1
   64    59    62    1
   65    62    63    1
   66    64    65    1
   67    64    66    1
   68    64    67    1
   69    67    68    1
   70    67    69    1
   71    69    70    1
   72    67    71    1
   73    71    72    1
   74    71    73    1
   75    73    74    1
   76    45    75    1
   77    71    75    1
   78    75    76    1
   79    75    77    1
   80    77    78    1
   81    64    79    1
   82    77    79    1
   83    77    80    1
   84    80    81    1
   85    80    82    1
   86    80    83    1
   87    83    84    1
   88    85    86    1
   89    85    87    1
   90    85    88    1
   91    88    89    1
   92    88    90    1
   93    90    91    1
   94    88    92    1
   95    92    93    1
   96    92    94    1
   97    94    95    1
   98    66    96    1
   99    92    96    1
  100    96    97    1
  101    96    98    1
  102    98    99    1
  103    85   100    1
  104    98   100    1
  105    98   101    1
  106   101   102    1
  107   101   103    1
  108   101   104    1
  109   104   105    1
  110   106   107    1
  111    12   108    1
  112   106   108    1
  113   106   109    1
  114   109   110    1
  115   109   111    1
  116   111   112    1
  117   109   113    1
  118   113   114    1
  119   113   115    1
  120   115   116    1
  121    87   117    1
  122   113   117    1
  123   117   118    1
  124   117   119    1
  125   119   120    1
  126   106   121    1
  127   119   121    1
  128   119   122    1
  129   122   123    1
  130   122   124    1
  131   122   125    1
  132   125   126    1
  133   127   128    1
  134   127   129    2
  135   127   130    1
  136   130   131    1
  137   130   132    1
  138   130   133    1
  139   133   134    1
  140   133   135    1
  141   133   136    1
  142   136   137    1
  143   136   138    1
  144   136   139    1
@<TRIPOS>SUBSTRUCTURE
       1 MOL1            1 RESIDUE      1      MOL     
       2 MOL1          139 RESIDUE      1      MOL     
@<SCITEGIC>MOL_PROPERTY
feprocess Rank
SciTegic.value.IntegerValue
54

@<SCITEGIC>MOL_PROPERTY
Conf_Id
SciTegic.value.IntegerValue
563

@<SCITEGIC>MOL_PROPERTY
Probability
SciTegic.value.DoubleValue
0.00

@<SCITEGIC>MOL_PROPERTY
G
SciTegic.value.DoubleValue
489.245

@<SCITEGIC>MOL_PROPERTY
E
SciTegic.value.DoubleValue
312.384

@<SCITEGIC>MOL_PROPERTY
-TS
SciTegic.value.DoubleValue
176.861

@<SCITEGIC>MOL_PROPERTY
U+W
SciTegic.value.DoubleValue
189.872

@<SCITEGIC>MOL_PROPERTY
U
SciTegic.value.DoubleValue
268.368

@<SCITEGIC>MOL_PROPERTY
W
SciTegic.value.DoubleValue
-78.496

@<SCITEGIC>MOL_PROPERTY
W(PB)
SciTegic.value.DoubleValue
-84.488

@<SCITEGIC>MOL_PROPERTY
W(SA)
SciTegic.value.DoubleValue
5.992

@<SCITEGIC>MOL_PROPERTY
Valence
SciTegic.value.DoubleValue
152.258

@<SCITEGIC>MOL_PROPERTY
Coulomb
SciTegic.value.DoubleValue
136.780

@<SCITEGIC>MOL_PROPERTY
VdW
SciTegic.value.DoubleValue
-20.671

@<SCITEGIC>MOL_PROPERTY
VdW6
SciTegic.value.DoubleValue
-172.117

@<SCITEGIC>MOL_PROPERTY
VdW12
SciTegic.value.DoubleValue
151.446

@<SCITEGIC>MOL_PROPERTY
Bond
SciTegic.value.DoubleValue
4.935

@<SCITEGIC>MOL_PROPERTY
Angle
SciTegic.value.DoubleValue
13.916

@<SCITEGIC>MOL_PROPERTY
Pdih
SciTegic.value.DoubleValue
133.391

@<SCITEGIC>MOL_PROPERTY
Idih
SciTegic.value.DoubleValue
0.016

@<SCITEGIC>MOL_PROPERTY
Tether
SciTegic.value.DoubleValue
0.000

@<TRIPOS>MOLECULE
CD_guest-6_fast_vm2_rndm.mol2 : feprocess host+ligand conformer 55
         139         144           2
SMALL
USER_CHARGES
 
@<TRIPOS>ATOM
       1    C1      16.142709   15.269379   20.905154 C.3        1 MOL1         0.2972
       2    H1      15.098274   15.137491   20.594014 H          1 MOL1         0.0751
       3    O1      16.383646   16.588796   21.420725 O.3        1 MOL1        -0.3740
       4    C2      16.526939   14.256158   22.015166 C.3        1 MOL1         0.1003
       5    H2      16.364948   13.248793   21.610252 H          1 MOL1         0.0783
       6    O2      15.705041   14.435391   23.180553 O.3        1 MOL1        -0.5519
       7    H3      15.712054   15.401343   23.401367 H          1 MOL1         0.3769
       8    C3      18.025646   14.386407   22.389480 C.3        1 MOL1         0.1053
       9    H4      18.174685   15.358570   22.880251 H          1 MOL1         0.0783
      10    O3      18.388547   13.329598   23.285424 O.3        1 MOL1        -0.5519
      11    H5      17.678143   13.313134   23.964449 H          1 MOL1         0.3769
      12    C4      18.926104   14.338329   21.130011 C.3        1 MOL1         0.1018
      13    H6      18.903649   13.314916   20.733051 H          1 MOL1         0.0783
      14    C5      18.432883   15.329698   20.037848 C.3        1 MOL1         0.1043
      15    H7      18.557402   16.352026   20.418822 H          1 MOL1         0.0783
      16    O4      17.029657   15.073033   19.783066 O.3        1 MOL1        -0.3740
      17    C6      19.181286   15.261084   18.682861 C.3        1 MOL1         0.0138
      18    H8      20.060490   15.914070   18.737621 H          1 MOL1         0.0794
      19    H9      18.528162   15.675976   17.903604 H          1 MOL1         0.0794
      20    O5      19.587278   13.935466   18.326417 O.3        1 MOL1        -0.5486
      21    H10     20.476713   13.800414   18.725931 H          1 MOL1         0.3769
      22    C7      14.830055   20.346219   21.839610 C.3        1 MOL1         0.2972
      23    H11     14.227214   21.255077   21.964565 H          1 MOL1         0.0751
      24    O6      16.217680   20.673589   21.609864 O.3        1 MOL1        -0.3740
      25    C8      14.681472   19.449890   23.096252 C.3        1 MOL1         0.1003
      26    H12     13.628118   19.145400   23.146506 H          1 MOL1         0.0783
      27    O7      15.008219   20.162401   24.298333 O.3        1 MOL1        -0.5519
      28    H13     16.002124   20.196051   24.361693 H          1 MOL1         0.3769
      29    C9      15.535592   18.171103   22.957476 C.3        1 MOL1         0.1053
      30    H14     16.589951   18.468830   22.940143 H          1 MOL1         0.0783
      31    O8      15.301938   17.294471   24.065728 O.3        1 MOL1        -0.5519
      32    H15     15.504649   17.835289   24.861781 H          1 MOL1         0.3769
      33    C10     15.235639   17.428507   21.636286 C.3        1 MOL1         0.1018
      34    H16     14.310983   16.849003   21.759148 H          1 MOL1         0.0783
      35    C11     15.133094   18.376332   20.406959 C.3        1 MOL1         0.1043
      36    H17     16.157244   18.667454   20.154043 H          1 MOL1         0.0783
      37    O9      14.367870   19.574905   20.708571 O.3        1 MOL1        -0.3740
      38    C12     14.522039   17.705099   19.153171 C.3        1 MOL1         0.0138
      39    H18     15.244534   16.979027   18.757000 H          1 MOL1         0.0794
      40    H19     14.374507   18.469732   18.378870 H          1 MOL1         0.0794
      41    O10     13.282769   17.048506   19.445473 O.3        1 MOL1        -0.5486
      42    H20     12.914442   16.715571   18.598001 H          1 MOL1         0.3769
      43    C13     18.661127   23.758352   20.262232 C.3        1 MOL1         0.2972
      44    H21     19.108945   24.626513   19.761786 H          1 MOL1         0.0751
      45    O11     19.654935   22.969417   20.944183 O.3        1 MOL1        -0.3740
      46    C14     17.570951   24.196548   21.273332 C.3        1 MOL1         0.1003
      47    H22     16.799131   24.725375   20.699095 H          1 MOL1         0.0783
      48    O12     18.099920   25.089572   22.265788 O.3        1 MOL1        -0.5519
      49    H23     18.836630   24.613333   22.725455 H          1 MOL1         0.3769
      50    C15     16.899621   22.969797   21.942319 C.3        1 MOL1         0.1053
      51    H24     17.631228   22.500167   22.612986 H          1 MOL1         0.0783
      52    O13     15.767123   23.423834   22.690678 O.3        1 MOL1        -0.5519
      53    H25     16.110669   24.131575   23.278165 H          1 MOL1         0.3769
      54    C16     16.447628   21.911082   20.898808 C.3        1 MOL1         0.1018
      55    H26     15.531228   22.278823   20.419295 H          1 MOL1         0.0783
      56    C17     17.518196   21.645053   19.798263 C.3        1 MOL1         0.1043
      57    H27     18.345068   21.082076   20.248460 H          1 MOL1         0.0783
      58    O14     18.016876   22.907502   19.292685 O.3        1 MOL1        -0.3740
      59    C18     17.022161   20.818641   18.582151 C.3        1 MOL1         0.0138
      60    H28     17.238455   19.759898   18.764640 H          1 MOL1         0.0794
      61    H29     17.615122   21.104092   17.702867 H          1 MOL1         0.0794
      62    O15     15.627027   20.994443   18.303009 O.3        1 MOL1        -0.5486
      63    H30     15.122540   20.621297   19.063087 H          1 MOL1         0.3769
      64    C19     23.606598   22.797380   22.043488 C.3        1 MOL1         0.2972
      65    H31     24.657241   22.961170   22.316065 H          1 MOL1         0.0751
      66    O16     23.299504   21.394335   21.922358 O.3        1 MOL1        -0.3740
      67    C20     22.681164   23.395372   23.129452 C.3        1 MOL1         0.1003
      68    H32     22.852143   24.478950   23.161792 H          1 MOL1         0.0783
      69    O17     23.009862   22.823183   24.405823 O.3        1 MOL1        -0.5519
      70    H33     23.362747   21.918444   24.231449 H          1 MOL1         0.3769
      71    C21     21.196794   23.154689   22.757400 C.3        1 MOL1         0.1053
      72    H34     21.014618   22.074799   22.800903 H          1 MOL1         0.0783
      73    O18     20.322712   23.819593   23.676440 O.3        1 MOL1        -0.5519
      74    H35     19.910674   23.083629   24.208078 H          1 MOL1         0.3769
      75    C22     20.880517   23.630035   21.316806 C.3        1 MOL1         0.1018
      76    H36     20.776864   24.723255   21.322074 H          1 MOL1         0.0783
      77    C23     21.956139   23.194150   20.279983 C.3        1 MOL1         0.1043
      78    H37     21.824658   22.119009   20.106650 H          1 MOL1         0.0783
      79    O19     23.296324   23.429938   20.785024 O.3        1 MOL1        -0.3740
      80    C24     21.820378   23.895618   18.907467 C.3        1 MOL1         0.0138
      81    H38     20.925124   23.506819   18.403669 H          1 MOL1         0.0794
      82    H39     22.685862   23.624467   18.287913 H          1 MOL1         0.0794
      83    O20     21.726106   25.319516   19.036162 O.3        1 MOL1        -0.5486
      84    H40     21.729047   25.701691   18.131432 H          1 MOL1         0.3769
      85    C25     25.105070   17.661005   21.617942 C.3        1 MOL1         0.2972
      86    H41     25.814611   16.837047   21.469481 H          1 MOL1         0.0751
      87    O21     23.769958   17.177061   21.860256 O.3        1 MOL1        -0.3740
      88    C26     25.524289   18.496653   22.852300 C.3        1 MOL1         0.1003
      89    H42     26.532966   18.887115   22.664836 H          1 MOL1         0.0783
      90    O22     25.542041   17.670770   24.027745 O.3        1 MOL1        -0.5519
      91    H43     24.831779   16.992550   23.909747 H          1 MOL1         0.3769
      92    C27     24.571438   19.698879   23.050897 C.3        1 MOL1         0.1053
      93    H44     23.586401   19.304699   23.330303 H          1 MOL1         0.0783
      94    O23     25.068593   20.538888   24.096652 O.3        1 MOL1        -0.5519
      95    H45     25.314852   19.923393   24.822715 H          1 MOL1         0.3769
      96    C28     24.418415   20.510642   21.740862 C.3        1 MOL1         0.1018
      97    H46     25.351846   21.056580   21.550627 H          1 MOL1         0.0783
      98    C29     24.098929   19.600276   20.523543 C.3        1 MOL1         0.1043
      99    H47     23.098597   19.173819   20.672916 H          1 MOL1         0.0783
     100    O24     25.072614   18.527072   20.461549 O.3        1 MOL1        -0.3740
     101    C30     24.074522   20.332358   19.155456 C.3        1 MOL1         0.0138
     102    H48     23.049501   20.671464   18.961178 H          1 MOL1         0.0794
     103    H49     24.322196   19.609668   18.366509 H          1 MOL1         0.0794
     104    O25     24.967150   21.451298   19.092378 O.3        1 MOL1        -0.5486
     105    H50     24.569590   22.171215   19.635558 H          1 MOL1         0.3769
     106    C31     21.327261   13.865925   21.140419 C.3        1 MOL1         0.2972
     107    H51     20.964855   12.870625   20.853454 H          1 MOL1         0.0751
     108    O26     20.246266   14.719710   21.565233 O.3        1 MOL1        -0.3740
     109    C32     22.315505   13.735529   22.325885 C.3        1 MOL1         0.1003
     110    H52     23.134707   13.078253   22.006618 H          1 MOL1         0.0783
     111    O27     21.651594   13.155806   23.460461 O.3        1 MOL1        -0.5519
     112    H53     20.719329   13.484128   23.440319 H          1 MOL1         0.3769
     113    C33     22.919628   15.109961   22.697969 C.3        1 MOL1         0.1053
     114    H54     22.113915   15.731825   23.106719 H          1 MOL1         0.0783
     115    O28     23.946806   14.936873   23.680533 O.3        1 MOL1        -0.5519
     116    H55     23.555665   14.340389   24.356703 H          1 MOL1         0.3769
     117    C34     23.494424   15.824971   21.452210 C.3        1 MOL1         0.1018
     118    H56     24.401251   15.293999   21.134198 H          1 MOL1         0.0783
     119    C35     22.468728   15.852550   20.285001 C.3        1 MOL1         0.1043
     120    H57     21.619596   16.477321   20.592759 H          1 MOL1         0.0783
     121    O29     22.006264   14.500883   20.035053 O.3        1 MOL1        -0.3740
     122    C36     23.002488   16.438004   18.952024 C.3        1 MOL1         0.0138
     123    H58     22.854178   17.524773   18.964581 H          1 MOL1         0.0794
     124    H59     22.393172   16.044436   18.127732 H          1 MOL1         0.0794
     125    O30     24.384250   16.146474   18.718355 O.3        1 MOL1        -0.5486
     126    H60     24.900926   16.837291   19.192990 H          1 MOL1         0.3769
     127    C1      18.690534   20.390352   24.171323 C.2        1 MOL1         0.6021
     128    O1      17.739093   19.821362   24.669833 O.co2      1 MOL1        -0.6904
     129    O2      19.076005   21.488616   24.523988 O.co2      1 MOL1        -0.6904
     130    C2      19.375151   19.739012   22.969059 C.3        1 MOL1        -0.2102
     131    H1      19.437594   20.497525   22.183131 H          1 MOL1         0.0687
     132    H2      18.736600   18.937292   22.582928 H          1 MOL1         0.0687
     133    C3      20.791824   19.189437   23.267564 C.3        1 MOL1        -0.1974
     134    H3      21.285565   18.924852   22.323561 H          1 MOL1         0.0689
     135    H4      21.395397   19.978421   23.735752 H          1 MOL1         0.0689
     136    C4      20.760855   17.952192   24.186064 C.3        1 MOL1        -0.2987
     137    H5      20.210345   17.127638   23.714548 H          1 MOL1         0.0700
     138    H6      21.780134   17.609051   24.403581 H          1 MOL1         0.0700
     139    H7      20.273220   18.185454   25.141644 H          1 MOL1         0.0700
@<TRIPOS>BOND
    1     1     2    1
    2     1     3    1
    3     1     4    1
    4     4     5    1
    5     4     6    1
    6     6     7    1
    7     4     8    1
    8     8     9    1
    9     8    10    1
   10    10    11    1
   11     8    12    1
   12    12    13    1
   13    12    14    1
   14    14    15    1
   15     1    16    1
   16    14    16    1
   17    14    17    1
   18    17    18    1
   19    17    19    1
   20    17    20    1
   21    20    21    1
   22    22    23    1
   23    22    24    1
   24    22    25    1
   25    25    26    1
   26    25    27    1
   27    27    28    1
   28    25    29    1
   29    29    30    1
   30    29    31    1
   31    31    32    1
   32     3    33    1
   33    29    33    1
   34    33    34    1
   35    33    35    1
   36    35    36    1
   37    22    37    1
   38    35    37    1
   39    35    38    1
   40    38    39    1
   41    38    40    1
   42    38    41    1
   43    41    42    1
   44    43    44    1
   45    43    45    1
   46    43    46    1
   47    46    47    1
   48    46    48    1
   49    48    49    1
   50    46    50    1
   51    50    51    1
   52    50    52    1
   53    52    53    1
   54    24    54    1
   55    50    54    1
   56    54    55    1
   57    54    56    1
   58    56    57    1
   59    43    58    1
   60    56    58    1
   61    56    59    1
   62    59    60    1
   63    59    61    1
   64    59    62    1
   65    62    63    1
   66    64    65    1
   67    64    66    1
   68    64    67    1
   69    67    68    1
   70    67    69    1
   71    69    70    1
   72    67    71    1
   73    71    72    1
   74    71    73    1
   75    73    74    1
   76    45    75    1
   77    71    75    1
   78    75    76    1
   79    75    77    1
   80    77    78    1
   81    64    79    1
   82    77    79    1
   83    77    80    1
   84    80    81    1
   85    80    82    1
   86    80    83    1
   87    83    84    1
   88    85    86    1
   89    85    87    1
   90    85    88    1
   91    88    89    1
   92    88    90    1
   93    90    91    1
   94    88    92    1
   95    92    93    1
   96    92    94    1
   97    94    95    1
   98    66    96    1
   99    92    96    1
  100    96    97    1
  101    96    98    1
  102    98    99    1
  103    85   100    1
  104    98   100    1
  105    98   101    1
  106   101   102    1
  107   101   103    1
  108   101   104    1
  109   104   105    1
  110   106   107    1
  111    12   108    1
  112   106   108    1
  113   106   109    1
  114   109   110    1
  115   109   111    1
  116   111   112    1
  117   109   113    1
  118   113   114    1
  119   113   115    1
  120   115   116    1
  121    87   117    1
  122   113   117    1
  123   117   118    1
  124   117   119    1
  125   119   120    1
  126   106   121    1
  127   119   121    1
  128   119   122    1
  129   122   123    1
  130   122   124    1
  131   122   125    1
  132   125   126    1
  133   127   128    1
  134   127   129    2
  135   127   130    1
  136   130   131    1
  137   130   132    1
  138   130   133    1
  139   133   134    1
  140   133   135    1
  141   133   136    1
  142   136   137    1
  143   136   138    1
  144   136   139    1
@<TRIPOS>SUBSTRUCTURE
       1 MOL1            1 RESIDUE      1      MOL     
       2 MOL1          139 RESIDUE      1      MOL     
@<SCITEGIC>MOL_PROPERTY
feprocess Rank
SciTegic.value.IntegerValue
55

@<SCITEGIC>MOL_PROPERTY
Conf_Id
SciTegic.value.IntegerValue
216

@<SCITEGIC>MOL_PROPERTY
Probability
SciTegic.value.DoubleValue
0.00

@<SCITEGIC>MOL_PROPERTY
G
SciTegic.value.DoubleValue
489.296

@<SCITEGIC>MOL_PROPERTY
E
SciTegic.value.DoubleValue
313.620

@<SCITEGIC>MOL_PROPERTY
-TS
SciTegic.value.DoubleValue
175.677

@<SCITEGIC>MOL_PROPERTY
U+W
SciTegic.value.DoubleValue
191.108

@<SCITEGIC>MOL_PROPERTY
U
SciTegic.value.DoubleValue
270.309

@<SCITEGIC>MOL_PROPERTY
W
SciTegic.value.DoubleValue
-79.201

@<SCITEGIC>MOL_PROPERTY
W(PB)
SciTegic.value.DoubleValue
-85.154

@<SCITEGIC>MOL_PROPERTY
W(SA)
SciTegic.value.DoubleValue
5.954

@<SCITEGIC>MOL_PROPERTY
Valence
SciTegic.value.DoubleValue
154.489

@<SCITEGIC>MOL_PROPERTY
Coulomb
SciTegic.value.DoubleValue
136.872

@<SCITEGIC>MOL_PROPERTY
VdW
SciTegic.value.DoubleValue
-21.052

@<SCITEGIC>MOL_PROPERTY
VdW6
SciTegic.value.DoubleValue
-172.826

@<SCITEGIC>MOL_PROPERTY
VdW12
SciTegic.value.DoubleValue
151.775

@<SCITEGIC>MOL_PROPERTY
Bond
SciTegic.value.DoubleValue
4.919

@<SCITEGIC>MOL_PROPERTY
Angle
SciTegic.value.DoubleValue
13.898

@<SCITEGIC>MOL_PROPERTY
Pdih
SciTegic.value.DoubleValue
135.657

@<SCITEGIC>MOL_PROPERTY
Idih
SciTegic.value.DoubleValue
0.015

@<SCITEGIC>MOL_PROPERTY
Tether
SciTegic.value.DoubleValue
0.000

@<TRIPOS>MOLECULE
CD_guest-6_fast_vm2_rndm.mol2 : feprocess host+ligand conformer 56
         139         144           2
SMALL
USER_CHARGES
 
@<TRIPOS>ATOM
       1    C1      16.302100   15.461987   20.261310 C.3        1 MOL1         0.2972
       2    H1      15.310203   15.399537   19.795537 H          1 MOL1         0.0751
       3    O1      16.507552   16.737297   20.898471 O.3        1 MOL1        -0.3740
       4    C2      16.500967   14.335437   21.310142 C.3        1 MOL1         0.1003
       5    H2      16.400039   13.380562   20.778100 H          1 MOL1         0.0783
       6    O2      15.508909   14.394151   22.346693 O.3        1 MOL1        -0.5519
       7    H3      15.572922   15.291026   22.763300 H          1 MOL1         0.3769
       8    C3      17.926131   14.389252   21.916227 C.3        1 MOL1         0.1053
       9    H4      18.017100   15.308875   22.512609 H          1 MOL1         0.0783
      10    O3      18.123878   13.243143   22.751571 O.3        1 MOL1        -0.5519
      11    H5      17.324925   13.198471   23.321520 H          1 MOL1         0.3769
      12    C4      19.007257   14.421782   20.805597 C.3        1 MOL1         0.1018
      13    H6      19.043841   13.430008   20.336334 H          1 MOL1         0.0783
      14    C5      18.689988   15.494654   19.721980 C.3        1 MOL1         0.1043
      15    H7      18.779491   16.487193   20.178937 H          1 MOL1         0.0783
      16    O4      17.329628   15.305950   19.258971 O.3        1 MOL1        -0.3740
      17    C6      19.619797   15.489722   18.482214 C.3        1 MOL1         0.0138
      18    H8      20.477582   16.140698   18.687719 H          1 MOL1         0.0794
      19    H9      19.078318   15.941218   17.640247 H          1 MOL1         0.0794
      20    O5      20.080489   14.182697   18.122790 O.3        1 MOL1        -0.5486
      21    H10     20.857680   13.991989   18.696960 H          1 MOL1         0.3769
      22    C7      14.725090   20.284147   21.938557 C.3        1 MOL1         0.2972
      23    H11     14.071249   21.124890   22.203489 H          1 MOL1         0.0751
      24    O6      16.093423   20.698053   21.772039 O.3        1 MOL1        -0.3740
      25    C8      14.685085   19.211154   23.051246 C.3        1 MOL1         0.1003
      26    H12     13.657118   18.830246   23.109010 H          1 MOL1         0.0783
      27    O7      15.052159   19.780427   24.318221 O.3        1 MOL1        -0.5519
      28    H13     15.631986   20.559779   24.128640 H          1 MOL1         0.3769
      29    C9      15.615142   18.028307   22.697790 C.3        1 MOL1         0.1053
      30    H14     16.651355   18.389466   22.727161 H          1 MOL1         0.0783
      31    O8      15.440717   16.989407   23.666384 O.3        1 MOL1        -0.5519
      32    H15     15.497528   17.444542   24.536171 H          1 MOL1         0.3769
      33    C10     15.333278   17.481629   21.274746 C.3        1 MOL1         0.1018
      34    H16     14.437701   16.847429   21.314890 H          1 MOL1         0.0783
      35    C11     15.150630   18.604050   20.209592 C.3        1 MOL1         0.1043
      36    H17     16.142587   19.019901   19.992123 H          1 MOL1         0.0783
      37    O9      14.295293   19.666153   20.708562 O.3        1 MOL1        -0.3740
      38    C12     14.569490   18.098304   18.867756 C.3        1 MOL1         0.0138
      39    H18     15.335984   17.496935   18.360420 H          1 MOL1         0.0794
      40    H19     14.359897   18.965866   18.227682 H          1 MOL1         0.0794
      41    O10     13.382390   17.317395   19.052998 O.3        1 MOL1        -0.5486
      42    H20     13.025028   17.102460   18.163796 H          1 MOL1         0.3769
      43    C13     18.504893   24.051591   21.370270 C.3        1 MOL1         0.2972
      44    H21     18.898915   25.067254   21.236166 H          1 MOL1         0.0751
      45    O11     19.561009   23.075374   21.441943 O.3        1 MOL1        -0.3740
      46    C14     17.707803   23.966259   22.694996 C.3        1 MOL1         0.1003
      47    H22     16.872196   24.674972   22.627422 H          1 MOL1         0.0783
      48    O12     18.543749   24.321641   23.808077 O.3        1 MOL1        -0.5519
      49    H23     19.477094   24.147891   23.531083 H          1 MOL1         0.3769
      50    C15     17.121286   22.547785   22.887147 C.3        1 MOL1         0.1053
      51    H24     17.954759   21.845088   23.027805 H          1 MOL1         0.0783
      52    O13     16.275122   22.531408   24.041169 O.3        1 MOL1        -0.5519
      53    H25     16.784016   23.009719   24.733651 H          1 MOL1         0.3769
      54    C16     16.323187   22.109514   21.635708 C.3        1 MOL1         0.1018
      55    H26     15.388105   22.683234   21.594086 H          1 MOL1         0.0783
      56    C17     17.122278   22.328284   20.320921 C.3        1 MOL1         0.1043
      57    H27     17.968406   21.633937   20.323597 H          1 MOL1         0.0783
      58    O14     17.628297   23.687881   20.278564 O.3        1 MOL1        -0.3740
      59    C18     16.324925   22.039297   19.022458 C.3        1 MOL1         0.0138
      60    H28     16.446017   20.977614   18.771817 H          1 MOL1         0.0794
      61    H29     16.772887   22.613120   18.200180 H          1 MOL1         0.0794
      62    O15     14.929822   22.343575   19.133627 O.3        1 MOL1        -0.5486
      63    H30     14.514457   21.602238   19.631309 H          1 MOL1         0.3769
      64    C19     23.579679   22.483229   20.557687 C.3        1 MOL1         0.2972
      65    H31     24.607081   22.546986   20.176689 H          1 MOL1         0.0751
      66    O16     23.319189   21.205845   21.173203 O.3        1 MOL1        -0.3740
      67    C20     23.286341   23.608073   21.587936 C.3        1 MOL1         0.1003
      68    H32     23.398689   24.565230   21.062276 H          1 MOL1         0.0783
      69    O17     24.203844   23.575257   22.691451 O.3        1 MOL1        -0.5519
      70    H33     24.107680   22.689522   23.125167 H          1 MOL1         0.3769
      71    C21     21.824680   23.510654   22.091715 C.3        1 MOL1         0.1053
      72    H34     21.717992   22.576086   22.660648 H          1 MOL1         0.0783
      73    O18     21.526658   24.628120   22.935573 O.3        1 MOL1        -0.5519
      74    H35     22.305931   24.717779   23.528327 H          1 MOL1         0.3769
      75    C22     20.833228   23.470367   20.902464 C.3        1 MOL1         0.1018
      76    H36     20.797669   24.466688   20.442594 H          1 MOL1         0.0783
      77    C23     21.245846   22.424622   19.829303 C.3        1 MOL1         0.1043
      78    H37     21.138451   21.423553   20.263764 H          1 MOL1         0.0783
      79    O19     22.635034   22.638987   19.473540 O.3        1 MOL1        -0.3740
      80    C24     20.385207   22.439635   18.539056 C.3        1 MOL1         0.0138
      81    H38     19.543709   21.748976   18.676537 H          1 MOL1         0.0794
      82    H39     20.988536   22.042004   17.712164 H          1 MOL1         0.0794
      83    O20     19.885265   23.739373   18.202924 O.3        1 MOL1        -0.5486
      84    H40     19.130307   23.921564   18.809238 H          1 MOL1         0.3769
      85    C25     24.939810   17.672362   22.488123 C.3        1 MOL1         0.2972
      86    H41     25.555100   16.838098   22.849066 H          1 MOL1         0.0751
      87    O21     23.603877   17.237408   22.167102 O.3        1 MOL1        -0.3740
      88    C26     24.890098   18.787887   23.562277 C.3        1 MOL1         0.1003
      89    H42     25.913253   19.170311   23.670759 H          1 MOL1         0.0783
      90    O22     24.455591   18.283998   24.833453 O.3        1 MOL1        -0.5519
      91    H43     23.479053   18.093427   24.759831 H          1 MOL1         0.3769
      92    C27     23.997504   19.957923   23.093034 C.3        1 MOL1         0.1053
      93    H44     22.965190   19.591741   23.014505 H          1 MOL1         0.0783
      94    O23     24.059449   21.018264   24.052740 O.3        1 MOL1        -0.5519
      95    H45     23.859853   20.586657   24.913898 H          1 MOL1         0.3769
      96    C28     24.441035   20.473588   21.700402 C.3        1 MOL1         0.1018
      97    H46     25.330322   21.106275   21.821700 H          1 MOL1         0.0783
      98    C29     24.726536   19.324623   20.690332 C.3        1 MOL1         0.1043
      99    H47     23.752792   18.924011   20.387052 H          1 MOL1         0.0783
     100    O24     25.506186   18.256622   21.294906 O.3        1 MOL1        -0.3740
     101    C30     25.448051   19.793841   19.404465 C.3        1 MOL1         0.0138
     102    H48     24.746453   20.394838   18.810269 H          1 MOL1         0.0794
     103    H49     25.708974   18.911335   18.804935 H          1 MOL1         0.0794
     104    O25     26.621143   20.562944   19.695909 O.3        1 MOL1        -0.5486
     105    H50     27.071794   20.754151   18.844455 H          1 MOL1         0.3769
     106    C31     21.360330   13.869377   21.219231 C.3        1 MOL1         0.2972
     107    H51     21.018687   12.871287   20.916857 H          1 MOL1         0.0751
     108    O26     20.248296   14.752716   21.461811 O.3        1 MOL1        -0.3740
     109    C32     22.181938   13.759026   22.525669 C.3        1 MOL1         0.1003
     110    H52     23.022011   13.080959   22.327105 H          1 MOL1         0.0783
     111    O27     21.368480   13.210216   23.573778 O.3        1 MOL1        -0.5519
     112    H53     20.492368   13.660649   23.507915 H          1 MOL1         0.3769
     113    C33     22.767494   15.126627   22.953624 C.3        1 MOL1         0.1053
     114    H54     21.941361   15.760001   23.302352 H          1 MOL1         0.0783
     115    O28     23.704873   14.911000   24.013750 O.3        1 MOL1        -0.5519
     116    H55     23.190283   14.479257   24.729322 H          1 MOL1         0.3769
     117    C34     23.467481   15.855102   21.777661 C.3        1 MOL1         0.1018
     118    H56     24.441047   15.378542   21.604131 H          1 MOL1         0.0783
     119    C35     22.635674   15.811109   20.463457 C.3        1 MOL1         0.1043
     120    H57     21.755042   16.449788   20.600532 H          1 MOL1         0.0783
     121    O29     22.203211   14.451993   20.203448 O.3        1 MOL1        -0.3740
     122    C36     23.375380   16.327101   19.200157 C.3        1 MOL1         0.0138
     123    H58     23.146461   17.391161   19.069974 H          1 MOL1         0.0794
     124    H59     22.964896   15.813319   18.320565 H          1 MOL1         0.0794
     125    O30     24.794826   16.138407   19.252081 O.3        1 MOL1        -0.5486
     126    H60     25.147816   16.751139   19.939312 H          1 MOL1         0.3769
     127    C1      20.590489   17.845021   24.464834 C.2        1 MOL1         0.6021
     128    O1      21.686577   18.208899   24.843653 O.co2      1 MOL1        -0.6904
     129    O2      20.078838   16.789798   24.784160 O.co2      1 MOL1        -0.6904
     130    C2      19.841067   18.738861   23.482658 C.3        1 MOL1        -0.2102
     131    H1      20.085034   19.783603   23.709563 H          1 MOL1         0.0687
     132    H2      18.767890   18.608636   23.661202 H          1 MOL1         0.0687
     133    C3      20.182108   18.417964   22.009397 C.3        1 MOL1        -0.1974
     134    H3      21.249067   18.603061   21.832456 H          1 MOL1         0.0689
     135    H4      20.007239   17.351393   21.832194 H          1 MOL1         0.0689
     136    C4      19.342091   19.256386   21.030606 C.3        1 MOL1        -0.2987
     137    H5      19.653414   19.078255   19.993831 H          1 MOL1         0.0700
     138    H6      18.278445   19.006387   21.118026 H          1 MOL1         0.0700
     139    H7      19.461372   20.321448   21.254256 H          1 MOL1         0.0700
@<TRIPOS>BOND
    1     1     2    1
    2     1     3    1
    3     1     4    1
    4     4     5    1
    5     4     6    1
    6     6     7    1
    7     4     8    1
    8     8     9    1
    9     8    10    1
   10    10    11    1
   11     8    12    1
   12    12    13    1
   13    12    14    1
   14    14    15    1
   15     1    16    1
   16    14    16    1
   17    14    17    1
   18    17    18    1
   19    17    19    1
   20    17    20    1
   21    20    21    1
   22    22    23    1
   23    22    24    1
   24    22    25    1
   25    25    26    1
   26    25    27    1
   27    27    28    1
   28    25    29    1
   29    29    30    1
   30    29    31    1
   31    31    32    1
   32     3    33    1
   33    29    33    1
   34    33    34    1
   35    33    35    1
   36    35    36    1
   37    22    37    1
   38    35    37    1
   39    35    38    1
   40    38    39    1
   41    38    40    1
   42    38    41    1
   43    41    42    1
   44    43    44    1
   45    43    45    1
   46    43    46    1
   47    46    47    1
   48    46    48    1
   49    48    49    1
   50    46    50    1
   51    50    51    1
   52    50    52    1
   53    52    53    1
   54    24    54    1
   55    50    54    1
   56    54    55    1
   57    54    56    1
   58    56    57    1
   59    43    58    1
   60    56    58    1
   61    56    59    1
   62    59    60    1
   63    59    61    1
   64    59    62    1
   65    62    63    1
   66    64    65    1
   67    64    66    1
   68    64    67    1
   69    67    68    1
   70    67    69    1
   71    69    70    1
   72    67    71    1
   73    71    72    1
   74    71    73    1
   75    73    74    1
   76    45    75    1
   77    71    75    1
   78    75    76    1
   79    75    77    1
   80    77    78    1
   81    64    79    1
   82    77    79    1
   83    77    80    1
   84    80    81    1
   85    80    82    1
   86    80    83    1
   87    83    84    1
   88    85    86    1
   89    85    87    1
   90    85    88    1
   91    88    89    1
   92    88    90    1
   93    90    91    1
   94    88    92    1
   95    92    93    1
   96    92    94    1
   97    94    95    1
   98    66    96    1
   99    92    96    1
  100    96    97    1
  101    96    98    1
  102    98    99    1
  103    85   100    1
  104    98   100    1
  105    98   101    1
  106   101   102    1
  107   101   103    1
  108   101   104    1
  109   104   105    1
  110   106   107    1
  111    12   108    1
  112   106   108    1
  113   106   109    1
  114   109   110    1
  115   109   111    1
  116   111   112    1
  117   109   113    1
  118   113   114    1
  119   113   115    1
  120   115   116    1
  121    87   117    1
  122   113   117    1
  123   117   118    1
  124   117   119    1
  125   119   120    1
  126   106   121    1
  127   119   121    1
  128   119   122    1
  129   122   123    1
  130   122   124    1
  131   122   125    1
  132   125   126    1
  133   127   128    1
  134   127   129    2
  135   127   130    1
  136   130   131    1
  137   130   132    1
  138   130   133    1
  139   133   134    1
  140   133   135    1
  141   133   136    1
  142   136   137    1
  143   136   138    1
  144   136   139    1
@<TRIPOS>SUBSTRUCTURE
       1 MOL1            1 RESIDUE      1      MOL     
       2 MOL1          139 RESIDUE      1      MOL     
@<SCITEGIC>MOL_PROPERTY
feprocess Rank
SciTegic.value.IntegerValue
56

@<SCITEGIC>MOL_PROPERTY
Conf_Id
SciTegic.value.IntegerValue
470

@<SCITEGIC>MOL_PROPERTY
Probability
SciTegic.value.DoubleValue
0.00

@<SCITEGIC>MOL_PROPERTY
G
SciTegic.value.DoubleValue
489.300

@<SCITEGIC>MOL_PROPERTY
E
SciTegic.value.DoubleValue
314.587

@<SCITEGIC>MOL_PROPERTY
-TS
SciTegic.value.DoubleValue
174.713

@<SCITEGIC>MOL_PROPERTY
U+W
SciTegic.value.DoubleValue
192.075

@<SCITEGIC>MOL_PROPERTY
U
SciTegic.value.DoubleValue
270.688

@<SCITEGIC>MOL_PROPERTY
W
SciTegic.value.DoubleValue
-78.612

@<SCITEGIC>MOL_PROPERTY
W(PB)
SciTegic.value.DoubleValue
-84.512

@<SCITEGIC>MOL_PROPERTY
W(SA)
SciTegic.value.DoubleValue
5.900

@<SCITEGIC>MOL_PROPERTY
Valence
SciTegic.value.DoubleValue
153.541

@<SCITEGIC>MOL_PROPERTY
Coulomb
SciTegic.value.DoubleValue
140.121

@<SCITEGIC>MOL_PROPERTY
VdW
SciTegic.value.DoubleValue
-22.974

@<SCITEGIC>MOL_PROPERTY
VdW6
SciTegic.value.DoubleValue
-172.978

@<SCITEGIC>MOL_PROPERTY
VdW12
SciTegic.value.DoubleValue
150.004

@<SCITEGIC>MOL_PROPERTY
Bond
SciTegic.value.DoubleValue
4.802

@<SCITEGIC>MOL_PROPERTY
Angle
SciTegic.value.DoubleValue
13.738

@<SCITEGIC>MOL_PROPERTY
Pdih
SciTegic.value.DoubleValue
134.996

@<SCITEGIC>MOL_PROPERTY
Idih
SciTegic.value.DoubleValue
0.005

@<SCITEGIC>MOL_PROPERTY
Tether
SciTegic.value.DoubleValue
0.000

@<TRIPOS>MOLECULE
CD_guest-6_fast_vm2_rndm.mol2 : feprocess host+ligand conformer 57
         139         144           2
SMALL
USER_CHARGES
 
@<TRIPOS>ATOM
       1    C1      16.149403   15.264830   20.596444 C.3        1 MOL1         0.2972
       2    H1      15.095566   15.118050   20.330332 H          1 MOL1         0.0751
       3    O1      16.421931   16.646041   20.915063 O.3        1 MOL1        -0.3740
       4    C2      16.559039   14.343646   21.777725 C.3        1 MOL1         0.1003
       5    H2      16.441840   13.309589   21.427989 H          1 MOL1         0.0783
       6    O2      15.718612   14.529222   22.925491 O.3        1 MOL1        -0.5519
       7    H3      15.877502   15.450567   23.252628 H          1 MOL1         0.3769
       8    C3      18.052832   14.549653   22.131765 C.3        1 MOL1         0.1053
       9    H4      18.192275   15.579404   22.491996 H          1 MOL1         0.0783
      10    O3      18.437622   13.616793   23.148143 O.3        1 MOL1        -0.5519
      11    H5      17.726522   13.665786   23.824822 H          1 MOL1         0.3769
      12    C4      18.935237   14.341969   20.876171 C.3        1 MOL1         0.1018
      13    H6      18.946460   13.269159   20.643272 H          1 MOL1         0.0783
      14    C5      18.408971   15.136051   19.647449 C.3        1 MOL1         0.1043
      15    H7      18.582305   16.203828   19.830421 H          1 MOL1         0.0783
      16    O4      16.986202   14.906342   19.477034 O.3        1 MOL1        -0.3740
      17    C6      19.118228   14.767377   18.322499 C.3        1 MOL1         0.0138
      18    H8      20.140494   15.165992   18.351308 H          1 MOL1         0.0794
      19    H9      18.597960   15.268869   17.495609 H          1 MOL1         0.0794
      20    O5      19.153267   13.350938   18.103263 O.3        1 MOL1        -0.5486
      21    H10     19.595643   13.194884   17.240733 H          1 MOL1         0.3769
      22    C7      14.847070   20.277240   22.069516 C.3        1 MOL1         0.2972
      23    H11     14.252862   21.135511   22.406665 H          1 MOL1         0.0751
      24    O6      16.128051   20.680977   21.546233 O.3        1 MOL1        -0.3740
      25    C8      15.078127   19.287947   23.238436 C.3        1 MOL1         0.1003
      26    H12     14.100824   18.869657   23.510639 H          1 MOL1         0.0783
      27    O7      15.621728   19.959614   24.383869 O.3        1 MOL1        -0.5519
      28    H13     16.581288   20.142650   24.187536 H          1 MOL1         0.3769
      29    C9      15.980480   18.123087   22.760233 C.3        1 MOL1         0.1053
      30    H14     16.943712   18.541775   22.449810 H          1 MOL1         0.0783
      31    O8      16.202379   17.187018   23.819077 O.3        1 MOL1        -0.5519
      32    H15     17.017209   17.530817   24.278795 H          1 MOL1         0.3769
      33    C10     15.364670   17.419846   21.523605 C.3        1 MOL1         0.1018
      34    H16     14.528601   16.791798   21.856040 H          1 MOL1         0.0783
      35    C11     14.884041   18.434739   20.442373 C.3        1 MOL1         0.1043
      36    H17     15.778665   18.827604   19.944412 H          1 MOL1         0.0783
      37    O9      14.155929   19.544873   21.033511 O.3        1 MOL1        -0.3740
      38    C12     13.997020   17.798948   19.344629 C.3        1 MOL1         0.0138
      39    H18     14.599021   17.075878   18.777726 H          1 MOL1         0.0794
      40    H19     13.697214   18.588150   18.642417 H          1 MOL1         0.0794
      41    O10     12.832203   17.157468   19.881330 O.3        1 MOL1        -0.5486
      42    H20     13.117895   16.373995   20.394447 H          1 MOL1         0.3769
      43    C13     18.434534   24.058369   20.881166 C.3        1 MOL1         0.2972
      44    H21     18.822540   25.035196   20.565784 H          1 MOL1         0.0751
      45    O11     19.468501   23.253731   21.486824 O.3        1 MOL1        -0.3740
      46    C14     17.314070   24.263183   21.928550 C.3        1 MOL1         0.1003
      47    H22     16.541454   24.887611   21.461406 H          1 MOL1         0.0783
      48    O12     17.840023   24.942173   23.080131 O.3        1 MOL1        -0.5519
      49    H23     18.744507   24.574035   23.229840 H          1 MOL1         0.3769
      50    C15     16.653563   22.923991   22.343610 C.3        1 MOL1         0.1053
      51    H24     17.374981   22.367644   22.954961 H          1 MOL1         0.0783
      52    O13     15.482898   23.222137   23.111723 O.3        1 MOL1        -0.5519
      53    H25     15.793017   23.806177   23.837484 H          1 MOL1         0.3769
      54    C16     16.282727   22.046184   21.115481 C.3        1 MOL1         0.1018
      55    H26     15.363714   22.432667   20.657264 H          1 MOL1         0.0783
      56    C17     17.418196   22.005492   20.058559 C.3        1 MOL1         0.1043
      57    H27     18.247936   21.436045   20.493708 H          1 MOL1         0.0783
      58    O14     17.874382   23.346414   19.758094 O.3        1 MOL1        -0.3740
      59    C18     17.030228   21.294074   18.736808 C.3        1 MOL1         0.0138
      60    H28     17.142611   20.211973   18.881698 H          1 MOL1         0.0794
      61    H29     17.744553   21.586169   17.956021 H          1 MOL1         0.0794
      62    O15     15.693857   21.588249   18.312187 O.3        1 MOL1        -0.5486
      63    H30     15.083521   21.187559   18.968977 H          1 MOL1         0.3769
      64    C19     23.634668   22.683757   21.250331 C.3        1 MOL1         0.2972
      65    H31     24.698014   22.839349   21.026749 H          1 MOL1         0.0751
      66    O16     23.396118   21.379764   21.810316 O.3        1 MOL1        -0.3740
      67    C20     23.136780   23.729858   22.281342 C.3        1 MOL1         0.1003
      68    H32     23.349530   24.724347   21.868192 H          1 MOL1         0.0783
      69    O17     23.833310   23.574198   23.529332 O.3        1 MOL1        -0.5519
      70    H33     23.874650   22.603369   23.718487 H          1 MOL1         0.3769
      71    C21     21.605858   23.624145   22.506307 C.3        1 MOL1         0.1053
      72    H34     21.401846   22.682756   23.034284 H          1 MOL1         0.0783
      73    O18     21.167648   24.731220   23.302296 O.3        1 MOL1        -0.5519
      74    H35     21.796292   24.770877   24.056544 H          1 MOL1         0.3769
      75    C22     20.831540   23.601737   21.164047 C.3        1 MOL1         0.1018
      76    H36     20.901643   24.598834   20.709891 H          1 MOL1         0.0783
      77    C23     21.431649   22.545076   20.193923 C.3        1 MOL1         0.1043
      78    H37     21.292120   21.551484   20.636979 H          1 MOL1         0.0783
      79    O19     22.846428   22.810673   20.048519 O.3        1 MOL1        -0.3740
      80    C24     20.814958   22.504384   18.773555 C.3        1 MOL1         0.0138
      81    H38     19.938285   21.846899   18.792497 H          1 MOL1         0.0794
      82    H39     21.541279   22.040531   18.092995 H          1 MOL1         0.0794
      83    O20     20.440172   23.795689   18.282587 O.3        1 MOL1        -0.5486
      84    H40     19.514464   23.948005   18.580870 H          1 MOL1         0.3769
      85    C25     25.102514   17.632516   22.112925 C.3        1 MOL1         0.2972
      86    H41     25.760454   16.758252   22.199578 H          1 MOL1         0.0751
      87    O21     23.723568   17.247525   21.963224 O.3        1 MOL1        -0.3740
      88    C26     25.219104   18.505063   23.385045 C.3        1 MOL1         0.1003
      89    H42     26.259128   18.847861   23.461926 H          1 MOL1         0.0783
      90    O22     24.881967   17.734571   24.549754 O.3        1 MOL1        -0.5519
      91    H43     24.271512   17.016994   24.249154 H          1 MOL1         0.3769
      92    C27     24.308397   19.749211   23.276032 C.3        1 MOL1         0.1053
      93    H44     23.268548   19.402923   23.285191 H          1 MOL1         0.0783
      94    O23     24.539343   20.618608   24.390523 O.3        1 MOL1        -0.5519
      95    H45     24.530526   20.029642   25.177450 H          1 MOL1         0.3769
      96    C28     24.544023   20.520815   21.955945 C.3        1 MOL1         0.1018
      97    H46     25.475527   21.093647   22.055096 H          1 MOL1         0.0783
      98    C29     24.614923   19.586450   20.711832 C.3        1 MOL1         0.1043
      99    H47     23.596557   19.237101   20.502658 H          1 MOL1         0.0783
     100    O24     25.467598   18.440668   20.975698 O.3        1 MOL1        -0.3740
     101    C30     25.136451   20.279593   19.429993 C.3        1 MOL1         0.0138
     102    H48     24.358084   20.954996   19.052464 H          1 MOL1         0.0794
     103    H49     25.299197   19.513673   18.659770 H          1 MOL1         0.0794
     104    O25     26.345670   21.011514   19.665921 O.3        1 MOL1        -0.5486
     105    H50     26.653103   21.364646   18.802718 H          1 MOL1         0.3769
     106    C31     21.359573   13.974907   20.872191 C.3        1 MOL1         0.2972
     107    H51     21.023155   12.998852   20.500113 H          1 MOL1         0.0751
     108    O26     20.249439   14.834384   21.203434 O.3        1 MOL1        -0.3740
     109    C32     22.205588   13.799187   22.160061 C.3        1 MOL1         0.1003
     110    H52     23.061488   13.160065   21.907232 H          1 MOL1         0.0783
     111    O27     21.434319   13.167431   23.194819 O.3        1 MOL1        -0.5519
     112    H53     20.515757   13.535401   23.141800 H          1 MOL1         0.3769
     113    C33     22.756528   15.162226   22.649308 C.3        1 MOL1         0.1053
     114    H54     21.908606   15.778989   22.978355 H          1 MOL1         0.0783
     115    O28     23.656925   14.953570   23.742843 O.3        1 MOL1        -0.5519
     116    H55     23.195141   14.318639   24.334720 H          1 MOL1         0.3769
     117    C34     23.482226   15.906515   21.501922 C.3        1 MOL1         0.1018
     118    H56     24.415420   15.374752   21.274057 H          1 MOL1         0.0783
     119    C35     22.608382   15.973791   20.218553 C.3        1 MOL1         0.1043
     120    H57     21.724716   16.587119   20.426204 H          1 MOL1         0.0783
     121    O29     22.179973   14.633715   19.880916 O.3        1 MOL1        -0.3740
     122    C36     23.306387   16.597122   18.982157 C.3        1 MOL1         0.0138
     123    H58     23.126570   17.679160   18.990494 H          1 MOL1         0.0794
     124    H59     22.825997   16.204771   18.075989 H          1 MOL1         0.0794
     125    O30     24.715954   16.345501   18.938355 O.3        1 MOL1        -0.5486
     126    H60     25.136564   16.952119   19.591646 H          1 MOL1         0.3769
     127    C1      19.036386   19.357257   23.851429 C.2        1 MOL1         0.6021
     128    O1      18.326221   20.338138   23.935690 O.co2      1 MOL1        -0.6904
     129    O2      18.748676   18.282248   24.343987 O.co2      1 MOL1        -0.6904
     130    C2      20.353069   19.496829   23.095423 C.3        1 MOL1        -0.2102
     131    H1      21.144311   19.304251   23.826694 H          1 MOL1         0.0687
     132    H2      20.463476   20.537511   22.770737 H          1 MOL1         0.0687
     133    C3      20.524296   18.541871   21.886852 C.3        1 MOL1        -0.1974
     134    H3      21.567016   18.592846   21.557026 H          1 MOL1         0.0689
     135    H4      20.336867   17.508744   22.209794 H          1 MOL1         0.0689
     136    C4      19.618646   18.885887   20.687347 C.3        1 MOL1        -0.2987
     137    H5      19.833515   19.890929   20.313874 H          1 MOL1         0.0700
     138    H6      19.786086   18.181256   19.864117 H          1 MOL1         0.0700
     139    H7      18.559382   18.839627   20.965347 H          1 MOL1         0.0700
@<TRIPOS>BOND
    1     1     2    1
    2     1     3    1
    3     1     4    1
    4     4     5    1
    5     4     6    1
    6     6     7    1
    7     4     8    1
    8     8     9    1
    9     8    10    1
   10    10    11    1
   11     8    12    1
   12    12    13    1
   13    12    14    1
   14    14    15    1
   15     1    16    1
   16    14    16    1
   17    14    17    1
   18    17    18    1
   19    17    19    1
   20    17    20    1
   21    20    21    1
   22    22    23    1
   23    22    24    1
   24    22    25    1
   25    25    26    1
   26    25    27    1
   27    27    28    1
   28    25    29    1
   29    29    30    1
   30    29    31    1
   31    31    32    1
   32     3    33    1
   33    29    33    1
   34    33    34    1
   35    33    35    1
   36    35    36    1
   37    22    37    1
   38    35    37    1
   39    35    38    1
   40    38    39    1
   41    38    40    1
   42    38    41    1
   43    41    42    1
   44    43    44    1
   45    43    45    1
   46    43    46    1
   47    46    47    1
   48    46    48    1
   49    48    49    1
   50    46    50    1
   51    50    51    1
   52    50    52    1
   53    52    53    1
   54    24    54    1
   55    50    54    1
   56    54    55    1
   57    54    56    1
   58    56    57    1
   59    43    58    1
   60    56    58    1
   61    56    59    1
   62    59    60    1
   63    59    61    1
   64    59    62    1
   65    62    63    1
   66    64    65    1
   67    64    66    1
   68    64    67    1
   69    67    68    1
   70    67    69    1
   71    69    70    1
   72    67    71    1
   73    71    72    1
   74    71    73    1
   75    73    74    1
   76    45    75    1
   77    71    75    1
   78    75    76    1
   79    75    77    1
   80    77    78    1
   81    64    79    1
   82    77    79    1
   83    77    80    1
   84    80    81    1
   85    80    82    1
   86    80    83    1
   87    83    84    1
   88    85    86    1
   89    85    87    1
   90    85    88    1
   91    88    89    1
   92    88    90    1
   93    90    91    1
   94    88    92    1
   95    92    93    1
   96    92    94    1
   97    94    95    1
   98    66    96    1
   99    92    96    1
  100    96    97    1
  101    96    98    1
  102    98    99    1
  103    85   100    1
  104    98   100    1
  105    98   101    1
  106   101   102    1
  107   101   103    1
  108   101   104    1
  109   104   105    1
  110   106   107    1
  111    12   108    1
  112   106   108    1
  113   106   109    1
  114   109   110    1
  115   109   111    1
  116   111   112    1
  117   109   113    1
  118   113   114    1
  119   113   115    1
  120   115   116    1
  121    87   117    1
  122   113   117    1
  123   117   118    1
  124   117   119    1
  125   119   120    1
  126   106   121    1
  127   119   121    1
  128   119   122    1
  129   122   123    1
  130   122   124    1
  131   122   125    1
  132   125   126    1
  133   127   128    1
  134   127   129    2
  135   127   130    1
  136   130   131    1
  137   130   132    1
  138   130   133    1
  139   133   134    1
  140   133   135    1
  141   133   136    1
  142   136   137    1
  143   136   138    1
  144   136   139    1
@<TRIPOS>SUBSTRUCTURE
       1 MOL1            1 RESIDUE      1      MOL     
       2 MOL1          139 RESIDUE      1      MOL     
@<SCITEGIC>MOL_PROPERTY
feprocess Rank
SciTegic.value.IntegerValue
57

@<SCITEGIC>MOL_PROPERTY
Conf_Id
SciTegic.value.IntegerValue
184

@<SCITEGIC>MOL_PROPERTY
Probability
SciTegic.value.DoubleValue
0.00

@<SCITEGIC>MOL_PROPERTY
G
SciTegic.value.DoubleValue
489.446

@<SCITEGIC>MOL_PROPERTY
E
SciTegic.value.DoubleValue
314.324

@<SCITEGIC>MOL_PROPERTY
-TS
SciTegic.value.DoubleValue
175.121

@<SCITEGIC>MOL_PROPERTY
U+W
SciTegic.value.DoubleValue
191.813

@<SCITEGIC>MOL_PROPERTY
U
SciTegic.value.DoubleValue
267.311

@<SCITEGIC>MOL_PROPERTY
W
SciTegic.value.DoubleValue
-75.498

@<SCITEGIC>MOL_PROPERTY
W(PB)
SciTegic.value.DoubleValue
-81.450

@<SCITEGIC>MOL_PROPERTY
W(SA)
SciTegic.value.DoubleValue
5.952

@<SCITEGIC>MOL_PROPERTY
Valence
SciTegic.value.DoubleValue
153.314

@<SCITEGIC>MOL_PROPERTY
Coulomb
SciTegic.value.DoubleValue
136.690

@<SCITEGIC>MOL_PROPERTY
VdW
SciTegic.value.DoubleValue
-22.692

@<SCITEGIC>MOL_PROPERTY
VdW6
SciTegic.value.DoubleValue
-174.115

@<SCITEGIC>MOL_PROPERTY
VdW12
SciTegic.value.DoubleValue
151.423

@<SCITEGIC>MOL_PROPERTY
Bond
SciTegic.value.DoubleValue
4.920

@<SCITEGIC>MOL_PROPERTY
Angle
SciTegic.value.DoubleValue
14.613

@<SCITEGIC>MOL_PROPERTY
Pdih
SciTegic.value.DoubleValue
133.780

@<SCITEGIC>MOL_PROPERTY
Idih
SciTegic.value.DoubleValue
0.000

@<SCITEGIC>MOL_PROPERTY
Tether
SciTegic.value.DoubleValue
0.000

@<TRIPOS>MOLECULE
CD_guest-6_fast_vm2_rndm.mol2 : feprocess host+ligand conformer 58
         139         144           2
SMALL
USER_CHARGES
 
@<TRIPOS>ATOM
       1    C1      16.305386   15.341296   21.870549 C.3        1 MOL1         0.2972
       2    H1      15.213219   15.307128   21.972667 H          1 MOL1         0.0751
       3    O1      16.754284   16.673847   21.555596 O.3        1 MOL1        -0.3740
       4    C2      16.966350   14.857026   23.186254 C.3        1 MOL1         0.1003
       5    H2      16.651740   13.816228   23.335570 H          1 MOL1         0.0783
       6    O2      16.531674   15.634218   24.311962 O.3        1 MOL1        -0.5519
       7    H3      17.027695   16.499400   24.277945 H          1 MOL1         0.3769
       8    C3      18.507165   14.874235   23.072719 C.3        1 MOL1         0.1053
       9    H4      18.830738   15.916908   22.977052 H          1 MOL1         0.0783
      10    O3      19.080050   14.302029   24.252216 O.3        1 MOL1        -0.5519
      11    H5      18.695562   14.824244   24.992212 H          1 MOL1         0.3769
      12    C4      18.999077   14.112698   21.819313 C.3        1 MOL1         0.1018
      13    H6      18.965405   13.034450   22.020279 H          1 MOL1         0.0783
      14    C5      18.177660   14.459051   20.545950 C.3        1 MOL1         0.1043
      15    H7      18.482735   15.465257   20.241147 H          1 MOL1         0.0783
      16    O4      16.749069   14.463801   20.810691 O.3        1 MOL1        -0.3740
      17    C6      18.457018   13.515795   19.350270 C.3        1 MOL1         0.0138
      18    H8      19.496163   13.656998   19.022955 H          1 MOL1         0.0794
      19    H9      17.813022   13.814858   18.512799 H          1 MOL1         0.0794
      20    O5      18.226281   12.138418   19.672553 O.3        1 MOL1        -0.5486
      21    H10     18.969191   11.826269   20.229215 H          1 MOL1         0.3769
      22    C7      15.300332   20.294247   20.075878 C.3        1 MOL1         0.2972
      23    H11     14.779766   21.080735   19.514701 H          1 MOL1         0.0751
      24    O6      16.385215   20.831464   20.854019 O.3        1 MOL1        -0.3740
      25    C8      14.324736   19.541900   21.018358 C.3        1 MOL1         0.1003
      26    H12     13.539187   19.112271   20.383290 H          1 MOL1         0.0783
      27    O7      13.716979   20.435766   21.964510 O.3        1 MOL1        -0.5519
      28    H13     14.451343   20.868901   22.467888 H          1 MOL1         0.3769
      29    C9      15.026884   18.369114   21.752444 C.3        1 MOL1         0.1053
      30    H14     15.724362   18.789259   22.489162 H          1 MOL1         0.0783
      31    O8      14.024385   17.587124   22.410898 O.3        1 MOL1        -0.5519
      32    H15     13.517493   18.224827   22.958889 H          1 MOL1         0.3769
      33    C10     15.840710   17.475355   20.776637 C.3        1 MOL1         0.1018
      34    H16     15.138582   16.850380   20.209879 H          1 MOL1         0.0783
      35    C11     16.692363   18.310118   19.779736 C.3        1 MOL1         0.1043
      36    H17     17.500351   18.794594   20.341457 H          1 MOL1         0.0783
      37    O9      15.857040   19.321917   19.166560 O.3        1 MOL1        -0.3740
      38    C12     17.363364   17.486300   18.650982 C.3        1 MOL1         0.0138
      39    H18     18.348104   17.155845   19.002473 H          1 MOL1         0.0794
      40    H19     17.545925   18.149735   17.795169 H          1 MOL1         0.0794
      41    O10     16.585367   16.355107   18.237085 O.3        1 MOL1        -0.5486
      42    H20     16.507436   15.751112   19.010651 H          1 MOL1         0.3769
      43    C13     18.316116   24.247639   21.997442 C.3        1 MOL1         0.2972
      44    H21     18.675248   25.247659   22.272161 H          1 MOL1         0.0751
      45    O11     19.384670   23.282077   21.961680 O.3        1 MOL1        -0.3740
      46    C14     17.282193   23.748852   23.034069 C.3        1 MOL1         0.1003
      47    H22     16.409380   24.413020   22.996516 H          1 MOL1         0.0783
      48    O12     17.866226   23.795612   24.346482 O.3        1 MOL1        -0.5519
      49    H23     18.816443   23.547436   24.245849 H          1 MOL1         0.3769
      50    C15     16.820293   22.317687   22.661237 C.3        1 MOL1         0.1053
      51    H24     17.688965   21.657208   22.765827 H          1 MOL1         0.0783
      52    O13     15.781360   21.856873   23.532272 O.3        1 MOL1        -0.5519
      53    H25     16.194929   21.085141   24.009179 H          1 MOL1         0.3769
      54    C16     16.336898   22.230715   21.191222 C.3        1 MOL1         0.1018
      55    H26     15.318590   22.636903   21.130538 H          1 MOL1         0.0783
      56    C17     17.277393   22.965351   20.190430 C.3        1 MOL1         0.1043
      57    H27     18.170482   22.340290   20.063031 H          1 MOL1         0.0783
      58    O14     17.681327   24.262479   20.702796 O.3        1 MOL1        -0.3740
      59    C18     16.661577   23.165921   18.785185 C.3        1 MOL1         0.0138
      60    H28     16.610626   22.190149   18.283545 H          1 MOL1         0.0794
      61    H29     17.336207   23.800234   18.194576 H          1 MOL1         0.0794
      62    O15     15.355019   23.750776   18.846341 O.3        1 MOL1        -0.5486
      63    H30     15.063605   23.927388   17.925218 H          1 MOL1         0.3769
      64    C19     23.491225   22.803927   21.741570 C.3        1 MOL1         0.2972
      65    H31     24.575869   22.951469   21.659576 H          1 MOL1         0.0751
      66    O16     23.147696   21.404553   21.772304 O.3        1 MOL1        -0.3740
      67    C20     22.973627   23.447120   23.051204 C.3        1 MOL1         0.1003
      68    H32     23.204616   24.519503   23.009987 H          1 MOL1         0.0783
      69    O17     23.629108   22.861767   24.187545 O.3        1 MOL1        -0.5519
      70    H33     23.939521   21.966432   23.905364 H          1 MOL1         0.3769
      71    C21     21.439871   23.289816   23.168860 C.3        1 MOL1         0.1053
      72    H34     21.217829   22.221821   23.294403 H          1 MOL1         0.0783
      73    O18     20.967010   24.015562   24.307754 O.3        1 MOL1        -0.5519
      74    H35     21.590487   23.784780   25.032095 H          1 MOL1         0.3769
      75    C22     20.726311   23.786011   21.887150 C.3        1 MOL1         0.1018
      76    H36     20.762591   24.882886   21.859945 H          1 MOL1         0.0783
      77    C23     21.366519   23.202108   20.597202 C.3        1 MOL1         0.1043
      78    H37     21.160737   22.125468   20.587092 H          1 MOL1         0.0783
      79    O19     22.801694   23.412431   20.626530 O.3        1 MOL1        -0.3740
      80    C24     20.804177   23.773066   19.268806 C.3        1 MOL1         0.0138
      81    H38     19.964778   23.144159   18.947242 H          1 MOL1         0.0794
      82    H39     21.577819   23.686199   18.494119 H          1 MOL1         0.0794
      83    O20     20.366200   25.132217   19.374801 O.3        1 MOL1        -0.5486
      84    H40     19.477485   25.112748   19.798919 H          1 MOL1         0.3769
      85    C25     24.779934   17.683610   20.722276 C.3        1 MOL1         0.2972
      86    H41     25.432627   16.914442   20.289634 H          1 MOL1         0.0751
      87    O21     23.601547   17.109105   21.317656 O.3        1 MOL1        -0.3740
      88    C26     25.523234   18.467227   21.836421 C.3        1 MOL1         0.1003
      89    H42     26.426882   18.899731   21.387758 H          1 MOL1         0.0783
      90    O22     25.900842   17.589129   22.909957 O.3        1 MOL1        -0.5519
      91    H43     25.126496   16.998448   23.091183 H          1 MOL1         0.3769
      92    C27     24.652456   19.631317   22.374408 C.3        1 MOL1         0.1053
      93    H44     23.789079   19.200869   22.901047 H          1 MOL1         0.0783
      94    O23     25.422909   20.432007   23.277370 O.3        1 MOL1        -0.5519
      95    H45     25.878867   19.788392   23.864286 H          1 MOL1         0.3769
      96    C28     24.121096   20.505056   21.212490 C.3        1 MOL1         0.1018
      97    H46     24.964712   21.041619   20.758403 H          1 MOL1         0.0783
      98    C29     23.429544   19.636550   20.128066 C.3        1 MOL1         0.1043
      99    H47     22.547529   19.161794   20.574373 H          1 MOL1         0.0783
     100    O24     24.362901   18.616582   19.700875 O.3        1 MOL1        -0.3740
     101    C30     22.946142   20.410026   18.874539 C.3        1 MOL1         0.0138
     102    H48     21.925327   20.766564   19.057032 H          1 MOL1         0.0794
     103    H49     22.887164   19.706777   18.033219 H          1 MOL1         0.0794
     104    O25     23.790375   21.515322   18.530913 O.3        1 MOL1        -0.5486
     105    H50     23.611404   22.230307   19.185171 H          1 MOL1         0.3769
     106    C31     21.385200   13.619353   21.404878 C.3        1 MOL1         0.2972
     107    H51     20.995862   12.594927   21.358692 H          1 MOL1         0.0751
     108    O26     20.335789   14.589952   21.575895 O.3        1 MOL1        -0.3740
     109    C32     22.394011   13.778198   22.570779 C.3        1 MOL1         0.1003
     110    H52     23.245313   13.118180   22.358946 H          1 MOL1         0.0783
     111    O27     21.810561   13.396511   23.825530 O.3        1 MOL1        -0.5519
     112    H53     20.924012   13.835046   23.887226 H          1 MOL1         0.3769
     113    C33     22.923932   15.231561   22.629445 C.3        1 MOL1         0.1053
     114    H54     22.087488   15.893736   22.892611 H          1 MOL1         0.0783
     115    O28     23.950184   15.329804   23.623591 O.3        1 MOL1        -0.5519
     116    H55     23.589681   14.860214   24.408496 H          1 MOL1         0.3769
     117    C34     23.487952   15.674823   21.256713 C.3        1 MOL1         0.1018
     118    H56     24.465221   15.192815   21.121650 H          1 MOL1         0.0783
     119    C35     22.549060   15.314748   20.067725 C.3        1 MOL1         0.1043
     120    H57     21.684386   15.990997   20.098744 H          1 MOL1         0.0783
     121    O29     22.086884   13.944129   20.187429 O.3        1 MOL1        -0.3740
     122    C36     23.210364   15.477791   18.677820 C.3        1 MOL1         0.0138
     123    H58     23.316227   16.549234   18.463509 H          1 MOL1         0.0794
     124    H59     22.534649   15.061671   17.918696 H          1 MOL1         0.0794
     125    O30     24.491184   14.837811   18.608163 O.3        1 MOL1        -0.5486
     126    H60     24.820371   14.931217   17.687691 H          1 MOL1         0.3769
     127    C1      18.297460   18.931075   24.137012 C.2        1 MOL1         0.6021
     128    O1      17.315130   19.640932   24.238501 O.co2      1 MOL1        -0.6904
     129    O2      18.312379   17.764664   24.477918 O.co2      1 MOL1        -0.6904
     130    C2      19.609989   19.573125   23.682179 C.3        1 MOL1        -0.2102
     131    H1      20.440971   19.022507   24.138911 H          1 MOL1         0.0687
     132    H2      19.634088   20.584464   24.104268 H          1 MOL1         0.0687
     133    C3      19.811693   19.657862   22.144887 C.3        1 MOL1        -0.1974
     134    H3      18.939306   20.133720   21.680961 H          1 MOL1         0.0689
     135    H4      20.670412   20.306756   21.939693 H          1 MOL1         0.0689
     136    C4      20.066177   18.285114   21.491556 C.3        1 MOL1        -0.2987
     137    H5      19.203771   17.625879   21.630617 H          1 MOL1         0.0700
     138    H6      20.241629   18.391383   20.414182 H          1 MOL1         0.0700
     139    H7      20.941392   17.796795   21.937193 H          1 MOL1         0.0700
@<TRIPOS>BOND
    1     1     2    1
    2     1     3    1
    3     1     4    1
    4     4     5    1
    5     4     6    1
    6     6     7    1
    7     4     8    1
    8     8     9    1
    9     8    10    1
   10    10    11    1
   11     8    12    1
   12    12    13    1
   13    12    14    1
   14    14    15    1
   15     1    16    1
   16    14    16    1
   17    14    17    1
   18    17    18    1
   19    17    19    1
   20    17    20    1
   21    20    21    1
   22    22    23    1
   23    22    24    1
   24    22    25    1
   25    25    26    1
   26    25    27    1
   27    27    28    1
   28    25    29    1
   29    29    30    1
   30    29    31    1
   31    31    32    1
   32     3    33    1
   33    29    33    1
   34    33    34    1
   35    33    35    1
   36    35    36    1
   37    22    37    1
   38    35    37    1
   39    35    38    1
   40    38    39    1
   41    38    40    1
   42    38    41    1
   43    41    42    1
   44    43    44    1
   45    43    45    1
   46    43    46    1
   47    46    47    1
   48    46    48    1
   49    48    49    1
   50    46    50    1
   51    50    51    1
   52    50    52    1
   53    52    53    1
   54    24    54    1
   55    50    54    1
   56    54    55    1
   57    54    56    1
   58    56    57    1
   59    43    58    1
   60    56    58    1
   61    56    59    1
   62    59    60    1
   63    59    61    1
   64    59    62    1
   65    62    63    1
   66    64    65    1
   67    64    66    1
   68    64    67    1
   69    67    68    1
   70    67    69    1
   71    69    70    1
   72    67    71    1
   73    71    72    1
   74    71    73    1
   75    73    74    1
   76    45    75    1
   77    71    75    1
   78    75    76    1
   79    75    77    1
   80    77    78    1
   81    64    79    1
   82    77    79    1
   83    77    80    1
   84    80    81    1
   85    80    82    1
   86    80    83    1
   87    83    84    1
   88    85    86    1
   89    85    87    1
   90    85    88    1
   91    88    89    1
   92    88    90    1
   93    90    91    1
   94    88    92    1
   95    92    93    1
   96    92    94    1
   97    94    95    1
   98    66    96    1
   99    92    96    1
  100    96    97    1
  101    96    98    1
  102    98    99    1
  103    85   100    1
  104    98   100    1
  105    98   101    1
  106   101   102    1
  107   101   103    1
  108   101   104    1
  109   104   105    1
  110   106   107    1
  111    12   108    1
  112   106   108    1
  113   106   109    1
  114   109   110    1
  115   109   111    1
  116   111   112    1
  117   109   113    1
  118   113   114    1
  119   113   115    1
  120   115   116    1
  121    87   117    1
  122   113   117    1
  123   117   118    1
  124   117   119    1
  125   119   120    1
  126   106   121    1
  127   119   121    1
  128   119   122    1
  129   122   123    1
  130   122   124    1
  131   122   125    1
  132   125   126    1
  133   127   128    1
  134   127   129    2
  135   127   130    1
  136   130   131    1
  137   130   132    1
  138   130   133    1
  139   133   134    1
  140   133   135    1
  141   133   136    1
  142   136   137    1
  143   136   138    1
  144   136   139    1
@<TRIPOS>SUBSTRUCTURE
       1 MOL1            1 RESIDUE      1      MOL     
       2 MOL1          139 RESIDUE      1      MOL     
@<SCITEGIC>MOL_PROPERTY
feprocess Rank
SciTegic.value.IntegerValue
58

@<SCITEGIC>MOL_PROPERTY
Conf_Id
SciTegic.value.IntegerValue
275

@<SCITEGIC>MOL_PROPERTY
Probability
SciTegic.value.DoubleValue
0.00

@<SCITEGIC>MOL_PROPERTY
G
SciTegic.value.DoubleValue
489.486

@<SCITEGIC>MOL_PROPERTY
E
SciTegic.value.DoubleValue
313.724

@<SCITEGIC>MOL_PROPERTY
-TS
SciTegic.value.DoubleValue
175.762

@<SCITEGIC>MOL_PROPERTY
U+W
SciTegic.value.DoubleValue
191.213

@<SCITEGIC>MOL_PROPERTY
U
SciTegic.value.DoubleValue
267.345

@<SCITEGIC>MOL_PROPERTY
W
SciTegic.value.DoubleValue
-76.132

@<SCITEGIC>MOL_PROPERTY
W(PB)
SciTegic.value.DoubleValue
-82.013

@<SCITEGIC>MOL_PROPERTY
W(SA)
SciTegic.value.DoubleValue
5.881

@<SCITEGIC>MOL_PROPERTY
Valence
SciTegic.value.DoubleValue
154.561

@<SCITEGIC>MOL_PROPERTY
Coulomb
SciTegic.value.DoubleValue
135.667

@<SCITEGIC>MOL_PROPERTY
VdW
SciTegic.value.DoubleValue
-22.883

@<SCITEGIC>MOL_PROPERTY
VdW6
SciTegic.value.DoubleValue
-175.219

@<SCITEGIC>MOL_PROPERTY
VdW12
SciTegic.value.DoubleValue
152.336

@<SCITEGIC>MOL_PROPERTY
Bond
SciTegic.value.DoubleValue
4.906

@<SCITEGIC>MOL_PROPERTY
Angle
SciTegic.value.DoubleValue
14.600

@<SCITEGIC>MOL_PROPERTY
Pdih
SciTegic.value.DoubleValue
135.032

@<SCITEGIC>MOL_PROPERTY
Idih
SciTegic.value.DoubleValue
0.023

@<SCITEGIC>MOL_PROPERTY
Tether
SciTegic.value.DoubleValue
0.000

@<TRIPOS>MOLECULE
CD_guest-6_fast_vm2_rndm.mol2 : feprocess host+ligand conformer 59
         139         144           2
SMALL
USER_CHARGES
 
@<TRIPOS>ATOM
       1    C1      16.398533   15.313725   21.309158 C.3        1 MOL1         0.2972
       2    H1      15.350733   15.109042   21.054458 H          1 MOL1         0.0751
       3    O1      16.590243   16.704944   21.640115 O.3        1 MOL1        -0.3740
       4    C2      16.800464   14.445154   22.528968 C.3        1 MOL1         0.1003
       5    H2      16.594116   13.399461   22.266218 H          1 MOL1         0.0783
       6    O2      16.014526   14.807165   23.675332 O.3        1 MOL1        -0.5519
       7    H3      15.727737   15.742587   23.535388 H          1 MOL1         0.3769
       8    C3      18.310190   14.561796   22.846936 C.3        1 MOL1         0.1053
       9    H4      18.493926   15.572665   23.229914 H          1 MOL1         0.0783
      10    O3      18.663388   13.594987   23.841775 O.3        1 MOL1        -0.5519
      11    H5      17.982500   13.690570   24.544037 H          1 MOL1         0.3769
      12    C4      19.166503   14.347392   21.573884 C.3        1 MOL1         0.1018
      13    H6      19.083593   13.294643   21.273079 H          1 MOL1         0.0783
      14    C5      18.671898   15.246890   20.408645 C.3        1 MOL1         0.1043
      15    H7      18.819151   16.294238   20.702135 H          1 MOL1         0.0783
      16    O4      17.260353   14.994338   20.196230 O.3        1 MOL1        -0.3740
      17    C6      19.399009   15.038405   19.055093 C.3        1 MOL1         0.0138
      18    H8      20.286992   15.680438   19.030181 H          1 MOL1         0.0794
      19    H9      18.739816   15.384367   18.247764 H          1 MOL1         0.0794
      20    O5      19.779176   13.677877   18.822461 O.3        1 MOL1        -0.5486
      21    H10     20.601333   13.517737   19.341921 H          1 MOL1         0.3769
      22    C7      14.703219   20.394405   20.776081 C.3        1 MOL1         0.2972
      23    H11     13.992189   21.118293   20.357468 H          1 MOL1         0.0751
      24    O6      15.753687   21.061563   21.503795 O.3        1 MOL1        -0.3740
      25    C8      13.978848   19.451658   21.774702 C.3        1 MOL1         0.1003
      26    H12     13.139531   18.987608   21.240614 H          1 MOL1         0.0783
      27    O7      13.476842   20.204601   22.889457 O.3        1 MOL1        -0.5519
      28    H13     14.188009   20.845978   23.125326 H          1 MOL1         0.3769
      29    C9      14.913225   18.319141   22.275058 C.3        1 MOL1         0.1053
      30    H14     15.691732   18.770036   22.904630 H          1 MOL1         0.0783
      31    O8      14.154802   17.375711   23.040054 O.3        1 MOL1        -0.5519
      32    H15     13.617763   17.918234   23.659117 H          1 MOL1         0.3769
      33    C10     15.602262   17.603104   21.088871 C.3        1 MOL1         0.1018
      34    H16     14.833263   17.064350   20.519521 H          1 MOL1         0.0783
      35    C11     16.285971   18.630011   20.148191 C.3        1 MOL1         0.1043
      36    H17     17.075076   19.147875   20.703290 H          1 MOL1         0.0783
      37    O9      15.284085   19.584981   19.730594 O.3        1 MOL1        -0.3740
      38    C12     16.937342   18.033691   18.875867 C.3        1 MOL1         0.0138
      39    H18     17.942996   17.680126   19.131879 H          1 MOL1         0.0794
      40    H19     17.063124   18.838836   18.140051 H          1 MOL1         0.0794
      41    O10     16.177847   16.963058   18.304111 O.3        1 MOL1        -0.5486
      42    H20     16.373597   16.157752   18.837473 H          1 MOL1         0.3769
      43    C13     18.405351   24.206604   21.097548 C.3        1 MOL1         0.2972
      44    H21     18.936439   25.147919   20.906398 H          1 MOL1         0.0751
      45    O11     19.316215   23.140505   21.434791 O.3        1 MOL1        -0.3740
      46    C14     17.370561   24.377408   22.235252 C.3        1 MOL1         0.1003
      47    H22     16.640349   25.125886   21.900960 H          1 MOL1         0.0783
      48    O12     17.992301   24.837998   23.445020 O.3        1 MOL1        -0.5519
      49    H23     18.729614   24.209105   23.654247 H          1 MOL1         0.3769
      50    C15     16.612547   23.052179   22.483238 C.3        1 MOL1         0.1053
      51    H24     17.327559   22.336484   22.908244 H          1 MOL1         0.0783
      52    O13     15.558099   23.285756   23.423667 O.3        1 MOL1        -0.5519
      53    H25     15.971995   23.801632   24.150481 H          1 MOL1         0.3769
      54    C16     16.026628   22.445129   21.176900 C.3        1 MOL1         0.1018
      55    H26     15.099801   22.986028   20.946942 H          1 MOL1         0.0783
      56    C17     17.009072   22.529604   19.960595 C.3        1 MOL1         0.1043
      57    H27     17.766757   21.742783   20.072124 H          1 MOL1         0.0783
      58    O14     17.669008   23.819121   19.925068 O.3        1 MOL1        -0.3740
      59    C18     16.347959   22.361954   18.567831 C.3        1 MOL1         0.0138
      60    H28     16.179155   21.299915   18.365858 H          1 MOL1         0.0794
      61    H29     17.058606   22.709894   17.806044 H          1 MOL1         0.0794
      62    O15     15.116901   23.087483   18.454140 O.3        1 MOL1        -0.5486
      63    H30     14.790129   22.975537   17.534906 H          1 MOL1         0.3769
      64    C19     23.370405   22.447525   22.130947 C.3        1 MOL1         0.2972
      65    H31     24.438633   22.557575   22.352729 H          1 MOL1         0.0751
      66    O16     23.050497   21.101035   21.740077 O.3        1 MOL1        -0.3740
      67    C20     22.532775   22.821271   23.381976 C.3        1 MOL1         0.1003
      68    H32     22.768037   23.864975   23.626610 H          1 MOL1         0.0783
      69    O17     22.872168   21.993102   24.503965 O.3        1 MOL1        -0.5519
      70    H33     22.632368   21.055526   24.253760 H          1 MOL1         0.3769
      71    C21     21.017463   22.731236   23.090584 C.3        1 MOL1         0.1053
      72    H34     20.767880   21.678374   22.914839 H          1 MOL1         0.0783
      73    O18     20.290619   23.221657   24.222442 O.3        1 MOL1        -0.5519
      74    H35     20.680729   22.748662   24.991216 H          1 MOL1         0.3769
      75    C22     20.644842   23.544695   21.828023 C.3        1 MOL1         0.1018
      76    H36     20.691026   24.612583   22.080184 H          1 MOL1         0.0783
      77    C23     21.592813   23.242814   20.633995 C.3        1 MOL1         0.1043
      78    H37     21.375927   22.224476   20.292059 H          1 MOL1         0.0783
      79    O19     22.982407   23.322257   21.047652 O.3        1 MOL1        -0.3740
      80    C24     21.388484   24.189153   19.426567 C.3        1 MOL1         0.0138
      81    H38     20.423092   23.953467   18.958419 H          1 MOL1         0.0794
      82    H39     22.169577   23.983668   18.682392 H          1 MOL1         0.0794
      83    O20     21.417445   25.569288   19.812132 O.3        1 MOL1        -0.5486
      84    H40     21.355236   26.108327   18.993616 H          1 MOL1         0.3769
      85    C25     24.967713   17.546617   20.695118 C.3        1 MOL1         0.2972
      86    H41     25.605846   16.782435   20.232822 H          1 MOL1         0.0751
      87    O21     23.966960   16.955452   21.544721 O.3        1 MOL1        -0.3740
      88    C26     25.812656   18.487786   21.588231 C.3        1 MOL1         0.1003
      89    H42     26.592174   18.929106   20.953701 H          1 MOL1         0.0783
      90    O22     26.427342   17.737721   22.648530 O.3        1 MOL1        -0.5519
      91    H43     25.716536   17.168337   23.029354 H          1 MOL1         0.3769
      92    C27     24.962623   19.644508   22.178829 C.3        1 MOL1         0.1053
      93    H44     24.286582   19.222853   22.935329 H          1 MOL1         0.0783
      94    O23     25.856499   20.583002   22.787171 O.3        1 MOL1        -0.5519
      95    H45     26.412322   20.051687   23.397957 H          1 MOL1         0.3769
      96    C28     24.093397   20.343373   21.095336 C.3        1 MOL1         0.1018
      97    H46     24.736450   20.986217   20.480926 H          1 MOL1         0.0783
      98    C29     23.366783   19.318468   20.185367 C.3        1 MOL1         0.1043
      99    H47     22.614945   18.802453   20.791929 H          1 MOL1         0.0783
     100    O24     24.319205   18.352053   19.686542 O.3        1 MOL1        -0.3740
     101    C30     22.615111   19.950575   18.986360 C.3        1 MOL1         0.0138
     102    H48     21.623115   20.268163   19.331843 H          1 MOL1         0.0794
     103    H49     22.452659   19.176369   18.224885 H          1 MOL1         0.0794
     104    O25     23.307815   21.068080   18.415283 O.3        1 MOL1        -0.5486
     105    H50     23.373807   21.757546   19.112375 H          1 MOL1         0.3769
     106    C31     21.506265   13.663995   21.752675 C.3        1 MOL1         0.2972
     107    H51     21.042416   12.669478   21.770799 H          1 MOL1         0.0751
     108    O26     20.523203   14.707439   21.907749 O.3        1 MOL1        -0.3740
     109    C32     22.535853   13.771428   22.900592 C.3        1 MOL1         0.1003
     110    H52     23.296454   12.997221   22.735809 H          1 MOL1         0.0783
     111    O27     21.891990   13.544027   24.163769 O.3        1 MOL1        -0.5519
     112    H53     20.989996   13.940548   24.095577 H          1 MOL1         0.3769
     113    C33     23.244625   15.144902   22.889097 C.3        1 MOL1         0.1053
     114    H54     22.508633   15.899094   23.193219 H          1 MOL1         0.0783
     115    O28     24.325100   15.129701   23.828997 O.3        1 MOL1        -0.5519
     116    H55     23.921635   14.840501   24.676824 H          1 MOL1         0.3769
     117    C34     23.785663   15.525611   21.484901 C.3        1 MOL1         0.1018
     118    H56     24.739994   15.004961   21.332324 H          1 MOL1         0.0783
     119    C35     22.794392   15.189600   20.327575 C.3        1 MOL1         0.1043
     120    H57     22.000119   15.945346   20.344742 H          1 MOL1         0.0783
     121    O29     22.205071   13.876363   20.511990 O.3        1 MOL1        -0.3740
     122    C36     23.423535   15.207023   18.912109 C.3        1 MOL1         0.0138
     123    H58     23.575584   16.246425   18.598534 H          1 MOL1         0.0794
     124    H59     22.706017   14.765799   18.207143 H          1 MOL1         0.0794
     125    O30     24.665223   14.493904   18.862267 O.3        1 MOL1        -0.5486
     126    H60     24.963630   14.479939   17.926766 H          1 MOL1         0.3769
     127    C1      21.348410   18.363661   23.966320 C.2        1 MOL1         0.6021
     128    O1      21.972375   19.407157   23.981999 O.co2      1 MOL1        -0.6904
     129    O2      21.290763   17.600937   24.911125 O.co2      1 MOL1        -0.6904
     130    C2      20.620290   17.948692   22.685642 C.3        1 MOL1        -0.2102
     131    H1      19.893292   17.179094   22.954466 H          1 MOL1         0.0687
     132    H2      21.353571   17.472078   22.032470 H          1 MOL1         0.0687
     133    C3      19.900758   19.081245   21.914889 C.3        1 MOL1        -0.1974
     134    H3      20.622212   19.860856   21.643439 H          1 MOL1         0.0689
     135    H4      19.499848   18.682112   20.975095 H          1 MOL1         0.0689
     136    C4      18.755060   19.694231   22.739475 C.3        1 MOL1        -0.2987
     137    H5      19.129410   20.131033   23.674383 H          1 MOL1         0.0700
     138    H6      18.267408   20.489534   22.168863 H          1 MOL1         0.0700
     139    H7      18.006010   18.935314   22.995232 H          1 MOL1         0.0700
@<TRIPOS>BOND
    1     1     2    1
    2     1     3    1
    3     1     4    1
    4     4     5    1
    5     4     6    1
    6     6     7    1
    7     4     8    1
    8     8     9    1
    9     8    10    1
   10    10    11    1
   11     8    12    1
   12    12    13    1
   13    12    14    1
   14    14    15    1
   15     1    16    1
   16    14    16    1
   17    14    17    1
   18    17    18    1
   19    17    19    1
   20    17    20    1
   21    20    21    1
   22    22    23    1
   23    22    24    1
   24    22    25    1
   25    25    26    1
   26    25    27    1
   27    27    28    1
   28    25    29    1
   29    29    30    1
   30    29    31    1
   31    31    32    1
   32     3    33    1
   33    29    33    1
   34    33    34    1
   35    33    35    1
   36    35    36    1
   37    22    37    1
   38    35    37    1
   39    35    38    1
   40    38    39    1
   41    38    40    1
   42    38    41    1
   43    41    42    1
   44    43    44    1
   45    43    45    1
   46    43    46    1
   47    46    47    1
   48    46    48    1
   49    48    49    1
   50    46    50    1
   51    50    51    1
   52    50    52    1
   53    52    53    1
   54    24    54    1
   55    50    54    1
   56    54    55    1
   57    54    56    1
   58    56    57    1
   59    43    58    1
   60    56    58    1
   61    56    59    1
   62    59    60    1
   63    59    61    1
   64    59    62    1
   65    62    63    1
   66    64    65    1
   67    64    66    1
   68    64    67    1
   69    67    68    1
   70    67    69    1
   71    69    70    1
   72    67    71    1
   73    71    72    1
   74    71    73    1
   75    73    74    1
   76    45    75    1
   77    71    75    1
   78    75    76    1
   79    75    77    1
   80    77    78    1
   81    64    79    1
   82    77    79    1
   83    77    80    1
   84    80    81    1
   85    80    82    1
   86    80    83    1
   87    83    84    1
   88    85    86    1
   89    85    87    1
   90    85    88    1
   91    88    89    1
   92    88    90    1
   93    90    91    1
   94    88    92    1
   95    92    93    1
   96    92    94    1
   97    94    95    1
   98    66    96    1
   99    92    96    1
  100    96    97    1
  101    96    98    1
  102    98    99    1
  103    85   100    1
  104    98   100    1
  105    98   101    1
  106   101   102    1
  107   101   103    1
  108   101   104    1
  109   104   105    1
  110   106   107    1
  111    12   108    1
  112   106   108    1
  113   106   109    1
  114   109   110    1
  115   109   111    1
  116   111   112    1
  117   109   113    1
  118   113   114    1
  119   113   115    1
  120   115   116    1
  121    87   117    1
  122   113   117    1
  123   117   118    1
  124   117   119    1
  125   119   120    1
  126   106   121    1
  127   119   121    1
  128   119   122    1
  129   122   123    1
  130   122   124    1
  131   122   125    1
  132   125   126    1
  133   127   128    1
  134   127   129    2
  135   127   130    1
  136   130   131    1
  137   130   132    1
  138   130   133    1
  139   133   134    1
  140   133   135    1
  141   133   136    1
  142   136   137    1
  143   136   138    1
  144   136   139    1
@<TRIPOS>SUBSTRUCTURE
       1 MOL1            1 RESIDUE      1      MOL     
       2 MOL1          139 RESIDUE      1      MOL     
@<SCITEGIC>MOL_PROPERTY
feprocess Rank
SciTegic.value.IntegerValue
59

@<SCITEGIC>MOL_PROPERTY
Conf_Id
SciTegic.value.IntegerValue
487

@<SCITEGIC>MOL_PROPERTY
Probability
SciTegic.value.DoubleValue
0.00

@<SCITEGIC>MOL_PROPERTY
G
SciTegic.value.DoubleValue
489.914

@<SCITEGIC>MOL_PROPERTY
E
SciTegic.value.DoubleValue
314.407

@<SCITEGIC>MOL_PROPERTY
-TS
SciTegic.value.DoubleValue
175.507

@<SCITEGIC>MOL_PROPERTY
U+W
SciTegic.value.DoubleValue
191.896

@<SCITEGIC>MOL_PROPERTY
U
SciTegic.value.DoubleValue
274.410

@<SCITEGIC>MOL_PROPERTY
W
SciTegic.value.DoubleValue
-82.514

@<SCITEGIC>MOL_PROPERTY
W(PB)
SciTegic.value.DoubleValue
-88.489

@<SCITEGIC>MOL_PROPERTY
W(SA)
SciTegic.value.DoubleValue
5.975

@<SCITEGIC>MOL_PROPERTY
Valence
SciTegic.value.DoubleValue
150.280

@<SCITEGIC>MOL_PROPERTY
Coulomb
SciTegic.value.DoubleValue
148.776

@<SCITEGIC>MOL_PROPERTY
VdW
SciTegic.value.DoubleValue
-24.646

@<SCITEGIC>MOL_PROPERTY
VdW6
SciTegic.value.DoubleValue
-174.208

@<SCITEGIC>MOL_PROPERTY
VdW12
SciTegic.value.DoubleValue
149.562

@<SCITEGIC>MOL_PROPERTY
Bond
SciTegic.value.DoubleValue
4.861

@<SCITEGIC>MOL_PROPERTY
Angle
SciTegic.value.DoubleValue
14.385

@<SCITEGIC>MOL_PROPERTY
Pdih
SciTegic.value.DoubleValue
131.033

@<SCITEGIC>MOL_PROPERTY
Idih
SciTegic.value.DoubleValue
0.002

@<SCITEGIC>MOL_PROPERTY
Tether
SciTegic.value.DoubleValue
0.000

@<TRIPOS>MOLECULE
CD_guest-6_fast_vm2_rndm.mol2 : feprocess host+ligand conformer 60
         139         144           2
SMALL
USER_CHARGES
 
@<TRIPOS>ATOM
       1    C1      16.188075   15.181993   21.049311 C.3        1 MOL1         0.2972
       2    H1      15.138380   14.983686   20.797994 H          1 MOL1         0.0751
       3    O1      16.425636   16.584597   21.270243 O.3        1 MOL1        -0.3740
       4    C2      16.563112   14.444114   22.358910 C.3        1 MOL1         0.1003
       5    H2      16.401179   13.370989   22.194003 H          1 MOL1         0.0783
       6    O2      15.727634   14.890792   23.438846 O.3        1 MOL1        -0.5519
       7    H3      15.528043   15.844581   23.268066 H          1 MOL1         0.3769
       8    C3      18.056767   14.656353   22.705610 C.3        1 MOL1         0.1053
       9    H4      18.206610   15.715700   22.957348 H          1 MOL1         0.0783
      10    O3      18.409306   13.837631   23.825604 O.3        1 MOL1        -0.5519
      11    H5      17.686115   13.974918   24.477563 H          1 MOL1         0.3769
      12    C4      18.955269   14.311578   21.493687 C.3        1 MOL1         0.1018
      13    H6      18.937486   13.224518   21.340781 H          1 MOL1         0.0783
      14    C5      18.473057   15.019206   20.196803 C.3        1 MOL1         0.1043
      15    H7      18.598469   16.100020   20.328042 H          1 MOL1         0.0783
      16    O4      17.065984   14.730365   19.992160 O.3        1 MOL1        -0.3740
      17    C6      19.261717   14.635085   18.918038 C.3        1 MOL1         0.0138
      18    H8      20.121730   15.310930   18.826650 H          1 MOL1         0.0794
      19    H9      18.621509   14.813956   18.043948 H          1 MOL1         0.0794
      20    O5      19.722262   13.279026   18.921595 O.3        1 MOL1        -0.5486
      21    H10     20.528694   13.253465   19.486917 H          1 MOL1         0.3769
      22    C7      14.955984   20.378949   20.316177 C.3        1 MOL1         0.2972
      23    H11     14.364269   21.217906   19.928234 H          1 MOL1         0.0751
      24    O6      16.230374   20.828572   20.819755 O.3        1 MOL1        -0.3740
      25    C8      14.177901   19.601696   21.417014 C.3        1 MOL1         0.1003
      26    H12     13.267222   19.211981   20.943904 H          1 MOL1         0.0783
      27    O7      13.794755   20.445273   22.512934 O.3        1 MOL1        -0.5519
      28    H13     14.632563   20.734958   22.955436 H          1 MOL1         0.3769
      29    C9      14.998879   18.388073   21.921118 C.3        1 MOL1         0.1053
      30    H14     15.896421   18.762906   22.434325 H          1 MOL1         0.0783
      31    O8      14.205259   17.612287   22.826735 O.3        1 MOL1        -0.5519
      32    H15     13.805039   18.265037   23.442710 H          1 MOL1         0.3769
      33    C10     15.452823   17.500720   20.736542 C.3        1 MOL1         0.1018
      34    H16     14.573203   16.982183   20.333278 H          1 MOL1         0.0783
      35    C11     16.121115   18.342631   19.614760 C.3        1 MOL1         0.1043
      36    H17     17.057853   18.749079   20.013034 H          1 MOL1         0.0783
      37    O9      15.236991   19.436546   19.255616 O.3        1 MOL1        -0.3740
      38    C12     16.488400   17.558301   18.329495 C.3        1 MOL1         0.0138
      39    H18     17.492385   17.134718   18.457633 H          1 MOL1         0.0794
      40    H19     16.547994   18.267790   17.493474 H          1 MOL1         0.0794
      41    O10     15.563130   16.510145   18.020541 O.3        1 MOL1        -0.5486
      42    H20     15.840098   15.727157   18.549385 H          1 MOL1         0.3769
      43    C13     18.468696   23.939404   22.300385 C.3        1 MOL1         0.2972
      44    H21     18.887463   24.862487   22.720917 H          1 MOL1         0.0751
      45    O11     19.501511   23.058435   21.817907 O.3        1 MOL1        -0.3740
      46    C14     17.633641   23.194157   23.371593 C.3        1 MOL1         0.1003
      47    H22     16.777019   23.832188   23.622977 H          1 MOL1         0.0783
      48    O12     18.407610   22.968964   24.559317 O.3        1 MOL1        -0.5519
      49    H23     19.045909   22.230773   24.355708 H          1 MOL1         0.3769
      50    C15     17.090011   21.869979   22.784123 C.3        1 MOL1         0.1053
      51    H24     17.948839   21.243306   22.523678 H          1 MOL1         0.0783
      52    O13     16.284623   21.177199   23.743829 O.3        1 MOL1        -0.5519
      53    H25     16.933101   20.590604   24.221460 H          1 MOL1         0.3769
      54    C16     16.297424   22.111478   21.476173 C.3        1 MOL1         0.1018
      55    H26     15.304661   22.509870   21.722333 H          1 MOL1         0.0783
      56    C17     17.041052   23.069927   20.499062 C.3        1 MOL1         0.1043
      57    H27     17.868552   22.503048   20.056918 H          1 MOL1         0.0783
      58    O14     17.586389   24.226321   21.191863 O.3        1 MOL1        -0.3740
      59    C18     16.157647   23.566152   19.330136 C.3        1 MOL1         0.0138
      60    H28     15.963523   22.720023   18.657210 H          1 MOL1         0.0794
      61    H29     16.721077   24.315182   18.757584 H          1 MOL1         0.0794
      62    O15     14.916932   24.117635   19.787901 O.3        1 MOL1        -0.5486
      63    H30     14.445243   24.480325   19.006452 H          1 MOL1         0.3769
      64    C19     23.599666   22.835138   21.234027 C.3        1 MOL1         0.2972
      65    H31     24.648132   23.029982   20.975135 H          1 MOL1         0.0751
      66    O16     23.408587   21.468126   21.655765 O.3        1 MOL1        -0.3740
      67    C20     23.177752   23.754880   22.405189 C.3        1 MOL1         0.1003
      68    H32     23.338171   24.791127   22.080356 H          1 MOL1         0.0783
      69    O17     23.994988   23.487292   23.555975 O.3        1 MOL1        -0.5519
      70    H33     24.142432   22.510697   23.570532 H          1 MOL1         0.3769
      71    C21     21.676424   23.595675   22.756210 C.3        1 MOL1         0.1053
      72    H34     21.539147   22.615827   23.232871 H          1 MOL1         0.0783
      73    O18     21.312348   24.642052   23.662789 O.3        1 MOL1        -0.5519
      74    H35     21.939254   24.562625   24.413968 H          1 MOL1         0.3769
      75    C22     20.774117   23.647903   21.493550 C.3        1 MOL1         0.1018
      76    H36     20.669506   24.690885   21.168422 H          1 MOL1         0.0783
      77    C23     21.340292   22.794516   20.328111 C.3        1 MOL1         0.1043
      78    H37     21.257743   21.743512   20.624478 H          1 MOL1         0.0783
      79    O19     22.736374   23.111866   20.110287 O.3        1 MOL1        -0.3740
      80    C24     20.568233   22.944328   18.990967 C.3        1 MOL1         0.0138
      81    H38     19.755211   22.207257   18.979730 H          1 MOL1         0.0794
      82    H39     21.241262   22.685090   18.163054 H          1 MOL1         0.0794
      83    O20     20.029581   24.257607   18.792527 O.3        1 MOL1        -0.5486
      84    H40     19.354036   24.404596   19.492041 H          1 MOL1         0.3769
      85    C25     24.946423   17.618852   20.996696 C.3        1 MOL1         0.2972
      86    H41     25.579630   16.777196   20.687587 H          1 MOL1         0.0751
      87    O21     23.673367   17.171042   21.500785 O.3        1 MOL1        -0.3740
      88    C26     25.635943   18.450457   22.110031 C.3        1 MOL1         0.1003
      89    H42     26.595013   18.801557   21.707655 H          1 MOL1         0.0783
      90    O22     25.881321   17.646949   23.275805 O.3        1 MOL1        -0.5519
      91    H43     25.044312   17.156442   23.478530 H          1 MOL1         0.3769
      92    C27     24.791739   19.697064   22.480936 C.3        1 MOL1         0.1053
      93    H44     23.868932   19.353836   22.969184 H          1 MOL1         0.0783
      94    O23     25.538128   20.524989   23.380022 O.3        1 MOL1        -0.5519
      95    H45     25.895114   19.910082   24.058561 H          1 MOL1         0.3769
      96    C28     24.397025   20.510238   21.221765 C.3        1 MOL1         0.1018
      97    H46     25.298644   21.000168   20.831425 H          1 MOL1         0.0783
      98    C29     23.787675   19.588927   20.126227 C.3        1 MOL1         0.1043
      99    H47     22.843821   19.185129   20.508137 H          1 MOL1         0.0783
     100    O24     24.700587   18.493773   19.875461 O.3        1 MOL1        -0.3740
     101    C30     23.477113   20.268329   18.769002 C.3        1 MOL1         0.0138
     102    H48     22.468097   20.694447   18.815260 H          1 MOL1         0.0794
     103    H49     23.456052   19.494550   17.990065 H          1 MOL1         0.0794
     104    O25     24.417437   21.289352   18.419060 O.3        1 MOL1        -0.5486
     105    H50     24.090307   22.121619   18.830713 H          1 MOL1         0.3769
     106    C31     21.311576   13.804733   21.919264 C.3        1 MOL1         0.2972
     107    H51     20.900101   12.792676   22.023692 H          1 MOL1         0.0751
     108    O26     20.273692   14.795054   21.804182 O.3        1 MOL1        -0.3740
     109    C32     22.170499   14.155276   23.158076 C.3        1 MOL1         0.1003
     110    H52     23.000607   13.438205   23.200836 H          1 MOL1         0.0783
     111    O27     21.390965   14.051300   24.360329 O.3        1 MOL1        -0.5519
     112    H53     20.447075   14.210308   24.107860 H          1 MOL1         0.3769
     113    C33     22.769499   15.573817   23.022192 C.3        1 MOL1         0.1053
     114    H54     21.944359   16.295259   23.054204 H          1 MOL1         0.0783
     115    O28     23.669568   15.818595   24.108242 O.3        1 MOL1        -0.5519
     116    H55     23.185205   15.516844   24.909030 H          1 MOL1         0.3769
     117    C34     23.509136   15.750610   21.674858 C.3        1 MOL1         0.1018
     118    H56     24.473245   15.228837   21.738719 H          1 MOL1         0.0783
     119    C35     22.688325   15.218464   20.463641 C.3        1 MOL1         0.1043
     120    H57     21.859331   15.916268   20.289189 H          1 MOL1         0.0783
     121    O29     22.147961   13.900127   20.747381 O.3        1 MOL1        -0.3740
     122    C36     23.502250   15.136819   19.150171 C.3        1 MOL1         0.0138
     123    H58     23.690812   16.157763   18.791900 H          1 MOL1         0.0794
     124    H59     22.890736   14.632999   18.389615 H          1 MOL1         0.0794
     125    O30     24.745441   14.446266   19.327695 O.3        1 MOL1        -0.5486
     126    H60     25.172892   14.371501   18.446742 H          1 MOL1         0.3769
     127    C1      19.539287   19.693747   23.897468 C.2        1 MOL1         0.6021
     128    O1      20.060284   20.776512   24.076975 O.co2      1 MOL1        -0.6904
     129    O2      18.428446   19.412722   24.308388 O.co2      1 MOL1        -0.6904
     130    C2      20.318529   18.644121   23.109920 C.3        1 MOL1        -0.2102
     131    H1      20.393995   17.765383   23.759497 H          1 MOL1         0.0687
     132    H2      21.339208   19.010555   22.946374 H          1 MOL1         0.0687
     133    C3      19.678216   18.227143   21.760813 C.3        1 MOL1        -0.1974
     134    H3      20.214677   17.350753   21.381687 H          1 MOL1         0.0689
     135    H4      18.638165   17.922952   21.934428 H          1 MOL1         0.0689
     136    C4      19.726044   19.327993   20.683409 C.3        1 MOL1        -0.2987
     137    H5      20.756566   19.633360   20.492440 H          1 MOL1         0.0700
     138    H6      19.305395   18.966222   19.737713 H          1 MOL1         0.0700
     139    H7      19.159099   20.212409   20.995496 H          1 MOL1         0.0700
@<TRIPOS>BOND
    1     1     2    1
    2     1     3    1
    3     1     4    1
    4     4     5    1
    5     4     6    1
    6     6     7    1
    7     4     8    1
    8     8     9    1
    9     8    10    1
   10    10    11    1
   11     8    12    1
   12    12    13    1
   13    12    14    1
   14    14    15    1
   15     1    16    1
   16    14    16    1
   17    14    17    1
   18    17    18    1
   19    17    19    1
   20    17    20    1
   21    20    21    1
   22    22    23    1
   23    22    24    1
   24    22    25    1
   25    25    26    1
   26    25    27    1
   27    27    28    1
   28    25    29    1
   29    29    30    1
   30    29    31    1
   31    31    32    1
   32     3    33    1
   33    29    33    1
   34    33    34    1
   35    33    35    1
   36    35    36    1
   37    22    37    1
   38    35    37    1
   39    35    38    1
   40    38    39    1
   41    38    40    1
   42    38    41    1
   43    41    42    1
   44    43    44    1
   45    43    45    1
   46    43    46    1
   47    46    47    1
   48    46    48    1
   49    48    49    1
   50    46    50    1
   51    50    51    1
   52    50    52    1
   53    52    53    1
   54    24    54    1
   55    50    54    1
   56    54    55    1
   57    54    56    1
   58    56    57    1
   59    43    58    1
   60    56    58    1
   61    56    59    1
   62    59    60    1
   63    59    61    1
   64    59    62    1
   65    62    63    1
   66    64    65    1
   67    64    66    1
   68    64    67    1
   69    67    68    1
   70    67    69    1
   71    69    70    1
   72    67    71    1
   73    71    72    1
   74    71    73    1
   75    73    74    1
   76    45    75    1
   77    71    75    1
   78    75    76    1
   79    75    77    1
   80    77    78    1
   81    64    79    1
   82    77    79    1
   83    77    80    1
   84    80    81    1
   85    80    82    1
   86    80    83    1
   87    83    84    1
   88    85    86    1
   89    85    87    1
   90    85    88    1
   91    88    89    1
   92    88    90    1
   93    90    91    1
   94    88    92    1
   95    92    93    1
   96    92    94    1
   97    94    95    1
   98    66    96    1
   99    92    96    1
  100    96    97    1
  101    96    98    1
  102    98    99    1
  103    85   100    1
  104    98   100    1
  105    98   101    1
  106   101   102    1
  107   101   103    1
  108   101   104    1
  109   104   105    1
  110   106   107    1
  111    12   108    1
  112   106   108    1
  113   106   109    1
  114   109   110    1
  115   109   111    1
  116   111   112    1
  117   109   113    1
  118   113   114    1
  119   113   115    1
  120   115   116    1
  121    87   117    1
  122   113   117    1
  123   117   118    1
  124   117   119    1
  125   119   120    1
  126   106   121    1
  127   119   121    1
  128   119   122    1
  129   122   123    1
  130   122   124    1
  131   122   125    1
  132   125   126    1
  133   127   128    1
  134   127   129    2
  135   127   130    1
  136   130   131    1
  137   130   132    1
  138   130   133    1
  139   133   134    1
  140   133   135    1
  141   133   136    1
  142   136   137    1
  143   136   138    1
  144   136   139    1
@<TRIPOS>SUBSTRUCTURE
       1 MOL1            1 RESIDUE      1      MOL     
       2 MOL1          139 RESIDUE      1      MOL     
@<SCITEGIC>MOL_PROPERTY
feprocess Rank
SciTegic.value.IntegerValue
60

@<SCITEGIC>MOL_PROPERTY
Conf_Id
SciTegic.value.IntegerValue
496

@<SCITEGIC>MOL_PROPERTY
Probability
SciTegic.value.DoubleValue
0.00

@<SCITEGIC>MOL_PROPERTY
G
SciTegic.value.DoubleValue
489.931

@<SCITEGIC>MOL_PROPERTY
E
SciTegic.value.DoubleValue
314.074

@<SCITEGIC>MOL_PROPERTY
-TS
SciTegic.value.DoubleValue
175.857

@<SCITEGIC>MOL_PROPERTY
U+W
SciTegic.value.DoubleValue
191.563

@<SCITEGIC>MOL_PROPERTY
U
SciTegic.value.DoubleValue
266.278

@<SCITEGIC>MOL_PROPERTY
W
SciTegic.value.DoubleValue
-74.716

@<SCITEGIC>MOL_PROPERTY
W(PB)
SciTegic.value.DoubleValue
-80.635

@<SCITEGIC>MOL_PROPERTY
W(SA)
SciTegic.value.DoubleValue
5.920

@<SCITEGIC>MOL_PROPERTY
Valence
SciTegic.value.DoubleValue
154.767

@<SCITEGIC>MOL_PROPERTY
Coulomb
SciTegic.value.DoubleValue
134.289

@<SCITEGIC>MOL_PROPERTY
VdW
SciTegic.value.DoubleValue
-22.778

@<SCITEGIC>MOL_PROPERTY
VdW6
SciTegic.value.DoubleValue
-176.526

@<SCITEGIC>MOL_PROPERTY
VdW12
SciTegic.value.DoubleValue
153.748

@<SCITEGIC>MOL_PROPERTY
Bond
SciTegic.value.DoubleValue
5.012

@<SCITEGIC>MOL_PROPERTY
Angle
SciTegic.value.DoubleValue
14.814

@<SCITEGIC>MOL_PROPERTY
Pdih
SciTegic.value.DoubleValue
134.940

@<SCITEGIC>MOL_PROPERTY
Idih
SciTegic.value.DoubleValue
0.000

@<SCITEGIC>MOL_PROPERTY
Tether
SciTegic.value.DoubleValue
0.000

@<TRIPOS>MOLECULE
CD_guest-6_fast_vm2_rndm.mol2 : feprocess host+ligand conformer 61
         139         144           2
SMALL
USER_CHARGES
 
@<TRIPOS>ATOM
       1    C1      16.437619   15.462162   20.221065 C.3        1 MOL1         0.2972
       2    H1      15.498979   15.344136   19.664565 H          1 MOL1         0.0751
       3    O1      16.469378   16.699512   20.953992 O.3        1 MOL1        -0.3740
       4    C2      16.618531   14.309492   21.240262 C.3        1 MOL1         0.1003
       5    H2      16.587405   13.369960   20.673565 H          1 MOL1         0.0783
       6    O2      15.550929   14.315349   22.202302 O.3        1 MOL1        -0.5519
       7    H3      15.466586   15.246471   22.532467 H          1 MOL1         0.3769
       8    C3      17.991561   14.383195   21.959786 C.3        1 MOL1         0.1053
       9    H4      17.972366   15.233576   22.654199 H          1 MOL1         0.0783
      10    O3      18.185136   13.161876   22.681704 O.3        1 MOL1        -0.5519
      11    H5      17.391103   13.072124   23.252217 H          1 MOL1         0.3769
      12    C4      19.162292   14.604800   20.963194 C.3        1 MOL1         0.1018
      13    H6      19.356308   13.662505   20.434743 H          1 MOL1         0.0783
      14    C5      18.844848   15.712979   19.922369 C.3        1 MOL1         0.1043
      15    H7      18.802484   16.675401   20.446576 H          1 MOL1         0.0783
      16    O4      17.561014   15.439758   19.316162 O.3        1 MOL1        -0.3740
      17    C6      19.893956   15.858579   18.790560 C.3        1 MOL1         0.0138
      18    H8      20.663356   16.566502   19.121058 H          1 MOL1         0.0794
      19    H9      19.406708   16.313592   17.917991 H          1 MOL1         0.0794
      20    O5      20.501278   14.613484   18.420065 O.3        1 MOL1        -0.5486
      21    H10     20.980606   14.272770   19.209336 H          1 MOL1         0.3769
      22    C7      14.553819   20.346076   21.293061 C.3        1 MOL1         0.2972
      23    H11     13.851306   21.189144   21.285953 H          1 MOL1         0.0751
      24    O6      15.890762   20.763969   21.625814 O.3        1 MOL1        -0.3740
      25    C8      14.125916   19.292370   22.344103 C.3        1 MOL1         0.1003
      26    H12     13.124415   18.938238   22.067675 H          1 MOL1         0.0783
      27    O7      14.075085   19.882518   23.653839 O.3        1 MOL1        -0.5519
      28    H13     14.869477   20.466836   23.741896 H          1 MOL1         0.3769
      29    C9      15.083359   18.073568   22.328603 C.3        1 MOL1         0.1053
      30    H14     16.060128   18.397384   22.714521 H          1 MOL1         0.0783
      31    O8      14.548855   17.036334   23.160092 O.3        1 MOL1        -0.5519
      32    H15     14.491554   17.431655   24.056926 H          1 MOL1         0.3769
      33    C10     15.290105   17.522000   20.895830 C.3        1 MOL1         0.1018
      34    H16     14.399129   16.942717   20.620015 H          1 MOL1         0.0783
      35    C11     15.548379   18.638847   19.845365 C.3        1 MOL1         0.1043
      36    H17     16.555848   19.041463   20.013252 H          1 MOL1         0.0783
      37    O9      14.578847   19.702754   20.002602 O.3        1 MOL1        -0.3740
      38    C12     15.488463   18.144864   18.379643 C.3        1 MOL1         0.0138
      39    H18     16.381679   17.539074   18.177954 H          1 MOL1         0.0794
      40    H19     15.532482   19.017810   17.714833 H          1 MOL1         0.0794
      41    O10     14.308321   17.375909   18.113455 O.3        1 MOL1        -0.5486
      42    H20     14.309559   17.150377   17.157750 H          1 MOL1         0.3769
      43    C13     18.422305   23.995608   21.921552 C.3        1 MOL1         0.2972
      44    H21     18.900060   24.980999   21.999242 H          1 MOL1         0.0751
      45    O11     19.396771   22.944872   21.778302 O.3        1 MOL1        -0.3740
      46    C14     17.590139   23.715140   23.194836 C.3        1 MOL1         0.1003
      47    H22     16.806749   24.481574   23.257874 H          1 MOL1         0.0783
      48    O12     18.423350   23.786257   24.363001 O.3        1 MOL1        -0.5519
      49    H23     19.357180   23.702982   24.050009 H          1 MOL1         0.3769
      50    C15     16.906556   22.333127   23.099161 C.3        1 MOL1         0.1053
      51    H24     17.694220   21.571561   23.111775 H          1 MOL1         0.0783
      52    O13     16.037070   22.145682   24.220565 O.3        1 MOL1        -0.5519
      53    H25     16.566888   22.426865   24.999580 H          1 MOL1         0.3769
      54    C16     16.110529   22.178386   21.780783 C.3        1 MOL1         0.1018
      55    H26     15.171636   22.739894   21.872740 H          1 MOL1         0.0783
      56    C17     16.903650   22.659782   20.533115 C.3        1 MOL1         0.1043
      57    H27     17.675640   21.908919   20.328003 H          1 MOL1         0.0783
      58    O14     17.540199   23.941113   20.781469 O.3        1 MOL1        -0.3740
      59    C18     16.034833   22.789659   19.259415 C.3        1 MOL1         0.0138
      60    H28     15.750496   21.783449   18.925102 H          1 MOL1         0.0794
      61    H29     16.644139   23.236187   18.462130 H          1 MOL1         0.0794
      62    O15     14.859300   23.576798   19.488109 O.3        1 MOL1        -0.5486
      63    H30     14.378178   23.647800   18.635051 H          1 MOL1         0.3769
      64    C19     23.464256   22.544498   20.824938 C.3        1 MOL1         0.2972
      65    H31     24.465625   22.742283   20.421336 H          1 MOL1         0.0751
      66    O16     23.365283   21.220487   21.382401 O.3        1 MOL1        -0.3740
      67    C20     23.126545   23.544751   21.962610 C.3        1 MOL1         0.1003
      68    H32     23.202774   24.556842   21.544496 H          1 MOL1         0.0783
      69    O17     24.056016   23.411248   23.050755 O.3        1 MOL1        -0.5519
      70    H33     24.201549   22.441943   23.194793 H          1 MOL1         0.3769
      71    C21     21.674231   23.343818   22.466223 C.3        1 MOL1         0.1053
      72    H34     21.610657   22.362093   22.956333 H          1 MOL1         0.0783
      73    O18     21.341169   24.376161   23.400573 O.3        1 MOL1        -0.5519
      74    H35     22.119951   24.440519   23.997508 H          1 MOL1         0.3769
      75    C22     20.680882   23.355987   21.279228 C.3        1 MOL1         0.1018
      76    H36     20.648542   24.366919   20.851399 H          1 MOL1         0.0783
      77    C23     21.113453   22.358235   20.173881 C.3        1 MOL1         0.1043
      78    H37     21.079679   21.343404   20.587765 H          1 MOL1         0.0783
      79    O19     22.470154   22.675674   19.783635 O.3        1 MOL1        -0.3740
      80    C24     20.218642   22.363874   18.907747 C.3        1 MOL1         0.0138
      81    H38     19.408220   21.639255   19.053983 H          1 MOL1         0.0794
      82    H39     20.813286   22.003011   18.058049 H          1 MOL1         0.0794
      83    O20     19.667134   23.653103   18.609742 O.3        1 MOL1        -0.5486
      84    H40     19.005434   23.858602   19.310825 H          1 MOL1         0.3769
      85    C25     25.255050   17.544641   21.416549 C.3        1 MOL1         0.2972
      86    H41     25.939949   16.690453   21.350256 H          1 MOL1         0.0751
      87    O21     23.889430   17.127949   21.608830 O.3        1 MOL1        -0.3740
      88    C26     25.655344   18.492330   22.576012 C.3        1 MOL1         0.1003
      89    H42     26.646393   18.899431   22.336497 H          1 MOL1         0.0783
      90    O22     25.732511   17.794828   23.827721 O.3        1 MOL1        -0.5519
      91    H43     24.887216   17.289899   23.939307 H          1 MOL1         0.3769
      92    C27     24.664929   19.678686   22.662699 C.3        1 MOL1         0.1053
      93    H44     23.675978   19.286141   22.938174 H          1 MOL1         0.0783
      94    O23     25.112048   20.607225   23.657080 O.3        1 MOL1        -0.5519
      95    H45     25.359791   20.052763   24.430266 H          1 MOL1         0.3769
      96    C28     24.544268   20.398619   21.296648 C.3        1 MOL1         0.1018
      97    H46     25.451964   20.998712   21.150027 H          1 MOL1         0.0783
      98    C29     24.360350   19.414561   20.103915 C.3        1 MOL1         0.1043
      99    H47     23.339936   19.011549   20.147031 H          1 MOL1         0.0783
     100    O24     25.308213   18.319771   20.201326 O.3        1 MOL1        -0.3740
     101    C30     24.534158   20.078331   18.716591 C.3        1 MOL1         0.0138
     102    H48     23.662987   20.717429   18.522509 H          1 MOL1         0.0794
     103    H49     24.534963   19.291486   17.950512 H          1 MOL1         0.0794
     104    O25     25.736386   20.854746   18.633734 O.3        1 MOL1        -0.5486
     105    H50     25.805147   21.198885   17.716578 H          1 MOL1         0.3769
     106    C31     21.248719   14.011015   22.089108 C.3        1 MOL1         0.2972
     107    H51     20.737318   13.052894   22.246491 H          1 MOL1         0.0751
     108    O26     20.317426   15.041888   21.708700 O.3        1 MOL1        -0.3740
     109    C32     21.989119   14.427592   23.384512 C.3        1 MOL1         0.1003
     110    H52     22.746614   13.657951   23.580615 H          1 MOL1         0.0783
     111    O27     21.095966   14.489232   24.505987 O.3        1 MOL1        -0.5519
     112    H53     20.555469   15.321433   24.399518 H          1 MOL1         0.3769
     113    C33     22.720264   15.775230   23.192133 C.3        1 MOL1         0.1053
     114    H54     21.966220   16.556924   23.038202 H          1 MOL1         0.0783
     115    O28     23.484028   16.069260   24.365262 O.3        1 MOL1        -0.5519
     116    H55     22.837788   16.001996   25.104130 H          1 MOL1         0.3769
     117    C34     23.640133   15.749912   21.947209 C.3        1 MOL1         0.1018
     118    H56     24.559697   15.204800   22.195132 H          1 MOL1         0.0783
     119    C35     22.949398   15.120529   20.704272 C.3        1 MOL1         0.1043
     120    H57     22.228117   15.858945   20.339744 H          1 MOL1         0.0783
     121    O29     22.237801   13.899338   21.040964 O.3        1 MOL1        -0.3740
     122    C36     23.922105   14.819974   19.537838 C.3        1 MOL1         0.0138
     123    H58     24.323090   15.769388   19.157327 H          1 MOL1         0.0794
     124    H59     23.352149   14.360900   18.719252 H          1 MOL1         0.0794
     125    O30     24.995430   13.953690   19.928002 O.3        1 MOL1        -0.5486
     126    H60     25.615927   14.465993   20.486093 H          1 MOL1         0.3769
     127    C1      19.030119   17.663000   24.047287 C.2        1 MOL1         0.6021
     128    O1      17.887636   17.256281   24.119106 O.co2      1 MOL1        -0.6904
     129    O2      19.993052   17.032412   24.438175 O.co2      1 MOL1        -0.6904
     130    C2      19.250057   19.089259   23.547015 C.3        1 MOL1        -0.2102
     131    H1      20.192425   19.468061   23.960369 H          1 MOL1         0.0687
     132    H2      18.448658   19.695915   23.981269 H          1 MOL1         0.0687
     133    C3      19.237996   19.242169   22.003219 C.3        1 MOL1        -0.1974
     134    H3      18.366213   18.717146   21.592094 H          1 MOL1         0.0689
     135    H4      19.114873   20.300884   21.748547 H          1 MOL1         0.0689
     136    C4      20.533063   18.722080   21.347024 C.3        1 MOL1        -0.2987
     137    H5      20.665095   17.653257   21.544753 H          1 MOL1         0.0700
     138    H6      20.508068   18.870494   20.260609 H          1 MOL1         0.0700
     139    H7      21.409780   19.246373   21.746896 H          1 MOL1         0.0700
@<TRIPOS>BOND
    1     1     2    1
    2     1     3    1
    3     1     4    1
    4     4     5    1
    5     4     6    1
    6     6     7    1
    7     4     8    1
    8     8     9    1
    9     8    10    1
   10    10    11    1
   11     8    12    1
   12    12    13    1
   13    12    14    1
   14    14    15    1
   15     1    16    1
   16    14    16    1
   17    14    17    1
   18    17    18    1
   19    17    19    1
   20    17    20    1
   21    20    21    1
   22    22    23    1
   23    22    24    1
   24    22    25    1
   25    25    26    1
   26    25    27    1
   27    27    28    1
   28    25    29    1
   29    29    30    1
   30    29    31    1
   31    31    32    1
   32     3    33    1
   33    29    33    1
   34    33    34    1
   35    33    35    1
   36    35    36    1
   37    22    37    1
   38    35    37    1
   39    35    38    1
   40    38    39    1
   41    38    40    1
   42    38    41    1
   43    41    42    1
   44    43    44    1
   45    43    45    1
   46    43    46    1
   47    46    47    1
   48    46    48    1
   49    48    49    1
   50    46    50    1
   51    50    51    1
   52    50    52    1
   53    52    53    1
   54    24    54    1
   55    50    54    1
   56    54    55    1
   57    54    56    1
   58    56    57    1
   59    43    58    1
   60    56    58    1
   61    56    59    1
   62    59    60    1
   63    59    61    1
   64    59    62    1
   65    62    63    1
   66    64    65    1
   67    64    66    1
   68    64    67    1
   69    67    68    1
   70    67    69    1
   71    69    70    1
   72    67    71    1
   73    71    72    1
   74    71    73    1
   75    73    74    1
   76    45    75    1
   77    71    75    1
   78    75    76    1
   79    75    77    1
   80    77    78    1
   81    64    79    1
   82    77    79    1
   83    77    80    1
   84    80    81    1
   85    80    82    1
   86    80    83    1
   87    83    84    1
   88    85    86    1
   89    85    87    1
   90    85    88    1
   91    88    89    1
   92    88    90    1
   93    90    91    1
   94    88    92    1
   95    92    93    1
   96    92    94    1
   97    94    95    1
   98    66    96    1
   99    92    96    1
  100    96    97    1
  101    96    98    1
  102    98    99    1
  103    85   100    1
  104    98   100    1
  105    98   101    1
  106   101   102    1
  107   101   103    1
  108   101   104    1
  109   104   105    1
  110   106   107    1
  111    12   108    1
  112   106   108    1
  113   106   109    1
  114   109   110    1
  115   109   111    1
  116   111   112    1
  117   109   113    1
  118   113   114    1
  119   113   115    1
  120   115   116    1
  121    87   117    1
  122   113   117    1
  123   117   118    1
  124   117   119    1
  125   119   120    1
  126   106   121    1
  127   119   121    1
  128   119   122    1
  129   122   123    1
  130   122   124    1
  131   122   125    1
  132   125   126    1
  133   127   128    1
  134   127   129    2
  135   127   130    1
  136   130   131    1
  137   130   132    1
  138   130   133    1
  139   133   134    1
  140   133   135    1
  141   133   136    1
  142   136   137    1
  143   136   138    1
  144   136   139    1
@<TRIPOS>SUBSTRUCTURE
       1 MOL1            1 RESIDUE      1      MOL     
       2 MOL1          139 RESIDUE      1      MOL     
@<SCITEGIC>MOL_PROPERTY
feprocess Rank
SciTegic.value.IntegerValue
61

@<SCITEGIC>MOL_PROPERTY
Conf_Id
SciTegic.value.IntegerValue
779

@<SCITEGIC>MOL_PROPERTY
Probability
SciTegic.value.DoubleValue
0.00

@<SCITEGIC>MOL_PROPERTY
G
SciTegic.value.DoubleValue
489.955

@<SCITEGIC>MOL_PROPERTY
E
SciTegic.value.DoubleValue
315.516

@<SCITEGIC>MOL_PROPERTY
-TS
SciTegic.value.DoubleValue
174.439

@<SCITEGIC>MOL_PROPERTY
U+W
SciTegic.value.DoubleValue
193.005

@<SCITEGIC>MOL_PROPERTY
U
SciTegic.value.DoubleValue
273.191

@<SCITEGIC>MOL_PROPERTY
W
SciTegic.value.DoubleValue
-80.186

@<SCITEGIC>MOL_PROPERTY
W(PB)
SciTegic.value.DoubleValue
-86.160

@<SCITEGIC>MOL_PROPERTY
W(SA)
SciTegic.value.DoubleValue
5.974

@<SCITEGIC>MOL_PROPERTY
Valence
SciTegic.value.DoubleValue
151.557

@<SCITEGIC>MOL_PROPERTY
Coulomb
SciTegic.value.DoubleValue
145.758

@<SCITEGIC>MOL_PROPERTY
VdW
SciTegic.value.DoubleValue
-24.124

@<SCITEGIC>MOL_PROPERTY
VdW6
SciTegic.value.DoubleValue
-171.142

@<SCITEGIC>MOL_PROPERTY
VdW12
SciTegic.value.DoubleValue
147.018

@<SCITEGIC>MOL_PROPERTY
Bond
SciTegic.value.DoubleValue
4.595

@<SCITEGIC>MOL_PROPERTY
Angle
SciTegic.value.DoubleValue
13.311

@<SCITEGIC>MOL_PROPERTY
Pdih
SciTegic.value.DoubleValue
133.632

@<SCITEGIC>MOL_PROPERTY
Idih
SciTegic.value.DoubleValue
0.019

@<SCITEGIC>MOL_PROPERTY
Tether
SciTegic.value.DoubleValue
0.000

@<TRIPOS>MOLECULE
CD_guest-6_fast_vm2_rndm.mol2 : feprocess host+ligand conformer 62
         139         144           2
SMALL
USER_CHARGES
 
@<TRIPOS>ATOM
       1    C1      16.313581   15.368790   20.246662 C.3        1 MOL1         0.2972
       2    H1      15.361123   15.254013   19.713164 H          1 MOL1         0.0751
       3    O1      16.378627   16.612812   20.965317 O.3        1 MOL1        -0.3740
       4    C2      16.515648   14.227307   21.273132 C.3        1 MOL1         0.1003
       5    H2      16.500183   13.282455   20.714539 H          1 MOL1         0.0783
       6    O2      15.453144   14.220050   22.241256 O.3        1 MOL1        -0.5519
       7    H3      15.353728   15.147617   22.575073 H          1 MOL1         0.3769
       8    C3      17.891553   14.338329   21.981386 C.3        1 MOL1         0.1053
       9    H4      17.861037   15.203074   22.658514 H          1 MOL1         0.0783
      10    O3      18.110753   13.136785   22.728302 O.3        1 MOL1        -0.5519
      11    H5      17.314580   13.035017   23.293825 H          1 MOL1         0.3769
      12    C4      19.053185   14.556466   20.971695 C.3        1 MOL1         0.1018
      13    H6      19.270321   13.599008   20.480916 H          1 MOL1         0.0783
      14    C5      18.714918   15.617622   19.886471 C.3        1 MOL1         0.1043
      15    H7      18.688284   16.604337   20.365388 H          1 MOL1         0.0783
      16    O4      17.416713   15.326755   19.318160 O.3        1 MOL1        -0.3740
      17    C6      19.740702   15.711141   18.727168 C.3        1 MOL1         0.0138
      18    H8      20.502132   16.452687   18.997220 H          1 MOL1         0.0794
      19    H9      19.228889   16.102107   17.837661 H          1 MOL1         0.0794
      20    O5      20.365877   14.457711   18.420249 O.3        1 MOL1        -0.5486
      21    H10     20.868293   14.174716   19.218120 H          1 MOL1         0.3769
      22    C7      14.593455   20.254792   21.480483 C.3        1 MOL1         0.2972
      23    H11     13.938861   21.131753   21.563703 H          1 MOL1         0.0751
      24    O6      15.979138   20.601931   21.679601 O.3        1 MOL1        -0.3740
      25    C8      14.193114   19.204643   22.543613 C.3        1 MOL1         0.1003
      26    H12     13.161724   18.893381   22.333233 H          1 MOL1         0.0783
      27    O7      14.257432   19.779809   23.857695 O.3        1 MOL1        -0.5519
      28    H13     15.043497   20.378733   23.868250 H          1 MOL1         0.3769
      29    C9      15.099051   17.956354   22.444743 C.3        1 MOL1         0.1053
      30    H14     16.106277   18.252088   22.758005 H          1 MOL1         0.0783
      31    O8      14.610919   16.926821   23.312018 O.3        1 MOL1        -0.5519
      32    H15     14.608656   17.332912   24.207239 H          1 MOL1         0.3769
      33    C10     15.185356   17.414754   20.996792 C.3        1 MOL1         0.1018
      34    H16     14.282663   16.824071   20.792004 H          1 MOL1         0.0783
      35    C11     15.360492   18.529678   19.925299 C.3        1 MOL1         0.1043
      36    H17     16.397700   18.882934   19.986004 H          1 MOL1         0.0783
      37    O9      14.466328   19.643598   20.180983 O.3        1 MOL1        -0.3740
      38    C12     15.128595   18.042175   18.474995 C.3        1 MOL1         0.0138
      39    H18     15.966948   17.394792   18.184914 H          1 MOL1         0.0794
      40    H19     15.143809   18.912947   17.805784 H          1 MOL1         0.0794
      41    O10     13.893302   17.329510   18.336252 O.3        1 MOL1        -0.5486
      42    H20     13.777697   17.115755   17.384697 H          1 MOL1         0.3769
      43    C13     18.483114   23.971263   21.572332 C.3        1 MOL1         0.2972
      44    H21     18.829205   25.006344   21.457304 H          1 MOL1         0.0751
      45    O11     19.578504   23.077862   21.845753 O.3        1 MOL1        -0.3740
      46    C14     17.490736   23.887177   22.760163 C.3        1 MOL1         0.1003
      47    H22     16.673915   24.591448   22.555615 H          1 MOL1         0.0783
      48    O12     18.144293   24.264037   23.982792 O.3        1 MOL1        -0.5519
      49    H23     19.101145   24.037409   23.875448 H          1 MOL1         0.3769
      50    C15     16.875803   22.472390   22.887528 C.3        1 MOL1         0.1053
      51    H24     17.667700   21.776135   23.193164 H          1 MOL1         0.0783
      52    O13     15.838148   22.493005   23.873342 O.3        1 MOL1        -0.5519
      53    H25     16.230503   22.956359   24.646262 H          1 MOL1         0.3769
      54    C16     16.308257   21.995614   21.529662 C.3        1 MOL1         0.1018
      55    H26     15.427453   22.604011   21.285472 H          1 MOL1         0.0783
      56    C17     17.359791   22.143115   20.396329 C.3        1 MOL1         0.1043
      57    H27     18.201944   21.475731   20.622059 H          1 MOL1         0.0783
      58    O14     17.823631   23.517261   20.369597 O.3        1 MOL1        -0.3740
      59    C18     16.851485   21.773686   18.978560 C.3        1 MOL1         0.0138
      60    H28     16.999412   20.698066   18.823465 H          1 MOL1         0.0794
      61    H29     17.477344   22.288875   18.237713 H          1 MOL1         0.0794
      62    O15     15.473930   22.102894   18.767925 O.3        1 MOL1        -0.5486
      63    H30     14.941875   21.387635   19.188222 H          1 MOL1         0.3769
      64    C19     23.730049   22.802351   21.324086 C.3        1 MOL1         0.2972
      65    H31     24.772531   23.043633   21.080629 H          1 MOL1         0.0751
      66    O16     23.602572   21.437617   21.769518 O.3        1 MOL1        -0.3740
      67    C20     23.241712   23.715009   22.478323 C.3        1 MOL1         0.1003
      68    H32     23.366727   24.756128   22.153541 H          1 MOL1         0.0783
      69    O17     24.031167   23.484279   23.655415 O.3        1 MOL1        -0.5519
      70    H33     24.223860   22.516503   23.671557 H          1 MOL1         0.3769
      71    C21     21.741463   23.485781   22.785076 C.3        1 MOL1         0.1053
      72    H34     21.625765   22.481894   23.211511 H          1 MOL1         0.0783
      73    O18     21.288038   24.465409   23.725713 O.3        1 MOL1        -0.5519
      74    H35     21.968169   24.473411   24.435210 H          1 MOL1         0.3769
      75    C22     20.891001   23.560011   21.496288 C.3        1 MOL1         0.1018
      76    H36     20.871651   24.603467   21.155331 H          1 MOL1         0.0783
      77    C23     21.478969   22.662674   20.372278 C.3        1 MOL1         0.1043
      78    H37     21.408813   21.615809   20.694329 H          1 MOL1         0.0783
      79    O19     22.874463   23.007232   20.177382 O.3        1 MOL1        -0.3740
      80    C24     20.750697   22.769979   19.006953 C.3        1 MOL1         0.0138
      81    H38     19.913905   22.060483   19.003476 H          1 MOL1         0.0794
      82    H39     21.439917   22.453256   18.213624 H          1 MOL1         0.0794
      83    O20     20.262997   24.086212   18.726281 O.3        1 MOL1        -0.5486
      84    H40     19.391629   24.165726   19.178857 H          1 MOL1         0.3769
      85    C25     25.032183   17.585876   21.079005 C.3        1 MOL1         0.2972
      86    H41     25.609071   16.700599   20.782239 H          1 MOL1         0.0751
      87    O21     23.712854   17.233173   21.533623 O.3        1 MOL1        -0.3740
      88    C26     25.752528   18.367368   22.207481 C.3        1 MOL1         0.1003
      89    H42     26.740537   18.654884   21.825228 H          1 MOL1         0.0783
      90    O22     25.916857   17.549277   23.377518 O.3        1 MOL1        -0.5519
      91    H43     25.020183   17.205665   23.623362 H          1 MOL1         0.3769
      92    C27     24.983821   19.663002   22.568109 C.3        1 MOL1         0.1053
      93    H44     24.058667   19.365595   23.074884 H          1 MOL1         0.0783
      94    O23     25.779467   20.454263   23.457472 O.3        1 MOL1        -0.5519
      95    H45     26.092808   19.829979   24.148479 H          1 MOL1         0.3769
      96    C28     24.604447   20.500749   21.316685 C.3        1 MOL1         0.1018
      97    H46     25.510544   21.009664   20.963180 H          1 MOL1         0.0783
      98    C29     24.013846   19.619874   20.174158 C.3        1 MOL1         0.1043
      99    H47     23.021461   19.271355   20.488846 H          1 MOL1         0.0783
     100    O24     24.880729   18.479435   19.958078 O.3        1 MOL1        -0.3740
     101    C30     23.826751   20.319572   18.804182 C.3        1 MOL1         0.0138
     102    H48     22.821763   20.754031   18.770644 H          1 MOL1         0.0794
     103    H49     23.862288   19.555738   18.015889 H          1 MOL1         0.0794
     104    O25     24.801951   21.334233   18.543265 O.3        1 MOL1        -0.5486
     105    H50     24.441759   22.167604   18.922574 H          1 MOL1         0.3769
     106    C31     21.157121   14.056405   22.107025 C.3        1 MOL1         0.2972
     107    H51     20.673074   13.090100   22.297710 H          1 MOL1         0.0751
     108    O26     20.195727   15.050272   21.700852 O.3        1 MOL1        -0.3740
     109    C32     21.898723   14.531633   23.383123 C.3        1 MOL1         0.1003
     110    H52     22.684547   13.794307   23.591772 H          1 MOL1         0.0783
     111    O27     21.017038   14.597465   24.513221 O.3        1 MOL1        -0.5519
     112    H53     20.335546   15.300185   24.315198 H          1 MOL1         0.3769
     113    C33     22.581103   15.895600   23.143199 C.3        1 MOL1         0.1053
     114    H54     21.790936   16.641319   22.981801 H          1 MOL1         0.0783
     115    O28     23.366472   16.253171   24.286797 O.3        1 MOL1        -0.5519
     116    H55     22.759519   16.141909   25.051905 H          1 MOL1         0.3769
     117    C34     23.486339   15.856584   21.888923 C.3        1 MOL1         0.1018
     118    H56     24.419521   15.337589   22.145520 H          1 MOL1         0.0783
     119    C35     22.803670   15.174222   20.668724 C.3        1 MOL1         0.1043
     120    H57     22.056502   15.879086   20.291174 H          1 MOL1         0.0783
     121    O29     22.136597   13.941012   21.050789 O.3        1 MOL1        -0.3740
     122    C36     23.771957   14.864246   19.501633 C.3        1 MOL1         0.0138
     123    H58     24.061150   15.810938   19.025756 H          1 MOL1         0.0794
     124    H59     23.236341   14.273279   18.746630 H          1 MOL1         0.0794
     125    O30     24.941119   14.163876   19.943573 O.3        1 MOL1        -0.5486
     126    H60     25.464209   13.924553   19.147486 H          1 MOL1         0.3769
     127    C1      18.685244   17.770503   23.937425 C.2        1 MOL1         0.6021
     128    O1      19.277913   16.736851   24.179823 O.co2      1 MOL1        -0.6904
     129    O2      17.770945   18.201843   24.612698 O.co2      1 MOL1        -0.6904
     130    C2      19.098276   18.563743   22.698444 C.3        1 MOL1        -0.2102
     131    H1      18.185389   18.860496   22.172017 H          1 MOL1         0.0687
     132    H2      19.653551   17.898948   22.027466 H          1 MOL1         0.0687
     133    C3      19.941184   19.821857   23.017675 C.3        1 MOL1        -0.1974
     134    H3      20.007093   20.447445   22.120534 H          1 MOL1         0.0689
     135    H4      19.437820   20.418214   23.790347 H          1 MOL1         0.0689
     136    C4      21.360888   19.456206   23.486285 C.3        1 MOL1        -0.2987
     137    H5      21.897561   18.930447   22.689111 H          1 MOL1         0.0700
     138    H6      21.932932   20.351761   23.752740 H          1 MOL1         0.0700
     139    H7      21.330251   18.803018   24.368168 H          1 MOL1         0.0700
@<TRIPOS>BOND
    1     1     2    1
    2     1     3    1
    3     1     4    1
    4     4     5    1
    5     4     6    1
    6     6     7    1
    7     4     8    1
    8     8     9    1
    9     8    10    1
   10    10    11    1
   11     8    12    1
   12    12    13    1
   13    12    14    1
   14    14    15    1
   15     1    16    1
   16    14    16    1
   17    14    17    1
   18    17    18    1
   19    17    19    1
   20    17    20    1
   21    20    21    1
   22    22    23    1
   23    22    24    1
   24    22    25    1
   25    25    26    1
   26    25    27    1
   27    27    28    1
   28    25    29    1
   29    29    30    1
   30    29    31    1
   31    31    32    1
   32     3    33    1
   33    29    33    1
   34    33    34    1
   35    33    35    1
   36    35    36    1
   37    22    37    1
   38    35    37    1
   39    35    38    1
   40    38    39    1
   41    38    40    1
   42    38    41    1
   43    41    42    1
   44    43    44    1
   45    43    45    1
   46    43    46    1
   47    46    47    1
   48    46    48    1
   49    48    49    1
   50    46    50    1
   51    50    51    1
   52    50    52    1
   53    52    53    1
   54    24    54    1
   55    50    54    1
   56    54    55    1
   57    54    56    1
   58    56    57    1
   59    43    58    1
   60    56    58    1
   61    56    59    1
   62    59    60    1
   63    59    61    1
   64    59    62    1
   65    62    63    1
   66    64    65    1
   67    64    66    1
   68    64    67    1
   69    67    68    1
   70    67    69    1
   71    69    70    1
   72    67    71    1
   73    71    72    1
   74    71    73    1
   75    73    74    1
   76    45    75    1
   77    71    75    1
   78    75    76    1
   79    75    77    1
   80    77    78    1
   81    64    79    1
   82    77    79    1
   83    77    80    1
   84    80    81    1
   85    80    82    1
   86    80    83    1
   87    83    84    1
   88    85    86    1
   89    85    87    1
   90    85    88    1
   91    88    89    1
   92    88    90    1
   93    90    91    1
   94    88    92    1
   95    92    93    1
   96    92    94    1
   97    94    95    1
   98    66    96    1
   99    92    96    1
  100    96    97    1
  101    96    98    1
  102    98    99    1
  103    85   100    1
  104    98   100    1
  105    98   101    1
  106   101   102    1
  107   101   103    1
  108   101   104    1
  109   104   105    1
  110   106   107    1
  111    12   108    1
  112   106   108    1
  113   106   109    1
  114   109   110    1
  115   109   111    1
  116   111   112    1
  117   109   113    1
  118   113   114    1
  119   113   115    1
  120   115   116    1
  121    87   117    1
  122   113   117    1
  123   117   118    1
  124   117   119    1
  125   119   120    1
  126   106   121    1
  127   119   121    1
  128   119   122    1
  129   122   123    1
  130   122   124    1
  131   122   125    1
  132   125   126    1
  133   127   128    1
  134   127   129    2
  135   127   130    1
  136   130   131    1
  137   130   132    1
  138   130   133    1
  139   133   134    1
  140   133   135    1
  141   133   136    1
  142   136   137    1
  143   136   138    1
  144   136   139    1
@<TRIPOS>SUBSTRUCTURE
       1 MOL1            1 RESIDUE      1      MOL     
       2 MOL1          139 RESIDUE      1      MOL     
@<SCITEGIC>MOL_PROPERTY
feprocess Rank
SciTegic.value.IntegerValue
62

@<SCITEGIC>MOL_PROPERTY
Conf_Id
SciTegic.value.IntegerValue
416

@<SCITEGIC>MOL_PROPERTY
Probability
SciTegic.value.DoubleValue
0.00

@<SCITEGIC>MOL_PROPERTY
G
SciTegic.value.DoubleValue
490.175

@<SCITEGIC>MOL_PROPERTY
E
SciTegic.value.DoubleValue
315.057

@<SCITEGIC>MOL_PROPERTY
-TS
SciTegic.value.DoubleValue
175.117

@<SCITEGIC>MOL_PROPERTY
U+W
SciTegic.value.DoubleValue
192.546

@<SCITEGIC>MOL_PROPERTY
U
SciTegic.value.DoubleValue
273.974

@<SCITEGIC>MOL_PROPERTY
W
SciTegic.value.DoubleValue
-81.427

@<SCITEGIC>MOL_PROPERTY
W(PB)
SciTegic.value.DoubleValue
-87.369

@<SCITEGIC>MOL_PROPERTY
W(SA)
SciTegic.value.DoubleValue
5.941

@<SCITEGIC>MOL_PROPERTY
Valence
SciTegic.value.DoubleValue
152.495

@<SCITEGIC>MOL_PROPERTY
Coulomb
SciTegic.value.DoubleValue
145.517

@<SCITEGIC>MOL_PROPERTY
VdW
SciTegic.value.DoubleValue
-24.039

@<SCITEGIC>MOL_PROPERTY
VdW6
SciTegic.value.DoubleValue
-173.112

@<SCITEGIC>MOL_PROPERTY
VdW12
SciTegic.value.DoubleValue
149.073

@<SCITEGIC>MOL_PROPERTY
Bond
SciTegic.value.DoubleValue
4.724

@<SCITEGIC>MOL_PROPERTY
Angle
SciTegic.value.DoubleValue
13.403

@<SCITEGIC>MOL_PROPERTY
Pdih
SciTegic.value.DoubleValue
134.367

@<SCITEGIC>MOL_PROPERTY
Idih
SciTegic.value.DoubleValue
0.001

@<SCITEGIC>MOL_PROPERTY
Tether
SciTegic.value.DoubleValue
0.000

@<TRIPOS>MOLECULE
CD_guest-6_fast_vm2_rndm.mol2 : feprocess host+ligand conformer 63
         139         144           2
SMALL
USER_CHARGES
 
@<TRIPOS>ATOM
       1    C1      16.479633   15.582411   20.092521 C.3        1 MOL1         0.2972
       2    H1      15.551990   15.499750   19.511878 H          1 MOL1         0.0751
       3    O1      16.535052   16.818044   20.826819 O.3        1 MOL1        -0.3740
       4    C2      16.618368   14.402687   21.089445 C.3        1 MOL1         0.1003
       5    H2      16.598978   13.480332   20.494603 H          1 MOL1         0.0783
       6    O2      15.523558   14.378355   22.019408 O.3        1 MOL1        -0.5519
       7    H3      15.494285   15.266035   22.456557 H          1 MOL1         0.3769
       8    C3      17.972401   14.443817   21.846540 C.3        1 MOL1         0.1053
       9    H4      17.950259   15.285497   22.551500 H          1 MOL1         0.0783
      10    O3      18.126083   13.209618   22.555886 O.3        1 MOL1        -0.5519
      11    H5      17.311096   13.119148   23.095910 H          1 MOL1         0.3769
      12    C4      19.172247   14.657610   20.882807 C.3        1 MOL1         0.1018
      13    H6      19.362069   13.718599   20.347075 H          1 MOL1         0.0783
      14    C5      18.899312   15.784994   19.847711 C.3        1 MOL1         0.1043
      15    H7      18.871589   16.743173   20.382113 H          1 MOL1         0.0783
      16    O4      17.620919   15.547016   19.211577 O.3        1 MOL1        -0.3740
      17    C6      19.969460   15.921891   18.735151 C.3        1 MOL1         0.0138
      18    H8      20.743816   16.615761   19.083967 H          1 MOL1         0.0794
      19    H9      19.504476   16.392443   17.858628 H          1 MOL1         0.0794
      20    O5      20.559882   14.669024   18.362954 O.3        1 MOL1        -0.5486
      21    H10     21.004575   14.303654   19.161125 H          1 MOL1         0.3769
      22    C7      14.538535   20.297859   21.614684 C.3        1 MOL1         0.2972
      23    H11     13.849532   21.133898   21.790315 H          1 MOL1         0.0751
      24    O6      15.916257   20.719592   21.638416 O.3        1 MOL1        -0.3740
      25    C8      14.359648   19.220044   22.710461 C.3        1 MOL1         0.1003
      26    H12     13.346626   18.807205   22.622726 H          1 MOL1         0.0783
      27    O7      14.520592   19.821572   24.005651 O.3        1 MOL1        -0.5519
      28    H13     15.191497   20.540124   23.908942 H          1 MOL1         0.3769
      29    C9      15.371776   18.070549   22.479565 C.3        1 MOL1         0.1053
      30    H14     16.375829   18.484199   22.629389 H          1 MOL1         0.0783
      31    O8      15.170566   16.996096   23.404955 O.3        1 MOL1        -0.5519
      32    H15     16.021380   16.964137   23.923554 H          1 MOL1         0.3769
      33    C10     15.295973   17.521194   21.032726 C.3        1 MOL1         0.1018
      34    H16     14.425738   16.855921   20.956379 H          1 MOL1         0.0783
      35    C11     15.223031   18.639871   19.950722 C.3        1 MOL1         0.1043
      36    H17     16.225831   19.077322   19.863276 H          1 MOL1         0.0783
      37    O9      14.287301   19.681320   20.335742 O.3        1 MOL1        -0.3740
      38    C12     14.829425   18.127776   18.544595 C.3        1 MOL1         0.0138
      39    H18     15.671253   17.555068   18.132681 H          1 MOL1         0.0794
      40    H19     14.673773   18.994093   17.887646 H          1 MOL1         0.0794
      41    O10     13.653312   17.309984   18.576990 O.3        1 MOL1        -0.5486
      42    H20     13.414184   17.094362   17.649138 H          1 MOL1         0.3769
      43    C13     18.396364   24.039901   21.540461 C.3        1 MOL1         0.2972
      44    H21     18.811136   25.052270   21.453524 H          1 MOL1         0.0751
      45    O11     19.429078   23.054409   21.740524 O.3        1 MOL1        -0.3740
      46    C14     17.436248   23.970183   22.753329 C.3        1 MOL1         0.1003
      47    H22     16.627913   24.692140   22.578833 H          1 MOL1         0.0783
      48    O12     18.126771   24.315151   23.964881 O.3        1 MOL1        -0.5519
      49    H23     19.078599   24.076565   23.832670 H          1 MOL1         0.3769
      50    C15     16.804848   22.563831   22.870793 C.3        1 MOL1         0.1053
      51    H24     17.601400   21.851584   23.124627 H          1 MOL1         0.0783
      52    O13     15.815846   22.568373   23.904523 O.3        1 MOL1        -0.5519
      53    H25     16.237041   23.043552   24.655427 H          1 MOL1         0.3769
      54    C16     16.171044   22.127454   21.527258 C.3        1 MOL1         0.1018
      55    H26     15.253313   22.706822   21.361953 H          1 MOL1         0.0783
      56    C17     17.139457   22.328836   20.328090 C.3        1 MOL1         0.1043
      57    H27     17.971108   21.623715   20.444103 H          1 MOL1         0.0783
      58    O14     17.658926   23.683317   20.349111 O.3        1 MOL1        -0.3740
      59    C18     16.516962   22.047676   18.935283 C.3        1 MOL1         0.0138
      60    H28     16.674708   20.989223   18.692481 H          1 MOL1         0.0794
      61    H29     17.064360   22.630358   18.182301 H          1 MOL1         0.0794
      62    O15     15.117880   22.346282   18.867023 O.3        1 MOL1        -0.5486
      63    H30     14.645093   21.603454   19.308216 H          1 MOL1         0.3769
      64    C19     23.583174   22.647975   21.259582 C.3        1 MOL1         0.2972
      65    H31     24.626406   22.881544   21.012329 H          1 MOL1         0.0751
      66    O16     23.439523   21.285735   21.702675 O.3        1 MOL1        -0.3740
      67    C20     23.106706   23.561323   22.418297 C.3        1 MOL1         0.1003
      68    H32     23.248293   24.602005   22.098954 H          1 MOL1         0.0783
      69    O17     23.889692   23.314905   23.597633 O.3        1 MOL1        -0.5519
      70    H33     24.097912   22.348242   23.601522 H          1 MOL1         0.3769
      71    C21     21.601746   23.353584   22.716744 C.3        1 MOL1         0.1053
      72    H34     21.465343   22.343129   23.127232 H          1 MOL1         0.0783
      73    O18     21.163580   24.330626   23.667143 O.3        1 MOL1        -0.5519
      74    H35     21.848937   24.325699   24.372073 H          1 MOL1         0.3769
      75    C22     20.769530   23.465164   21.418207 C.3        1 MOL1         0.1018
      76    H36     20.808942   24.503296   21.062704 H          1 MOL1         0.0783
      77    C23     21.330111   22.527525   20.315973 C.3        1 MOL1         0.1043
      78    H37     21.240828   21.491014   20.665981 H          1 MOL1         0.0783
      79    O19     22.728990   22.850157   20.111136 O.3        1 MOL1        -0.3740
      80    C24     20.595510   22.611774   18.953297 C.3        1 MOL1         0.0138
      81    H38     19.741437   21.923245   18.976543 H          1 MOL1         0.0794
      82    H39     21.272526   22.252443   18.167297 H          1 MOL1         0.0794
      83    O20     20.137418   23.931604   18.639011 O.3        1 MOL1        -0.5486
      84    H40     19.299001   24.067921   19.138011 H          1 MOL1         0.3769
      85    C25     25.146969   17.516332   21.217042 C.3        1 MOL1         0.2972
      86    H41     25.794861   16.660380   20.987936 H          1 MOL1         0.0751
      87    O21     23.819852   17.101383   21.583237 O.3        1 MOL1        -0.3740
      88    C26     25.719573   18.364427   22.382180 C.3        1 MOL1         0.1003
      89    H42     26.699028   18.742388   22.061531 H          1 MOL1         0.0783
      90    O22     25.886691   17.574229   23.570143 O.3        1 MOL1        -0.5519
      91    H43     25.019283   17.131977   23.755639 H          1 MOL1         0.3769
      92    C27     24.805611   19.583231   22.666450 C.3        1 MOL1         0.1053
      93    H44     23.848621   19.211123   23.058842 H          1 MOL1         0.0783
      94    O23     25.428343   20.433756   23.636089 O.3        1 MOL1        -0.5519
      95    H45     25.740871   19.828984   24.345053 H          1 MOL1         0.3769
      96    C28     24.518070   20.388162   21.373738 C.3        1 MOL1         0.1018
      97    H46     25.434192   20.928323   21.101509 H          1 MOL1         0.0783
      98    C29     24.081364   19.470027   20.194613 C.3        1 MOL1         0.1043
      99    H47     23.090857   19.061317   20.426794 H          1 MOL1         0.0783
     100    O24     25.029083   18.380212   20.065650 O.3        1 MOL1        -0.3740
     101    C30     23.957480   20.167401   18.816887 C.3        1 MOL1         0.0138
     102    H48     22.958166   20.613663   18.741831 H          1 MOL1         0.0794
     103    H49     24.020918   19.401112   18.032871 H          1 MOL1         0.0794
     104    O25     24.952543   21.173695   18.600346 O.3        1 MOL1        -0.5486
     105    H50     24.553430   22.026630   18.881717 H          1 MOL1         0.3769
     106    C31     21.216327   14.003530   22.057634 C.3        1 MOL1         0.2972
     107    H51     20.677305   13.060359   22.212669 H          1 MOL1         0.0751
     108    O26     20.316037   15.060340   21.665962 O.3        1 MOL1        -0.3740
     109    C32     21.963216   14.398144   23.357037 C.3        1 MOL1         0.1003
     110    H52     22.710194   13.616666   23.546670 H          1 MOL1         0.0783
     111    O27     21.071391   14.464722   24.479157 O.3        1 MOL1        -0.5519
     112    H53     20.535736   15.300634   24.375010 H          1 MOL1         0.3769
     113    C33     22.712350   15.736066   23.172513 C.3        1 MOL1         0.1053
     114    H54     21.964420   16.526987   23.037617 H          1 MOL1         0.0783
     115    O28     23.499340   16.017295   24.335203 O.3        1 MOL1        -0.5519
     116    H55     22.864493   15.961727   25.084322 H          1 MOL1         0.3769
     117    C34     23.618700   15.717457   21.918622 C.3        1 MOL1         0.1018
     118    H56     24.558224   15.205799   22.165992 H          1 MOL1         0.0783
     119    C35     22.946734   15.065273   20.676577 C.3        1 MOL1         0.1043
     120    H57     22.242382   15.802989   20.282029 H          1 MOL1         0.0783
     121    O29     22.211510   13.860173   21.019779 O.3        1 MOL1        -0.3740
     122    C36     23.941053   14.732356   19.538597 C.3        1 MOL1         0.0138
     123    H58     24.292048   15.674088   19.095328 H          1 MOL1         0.0794
     124    H59     23.406310   14.182981   18.752200 H          1 MOL1         0.0794
     125    O30     25.059027   13.968680   20.007246 O.3        1 MOL1        -0.5486
     126    H60     25.605555   13.730218   19.226741 H          1 MOL1         0.3769
     127    C1      18.944675   17.613021   24.118637 C.2        1 MOL1         0.6021
     128    O1      17.824157   17.154884   24.239393 O.co2      1 MOL1        -0.6904
     129    O2      19.951189   17.001026   24.417554 O.co2      1 MOL1        -0.6904
     130    C2      19.083798   19.073952   23.686370 C.3        1 MOL1        -0.2102
     131    H1      19.956656   19.501399   24.193892 H          1 MOL1         0.0687
     132    H2      18.206049   19.609151   24.067407 H          1 MOL1         0.0687
     133    C3      19.195409   19.304448   22.155410 C.3        1 MOL1        -0.1974
     134    H3      18.364934   18.806399   21.639981 H          1 MOL1         0.0689
     135    H4      19.094627   20.376981   21.957327 H          1 MOL1         0.0689
     136    C4      20.535899   18.823120   21.568505 C.3        1 MOL1        -0.2987
     137    H5      20.647599   17.740657   21.695102 H          1 MOL1         0.0700
     138    H6      20.594543   19.048133   20.496701 H          1 MOL1         0.0700
     139    H7      21.378417   19.312308   22.073495 H          1 MOL1         0.0700
@<TRIPOS>BOND
    1     1     2    1
    2     1     3    1
    3     1     4    1
    4     4     5    1
    5     4     6    1
    6     6     7    1
    7     4     8    1
    8     8     9    1
    9     8    10    1
   10    10    11    1
   11     8    12    1
   12    12    13    1
   13    12    14    1
   14    14    15    1
   15     1    16    1
   16    14    16    1
   17    14    17    1
   18    17    18    1
   19    17    19    1
   20    17    20    1
   21    20    21    1
   22    22    23    1
   23    22    24    1
   24    22    25    1
   25    25    26    1
   26    25    27    1
   27    27    28    1
   28    25    29    1
   29    29    30    1
   30    29    31    1
   31    31    32    1
   32     3    33    1
   33    29    33    1
   34    33    34    1
   35    33    35    1
   36    35    36    1
   37    22    37    1
   38    35    37    1
   39    35    38    1
   40    38    39    1
   41    38    40    1
   42    38    41    1
   43    41    42    1
   44    43    44    1
   45    43    45    1
   46    43    46    1
   47    46    47    1
   48    46    48    1
   49    48    49    1
   50    46    50    1
   51    50    51    1
   52    50    52    1
   53    52    53    1
   54    24    54    1
   55    50    54    1
   56    54    55    1
   57    54    56    1
   58    56    57    1
   59    43    58    1
   60    56    58    1
   61    56    59    1
   62    59    60    1
   63    59    61    1
   64    59    62    1
   65    62    63    1
   66    64    65    1
   67    64    66    1
   68    64    67    1
   69    67    68    1
   70    67    69    1
   71    69    70    1
   72    67    71    1
   73    71    72    1
   74    71    73    1
   75    73    74    1
   76    45    75    1
   77    71    75    1
   78    75    76    1
   79    75    77    1
   80    77    78    1
   81    64    79    1
   82    77    79    1
   83    77    80    1
   84    80    81    1
   85    80    82    1
   86    80    83    1
   87    83    84    1
   88    85    86    1
   89    85    87    1
   90    85    88    1
   91    88    89    1
   92    88    90    1
   93    90    91    1
   94    88    92    1
   95    92    93    1
   96    92    94    1
   97    94    95    1
   98    66    96    1
   99    92    96    1
  100    96    97    1
  101    96    98    1
  102    98    99    1
  103    85   100    1
  104    98   100    1
  105    98   101    1
  106   101   102    1
  107   101   103    1
  108   101   104    1
  109   104   105    1
  110   106   107    1
  111    12   108    1
  112   106   108    1
  113   106   109    1
  114   109   110    1
  115   109   111    1
  116   111   112    1
  117   109   113    1
  118   113   114    1
  119   113   115    1
  120   115   116    1
  121    87   117    1
  122   113   117    1
  123   117   118    1
  124   117   119    1
  125   119   120    1
  126   106   121    1
  127   119   121    1
  128   119   122    1
  129   122   123    1
  130   122   124    1
  131   122   125    1
  132   125   126    1
  133   127   128    1
  134   127   129    2
  135   127   130    1
  136   130   131    1
  137   130   132    1
  138   130   133    1
  139   133   134    1
  140   133   135    1
  141   133   136    1
  142   136   137    1
  143   136   138    1
  144   136   139    1
@<TRIPOS>SUBSTRUCTURE
       1 MOL1            1 RESIDUE      1      MOL     
       2 MOL1          139 RESIDUE      1      MOL     
@<SCITEGIC>MOL_PROPERTY
feprocess Rank
SciTegic.value.IntegerValue
63

@<SCITEGIC>MOL_PROPERTY
Conf_Id
SciTegic.value.IntegerValue
479

@<SCITEGIC>MOL_PROPERTY
Probability
SciTegic.value.DoubleValue
0.00

@<SCITEGIC>MOL_PROPERTY
G
SciTegic.value.DoubleValue
490.300

@<SCITEGIC>MOL_PROPERTY
E
SciTegic.value.DoubleValue
314.406

@<SCITEGIC>MOL_PROPERTY
-TS
SciTegic.value.DoubleValue
175.894

@<SCITEGIC>MOL_PROPERTY
U+W
SciTegic.value.DoubleValue
191.895

@<SCITEGIC>MOL_PROPERTY
U
SciTegic.value.DoubleValue
267.204

@<SCITEGIC>MOL_PROPERTY
W
SciTegic.value.DoubleValue
-75.309

@<SCITEGIC>MOL_PROPERTY
W(PB)
SciTegic.value.DoubleValue
-81.236

@<SCITEGIC>MOL_PROPERTY
W(SA)
SciTegic.value.DoubleValue
5.927

@<SCITEGIC>MOL_PROPERTY
Valence
SciTegic.value.DoubleValue
154.919

@<SCITEGIC>MOL_PROPERTY
Coulomb
SciTegic.value.DoubleValue
134.999

@<SCITEGIC>MOL_PROPERTY
VdW
SciTegic.value.DoubleValue
-22.714

@<SCITEGIC>MOL_PROPERTY
VdW6
SciTegic.value.DoubleValue
-175.646

@<SCITEGIC>MOL_PROPERTY
VdW12
SciTegic.value.DoubleValue
152.932

@<SCITEGIC>MOL_PROPERTY
Bond
SciTegic.value.DoubleValue
4.933

@<SCITEGIC>MOL_PROPERTY
Angle
SciTegic.value.DoubleValue
14.578

@<SCITEGIC>MOL_PROPERTY
Pdih
SciTegic.value.DoubleValue
135.388

@<SCITEGIC>MOL_PROPERTY
Idih
SciTegic.value.DoubleValue
0.021

@<SCITEGIC>MOL_PROPERTY
Tether
SciTegic.value.DoubleValue
0.000

@<TRIPOS>MOLECULE
CD_guest-6_fast_vm2_rndm.mol2 : feprocess host+ligand conformer 64
         139         144           2
SMALL
USER_CHARGES
 
@<TRIPOS>ATOM
       1    C1      16.338935   15.340990   20.639547 C.3        1 MOL1         0.2972
       2    H1      15.320954   15.269714   20.235447 H          1 MOL1         0.0751
       3    O1      16.603653   16.647189   21.184301 O.3        1 MOL1        -0.3740
       4    C2      16.573370   14.284526   21.751791 C.3        1 MOL1         0.1003
       5    H2      16.405261   13.296593   21.303834 H          1 MOL1         0.0783
       6    O2      15.659585   14.467982   22.845411 O.3        1 MOL1        -0.5519
       7    H3      15.754356   15.404610   23.155332 H          1 MOL1         0.3769
       8    C3      18.034845   14.335260   22.261842 C.3        1 MOL1         0.1053
       9    H4      18.168888   15.283939   22.792335 H          1 MOL1         0.0783
      10    O3      18.271525   13.243739   23.157440 O.3        1 MOL1        -0.5519
      11    H5      17.499840   13.237413   23.765807 H          1 MOL1         0.3769
      12    C4      19.055273   14.293873   21.096976 C.3        1 MOL1         0.1018
      13    H6      19.070364   13.275706   20.686573 H          1 MOL1         0.0783
      14    C5      18.693465   15.298664   19.966240 C.3        1 MOL1         0.1043
      15    H7      18.830494   16.317240   20.353450 H          1 MOL1         0.0783
      16    O4      17.306336   15.103523   19.594596 O.3        1 MOL1        -0.3740
      17    C6      19.551497   15.185227   18.678688 C.3        1 MOL1         0.0138
      18    H8      20.411037   15.859353   18.768662 H          1 MOL1         0.0794
      19    H9      18.956400   15.551628   17.831539 H          1 MOL1         0.0794
      20    O5      20.008325   13.853923   18.413187 O.3        1 MOL1        -0.5486
      21    H10     20.756261   13.678645   19.031080 H          1 MOL1         0.3769
      22    C7      14.986019   20.367324   21.837794 C.3        1 MOL1         0.2972
      23    H11     14.357456   21.246279   22.031049 H          1 MOL1         0.0751
      24    O6      16.342143   20.756156   21.540461 O.3        1 MOL1        -0.3740
      25    C8      14.952705   19.425898   23.069547 C.3        1 MOL1         0.1003
      26    H12     13.912166   19.099029   23.192632 H          1 MOL1         0.0783
      27    O7      15.366169   20.104785   24.264349 O.3        1 MOL1        -0.5519
      28    H13     16.327448   20.350007   24.149058 H          1 MOL1         0.3769
      29    C9      15.815987   18.168006   22.834169 C.3        1 MOL1         0.1053
      30    H14     16.864052   18.486258   22.793391 H          1 MOL1         0.0783
      31    O8      15.631679   17.247002   23.915456 O.3        1 MOL1        -0.5519
      32    H15     15.766665   17.783552   24.728055 H          1 MOL1         0.3769
      33    C10     15.465036   17.471870   21.497445 C.3        1 MOL1         0.1018
      34    H16     14.551049   16.879685   21.638794 H          1 MOL1         0.0783
      35    C11     15.288324   18.468594   20.316270 C.3        1 MOL1         0.1043
      36    H17     16.291628   18.808281   20.038453 H          1 MOL1         0.0783
      37    O9      14.491502   19.620095   20.704616 O.3        1 MOL1        -0.3740
      38    C12     14.652887   17.835836   19.054589 C.3        1 MOL1         0.0138
      39    H18     15.384412   17.155544   18.598072 H          1 MOL1         0.0794
      40    H19     14.450924   18.630814   18.324339 H          1 MOL1         0.0794
      41    O10     13.448201   17.122462   19.358454 O.3        1 MOL1        -0.5486
      42    H20     13.054965   16.825302   18.508909 H          1 MOL1         0.3769
      43    C13     18.603472   24.015383   20.294098 C.3        1 MOL1         0.2972
      44    H21     18.997911   24.928659   19.831812 H          1 MOL1         0.0751
      45    O11     19.660289   23.210174   20.851448 O.3        1 MOL1        -0.3740
      46    C14     17.535171   24.345552   21.370725 C.3        1 MOL1         0.1003
      47    H22     16.719645   24.865081   20.850865 H          1 MOL1         0.0783
      48    O12     18.050616   25.216369   22.388697 O.3        1 MOL1        -0.5519
      49    H23     18.716599   24.693126   22.901956 H          1 MOL1         0.3769
      50    C15     16.940483   23.055583   21.993210 C.3        1 MOL1         0.1053
      51    H24     17.714520   22.573516   22.606188 H          1 MOL1         0.0783
      52    O13     15.820046   23.419169   22.807152 O.3        1 MOL1        -0.5519
      53    H25     16.158405   24.095441   23.432685 H          1 MOL1         0.3769
      54    C16     16.487928   22.044431   20.904765 C.3        1 MOL1         0.1018
      55    H26     15.538075   22.399257   20.484334 H          1 MOL1         0.0783
      56    C17     17.521503   21.888853   19.751565 C.3        1 MOL1         0.1043
      57    H27     18.387069   21.336759   20.141203 H          1 MOL1         0.0783
      58    O14     17.944834   23.201606   19.300669 O.3        1 MOL1        -0.3740
      59    C18     17.008888   21.100210   18.517365 C.3        1 MOL1         0.0138
      60    H28     17.269496   20.043092   18.645502 H          1 MOL1         0.0794
      61    H29     17.555712   21.447161   17.630379 H          1 MOL1         0.0794
      62    O15     15.597619   21.231418   18.301605 O.3        1 MOL1        -0.5486
      63    H30     15.141016   20.800628   19.061358 H          1 MOL1         0.3769
      64    C19     23.364729   22.680942   22.365865 C.3        1 MOL1         0.2972
      65    H31     24.378421   22.696787   22.783701 H          1 MOL1         0.0751
      66    O16     22.983242   21.350767   21.944381 O.3        1 MOL1        -0.3740
      67    C20     22.355124   23.186786   23.422806 C.3        1 MOL1         0.1003
      68    H32     22.592159   24.238359   23.628763 H          1 MOL1         0.0783
      69    O17     22.467050   22.434415   24.641887 O.3        1 MOL1        -0.5519
      70    H33     21.758870   21.735752   24.624184 H          1 MOL1         0.3769
      71    C21     20.924567   23.116086   22.844916 C.3        1 MOL1         0.1053
      72    H34     20.713351   22.064452   22.639218 H          1 MOL1         0.0783
      73    O18     19.970694   23.605077   23.793217 O.3        1 MOL1        -0.5519
      74    H35     19.850472   22.853741   24.429935 H          1 MOL1         0.3769
      75    C22     20.787146   23.846385   21.488051 C.3        1 MOL1         0.1018
      76    H36     20.630417   24.918146   21.661358 H          1 MOL1         0.0783
      77    C23     21.995526   23.601108   20.534829 C.3        1 MOL1         0.1043
      78    H37     21.839948   22.620026   20.076579 H          1 MOL1         0.0783
      79    O19     23.267551   23.574798   21.234755 O.3        1 MOL1        -0.3740
      80    C24     22.089701   24.625033   19.378297 C.3        1 MOL1         0.0138
      81    H38     21.211652   24.507875   18.728913 H          1 MOL1         0.0794
      82    H39     22.972604   24.382538   18.771949 H          1 MOL1         0.0794
      83    O20     22.178647   25.976614   19.848047 O.3        1 MOL1        -0.5486
      84    H40     21.311666   26.230749   20.227636 H          1 MOL1         0.3769
      85    C25     24.829350   17.673856   21.089923 C.3        1 MOL1         0.2972
      86    H41     25.510494   16.913222   20.686898 H          1 MOL1         0.0751
      87    O21     23.697772   17.074225   21.746019 O.3        1 MOL1        -0.3740
      88    C26     25.558362   18.545402   22.142484 C.3        1 MOL1         0.1003
      89    H42     26.450200   18.963098   21.657414 H          1 MOL1         0.0783
      90    O22     25.959843   17.736255   23.260735 O.3        1 MOL1        -0.5519
      91    H43     25.192177   17.151962   23.474991 H          1 MOL1         0.3769
      92    C27     24.682170   19.730377   22.629929 C.3        1 MOL1         0.1053
      93    H44     23.870966   19.328065   23.252852 H          1 MOL1         0.0783
      94    O23     25.512527   20.599543   23.406139 O.3        1 MOL1        -0.5519
      95    H45     25.956214   20.017068   24.061050 H          1 MOL1         0.3769
      96    C28     24.037037   20.501550   21.443809 C.3        1 MOL1         0.1018
      97    H46     24.812034   21.086283   20.931697 H          1 MOL1         0.0783
      98    C29     23.377813   19.525372   20.432495 C.3        1 MOL1         0.1043
      99    H47     22.530061   19.032323   20.927206 H          1 MOL1         0.0783
     100    O24     24.350843   18.533799   20.035028 O.3        1 MOL1        -0.3740
     101    C30     22.827241   20.202169   19.152937 C.3        1 MOL1         0.0138
     102    H48     21.834265   20.611098   19.378558 H          1 MOL1         0.0794
     103    H49     22.683416   19.432259   18.383292 H          1 MOL1         0.0794
     104    O25     23.685622   21.238412   18.657448 O.3        1 MOL1        -0.5486
     105    H50     23.761951   21.920099   19.359980 H          1 MOL1         0.3769
     106    C31     21.366830   13.678321   21.590760 C.3        1 MOL1         0.2972
     107    H51     20.949516   12.664929   21.529864 H          1 MOL1         0.0751
     108    O26     20.326925   14.672658   21.660103 O.3        1 MOL1        -0.3740
     109    C32     22.246439   13.802041   22.856686 C.3        1 MOL1         0.1003
     110    H52     23.060487   13.070676   22.770071 H          1 MOL1         0.0783
     111    O27     21.466883   13.514177   24.027809 O.3        1 MOL1        -0.5519
     112    H53     20.544228   13.799738   23.825153 H          1 MOL1         0.3769
     113    C33     22.874955   15.210440   22.958070 C.3        1 MOL1         0.1053
     114    H54     22.066377   15.920387   23.164618 H          1 MOL1         0.0783
     115    O28     23.821542   15.238747   24.032391 O.3        1 MOL1        -0.5519
     116    H55     23.350320   14.841890   24.797903 H          1 MOL1         0.3769
     117    C34     23.569201   15.641354   21.642131 C.3        1 MOL1         0.1018
     118    H56     24.548499   15.147250   21.593886 H          1 MOL1         0.0783
     119    C35     22.731946   15.308267   20.370215 C.3        1 MOL1         0.1043
     120    H57     21.905875   16.028544   20.326746 H          1 MOL1         0.0783
     121    O29     22.190200   13.963680   20.443990 O.3        1 MOL1        -0.3740
     122    C36     23.514887   15.413521   19.038057 C.3        1 MOL1         0.0138
     123    H58     23.657494   16.472064   18.789555 H          1 MOL1         0.0794
     124    H59     22.900970   14.979311   18.237454 H          1 MOL1         0.0794
     125    O30     24.783320   14.750152   19.102323 O.3        1 MOL1        -0.5486
     126    H60     25.187190   14.792493   18.208177 H          1 MOL1         0.3769
     127    C1      19.308078   20.277832   24.008622 C.2        1 MOL1         0.6021
     128    O1      18.123228   20.495546   24.167939 O.co2      1 MOL1        -0.6904
     129    O2      20.181025   20.809680   24.670499 O.co2      1 MOL1        -0.6904
     130    C2      19.722973   19.403139   22.823467 C.3        1 MOL1        -0.2102
     131    H1      20.401279   19.981248   22.188823 H          1 MOL1         0.0687
     132    H2      18.835312   19.199001   22.216041 H          1 MOL1         0.0687
     133    C3      20.410253   18.072711   23.214276 C.3        1 MOL1        -0.1974
     134    H3      20.587145   17.486168   22.303236 H          1 MOL1         0.0689
     135    H4      21.394154   18.284134   23.655416 H          1 MOL1         0.0689
     136    C4      19.571320   17.243391   24.207923 C.3        1 MOL1        -0.2987
     137    H5      18.540154   17.135786   23.853913 H          1 MOL1         0.0700
     138    H6      19.998774   16.242341   24.344196 H          1 MOL1         0.0700
     139    H7      19.536339   17.731896   25.190411 H          1 MOL1         0.0700
@<TRIPOS>BOND
    1     1     2    1
    2     1     3    1
    3     1     4    1
    4     4     5    1
    5     4     6    1
    6     6     7    1
    7     4     8    1
    8     8     9    1
    9     8    10    1
   10    10    11    1
   11     8    12    1
   12    12    13    1
   13    12    14    1
   14    14    15    1
   15     1    16    1
   16    14    16    1
   17    14    17    1
   18    17    18    1
   19    17    19    1
   20    17    20    1
   21    20    21    1
   22    22    23    1
   23    22    24    1
   24    22    25    1
   25    25    26    1
   26    25    27    1
   27    27    28    1
   28    25    29    1
   29    29    30    1
   30    29    31    1
   31    31    32    1
   32     3    33    1
   33    29    33    1
   34    33    34    1
   35    33    35    1
   36    35    36    1
   37    22    37    1
   38    35    37    1
   39    35    38    1
   40    38    39    1
   41    38    40    1
   42    38    41    1
   43    41    42    1
   44    43    44    1
   45    43    45    1
   46    43    46    1
   47    46    47    1
   48    46    48    1
   49    48    49    1
   50    46    50    1
   51    50    51    1
   52    50    52    1
   53    52    53    1
   54    24    54    1
   55    50    54    1
   56    54    55    1
   57    54    56    1
   58    56    57    1
   59    43    58    1
   60    56    58    1
   61    56    59    1
   62    59    60    1
   63    59    61    1
   64    59    62    1
   65    62    63    1
   66    64    65    1
   67    64    66    1
   68    64    67    1
   69    67    68    1
   70    67    69    1
   71    69    70    1
   72    67    71    1
   73    71    72    1
   74    71    73    1
   75    73    74    1
   76    45    75    1
   77    71    75    1
   78    75    76    1
   79    75    77    1
   80    77    78    1
   81    64    79    1
   82    77    79    1
   83    77    80    1
   84    80    81    1
   85    80    82    1
   86    80    83    1
   87    83    84    1
   88    85    86    1
   89    85    87    1
   90    85    88    1
   91    88    89    1
   92    88    90    1
   93    90    91    1
   94    88    92    1
   95    92    93    1
   96    92    94    1
   97    94    95    1
   98    66    96    1
   99    92    96    1
  100    96    97    1
  101    96    98    1
  102    98    99    1
  103    85   100    1
  104    98   100    1
  105    98   101    1
  106   101   102    1
  107   101   103    1
  108   101   104    1
  109   104   105    1
  110   106   107    1
  111    12   108    1
  112   106   108    1
  113   106   109    1
  114   109   110    1
  115   109   111    1
  116   111   112    1
  117   109   113    1
  118   113   114    1
  119   113   115    1
  120   115   116    1
  121    87   117    1
  122   113   117    1
  123   117   118    1
  124   117   119    1
  125   119   120    1
  126   106   121    1
  127   119   121    1
  128   119   122    1
  129   122   123    1
  130   122   124    1
  131   122   125    1
  132   125   126    1
  133   127   128    1
  134   127   129    2
  135   127   130    1
  136   130   131    1
  137   130   132    1
  138   130   133    1
  139   133   134    1
  140   133   135    1
  141   133   136    1
  142   136   137    1
  143   136   138    1
  144   136   139    1
@<TRIPOS>SUBSTRUCTURE
       1 MOL1            1 RESIDUE      1      MOL     
       2 MOL1          139 RESIDUE      1      MOL     
@<SCITEGIC>MOL_PROPERTY
feprocess Rank
SciTegic.value.IntegerValue
64

@<SCITEGIC>MOL_PROPERTY
Conf_Id
SciTegic.value.IntegerValue
800

@<SCITEGIC>MOL_PROPERTY
Probability
SciTegic.value.DoubleValue
0.00

@<SCITEGIC>MOL_PROPERTY
G
SciTegic.value.DoubleValue
490.480

@<SCITEGIC>MOL_PROPERTY
E
SciTegic.value.DoubleValue
313.077

@<SCITEGIC>MOL_PROPERTY
-TS
SciTegic.value.DoubleValue
177.403

@<SCITEGIC>MOL_PROPERTY
U+W
SciTegic.value.DoubleValue
190.565

@<SCITEGIC>MOL_PROPERTY
U
SciTegic.value.DoubleValue
264.017

@<SCITEGIC>MOL_PROPERTY
W
SciTegic.value.DoubleValue
-73.456

@<SCITEGIC>MOL_PROPERTY
W(PB)
SciTegic.value.DoubleValue
-79.401

@<SCITEGIC>MOL_PROPERTY
W(SA)
SciTegic.value.DoubleValue
5.945

@<SCITEGIC>MOL_PROPERTY
Valence
SciTegic.value.DoubleValue
151.796

@<SCITEGIC>MOL_PROPERTY
Coulomb
SciTegic.value.DoubleValue
133.113

@<SCITEGIC>MOL_PROPERTY
VdW
SciTegic.value.DoubleValue
-20.891

@<SCITEGIC>MOL_PROPERTY
VdW6
SciTegic.value.DoubleValue
-173.933

@<SCITEGIC>MOL_PROPERTY
VdW12
SciTegic.value.DoubleValue
153.042

@<SCITEGIC>MOL_PROPERTY
Bond
SciTegic.value.DoubleValue
5.069

@<SCITEGIC>MOL_PROPERTY
Angle
SciTegic.value.DoubleValue
16.066

@<SCITEGIC>MOL_PROPERTY
Pdih
SciTegic.value.DoubleValue
130.633

@<SCITEGIC>MOL_PROPERTY
Idih
SciTegic.value.DoubleValue
0.028

@<SCITEGIC>MOL_PROPERTY
Tether
SciTegic.value.DoubleValue
0.000

@<TRIPOS>MOLECULE
CD_guest-6_fast_vm2_rndm.mol2 : feprocess host+ligand conformer 65
         139         144           2
SMALL
USER_CHARGES
 
@<TRIPOS>ATOM
       1    C1      16.523216   15.553590   20.057139 C.3        1 MOL1         0.2972
       2    H1      15.586846   15.462047   19.492286 H          1 MOL1         0.0751
       3    O1      16.632929   16.846744   20.680634 O.3        1 MOL1        -0.3740
       4    C2      16.634493   14.438967   21.133085 C.3        1 MOL1         0.1003
       5    H2      16.582069   13.481547   20.598710 H          1 MOL1         0.0783
       6    O2      15.551833   14.498070   22.074978 O.3        1 MOL1        -0.5519
       7    H3      15.612885   15.376606   22.529780 H          1 MOL1         0.3769
       8    C3      17.997327   14.485488   21.871341 C.3        1 MOL1         0.1053
       9    H4      18.016104   15.379103   22.511518 H          1 MOL1         0.0783
      10    O3      18.119216   13.300361   22.665999 O.3        1 MOL1        -0.5519
      11    H5      17.317539   13.283606   23.231898 H          1 MOL1         0.3769
      12    C4      19.186182   14.576134   20.877337 C.3        1 MOL1         0.1018
      13    H6      19.321195   13.594651   20.404583 H          1 MOL1         0.0783
      14    C5      18.947919   15.639744   19.770056 C.3        1 MOL1         0.1043
      15    H7      18.969347   16.632516   20.237504 H          1 MOL1         0.0783
      16    O4      17.650594   15.409954   19.167747 O.3        1 MOL1        -0.3740
      17    C6      20.008159   15.652841   18.638417 C.3        1 MOL1         0.0138
      18    H8      20.794205   16.368072   18.908742 H          1 MOL1         0.0794
      19    H9      19.538824   16.040450   17.724375 H          1 MOL1         0.0794
      20    O5      20.583612   14.364087   18.384047 O.3        1 MOL1        -0.5486
      21    H10     21.062797   14.088665   19.199546 H          1 MOL1         0.3769
      22    C7      14.588369   20.282377   21.630045 C.3        1 MOL1         0.2972
      23    H11     13.880889   21.088296   21.862867 H          1 MOL1         0.0751
      24    O6      15.934439   20.774909   21.459587 O.3        1 MOL1        -0.3740
      25    C8      14.586125   19.214265   22.753341 C.3        1 MOL1         0.1003
      26    H12     13.600017   18.732460   22.754255 H          1 MOL1         0.0783
      27    O7      14.803609   19.822630   24.034658 O.3        1 MOL1        -0.5519
      28    H13     15.425328   20.577609   23.899754 H          1 MOL1         0.3769
      29    C9      15.641657   18.126319   22.436554 C.3        1 MOL1         0.1053
      30    H14     16.628022   18.605324   22.438743 H          1 MOL1         0.0783
      31    O8      15.627921   17.087381   23.421762 O.3        1 MOL1        -0.5519
      32    H15     16.361971   17.344253   24.045000 H          1 MOL1         0.3769
      33    C10     15.407966   17.520329   21.029667 C.3        1 MOL1         0.1018
      34    H16     14.557103   16.828592   21.083635 H          1 MOL1         0.0783
      35    C11     15.151953   18.602192   19.937446 C.3        1 MOL1         0.1043
      36    H17     16.112634   19.085707   19.716337 H          1 MOL1         0.0783
      37    O9      14.216082   19.608353   20.409735 O.3        1 MOL1        -0.3740
      38    C12     14.617882   18.027469   18.603691 C.3        1 MOL1         0.0138
      39    H18     15.431584   17.479980   18.109216 H          1 MOL1         0.0794
      40    H19     14.343374   18.864340   17.947571 H          1 MOL1         0.0794
      41    O10     13.494997   17.158766   18.799016 O.3        1 MOL1        -0.5486
      42    H20     13.157991   16.903050   17.912623 H          1 MOL1         0.3769
      43    C13     18.388086   24.096170   21.577014 C.3        1 MOL1         0.2972
      44    H21     18.824443   25.102983   21.554805 H          1 MOL1         0.0751
      45    O11     19.399277   23.077141   21.700388 O.3        1 MOL1        -0.3740
      46    C14     17.428898   23.969034   22.783283 C.3        1 MOL1         0.1003
      47    H22     16.628188   24.707575   22.646806 H          1 MOL1         0.0783
      48    O12     18.119103   24.243144   24.012952 O.3        1 MOL1        -0.5519
      49    H23     19.075493   24.037705   23.859645 H          1 MOL1         0.3769
      50    C15     16.781245   22.566072   22.825446 C.3        1 MOL1         0.1053
      51    H24     17.567859   21.830779   23.046384 H          1 MOL1         0.0783
      52    O13     15.796092   22.547887   23.860290 O.3        1 MOL1        -0.5519
      53    H25     16.225742   22.994541   24.624489 H          1 MOL1         0.3769
      54    C16     16.138512   22.198719   21.462564 C.3        1 MOL1         0.1018
      55    H26     15.198781   22.752599   21.342986 H          1 MOL1         0.0783
      56    C17     17.079103   22.502819   20.261901 C.3        1 MOL1         0.1043
      57    H27     17.897625   21.773878   20.285157 H          1 MOL1         0.0783
      58    O14     17.634735   23.838484   20.372919 O.3        1 MOL1        -0.3740
      59    C18     16.396578   22.358617   18.879384 C.3        1 MOL1         0.0138
      60    H28     16.248788   21.290510   18.671711 H          1 MOL1         0.0794
      61    H29     17.080145   22.745535   18.111936 H          1 MOL1         0.0794
      62    O15     15.139751   23.041925   18.807132 O.3        1 MOL1        -0.5486
      63    H30     14.474504   22.481933   19.261872 H          1 MOL1         0.3769
      64    C19     23.553833   22.658766   21.273699 C.3        1 MOL1         0.2972
      65    H31     24.603594   22.880230   21.043245 H          1 MOL1         0.0751
      66    O16     23.384791   21.297498   21.709081 O.3        1 MOL1        -0.3740
      67    C20     23.070340   23.570576   22.430176 C.3        1 MOL1         0.1003
      68    H32     23.218799   24.611729   22.115516 H          1 MOL1         0.0783
      69    O17     23.840398   23.317667   23.616663 O.3        1 MOL1        -0.5519
      70    H33     24.057298   22.352664   23.613170 H          1 MOL1         0.3769
      71    C21     21.561835   23.366102   22.711919 C.3        1 MOL1         0.1053
      72    H34     21.416968   22.353659   23.114622 H          1 MOL1         0.0783
      73    O18     21.118987   24.339013   23.663997 O.3        1 MOL1        -0.5519
      74    H35     21.801514   24.331058   24.371815 H          1 MOL1         0.3769
      75    C22     20.745151   23.489335   21.404467 C.3        1 MOL1         0.1018
      76    H36     20.791015   24.529851   21.056721 H          1 MOL1         0.0783
      77    C23     21.313752   22.562223   20.298086 C.3        1 MOL1         0.1043
      78    H37     21.212928   21.522225   20.633373 H          1 MOL1         0.0783
      79    O19     22.717900   22.875956   20.113947 O.3        1 MOL1        -0.3740
      80    C24     20.591596   22.668952   18.929997 C.3        1 MOL1         0.0138
      81    H38     19.740880   21.975716   18.932768 H          1 MOL1         0.0794
      82    H39     21.277632   22.327943   18.143569 H          1 MOL1         0.0794
      83    O20     20.128161   23.992065   18.636500 O.3        1 MOL1        -0.5486
      84    H40     19.300761   24.127350   19.154510 H          1 MOL1         0.3769
      85    C25     25.098017   17.515679   21.270856 C.3        1 MOL1         0.2972
      86    H41     25.762205   16.671453   21.044777 H          1 MOL1         0.0751
      87    O21     23.788738   17.075850   21.667778 O.3        1 MOL1        -0.3740
      88    C26     25.665114   18.383575   22.423974 C.3        1 MOL1         0.1003
      89    H42     26.645599   18.758172   22.102596 H          1 MOL1         0.0783
      90    O22     25.824206   17.607613   23.623248 O.3        1 MOL1        -0.5519
      91    H43     24.968429   17.135170   23.785629 H          1 MOL1         0.3769
      92    C27     24.748435   19.604116   22.691522 C.3        1 MOL1         0.1053
      93    H44     23.795474   19.235593   23.096787 H          1 MOL1         0.0783
      94    O23     25.373816   20.474651   23.641392 O.3        1 MOL1        -0.5519
      95    H45     25.691850   19.884516   24.360160 H          1 MOL1         0.3769
      96    C28     24.448397   20.382145   21.385944 C.3        1 MOL1         0.1018
      97    H46     25.364506   20.905406   21.082250 H          1 MOL1         0.0783
      98    C29     23.981955   19.436724   20.241620 C.3        1 MOL1         0.1043
      99    H47     23.003807   19.020531   20.513145 H          1 MOL1         0.0783
     100    O24     24.941763   18.358948   20.108468 O.3        1 MOL1        -0.3740
     101    C30     23.806775   20.104242   18.854533 C.3        1 MOL1         0.0138
     102    H48     22.794942   20.524447   18.797424 H          1 MOL1         0.0794
     103    H49     23.870008   19.325257   18.083128 H          1 MOL1         0.0794
     104    O25     24.769101   21.131666   18.594431 O.3        1 MOL1        -0.5486
     105    H50     24.371653   21.972224   18.915294 H          1 MOL1         0.3769
     106    C31     21.255665   13.910722   21.991820 C.3        1 MOL1         0.2972
     107    H51     20.721241   12.958782   22.105743 H          1 MOL1         0.0751
     108    O26     20.357738   14.974611   21.617344 O.3        1 MOL1        -0.3740
     109    C32     21.978654   14.268138   23.315261 C.3        1 MOL1         0.1003
     110    H52     22.737342   13.494176   23.488608 H          1 MOL1         0.0783
     111    O27     21.069834   14.283732   24.424658 O.3        1 MOL1        -0.5519
     112    H53     20.434375   15.037387   24.262885 H          1 MOL1         0.3769
     113    C33     22.702185   15.625414   23.189766 C.3        1 MOL1         0.1053
     114    H54     21.935366   16.402863   23.087590 H          1 MOL1         0.0783
     115    O28     23.480308   15.874948   24.365881 O.3        1 MOL1        -0.5519
     116    H55     22.865274   15.701593   25.113168 H          1 MOL1         0.3769
     117    C34     23.616575   15.675234   21.942132 C.3        1 MOL1         0.1018
     118    H56     24.565761   15.178106   22.182212 H          1 MOL1         0.0783
     119    C35     22.977013   15.049530   20.668614 C.3        1 MOL1         0.1043
     120    H57     22.260552   15.783300   20.286384 H          1 MOL1         0.0783
     121    O29     22.267920   13.816381   20.966008 O.3        1 MOL1        -0.3740
     122    C36     23.991809   14.773088   19.533447 C.3        1 MOL1         0.0138
     123    H58     24.321395   15.734500   19.117086 H          1 MOL1         0.0794
     124    H59     23.479808   14.229780   18.727872 H          1 MOL1         0.0794
     125    O30     25.125371   14.027860   19.994217 O.3        1 MOL1        -0.5486
     126    H60     25.684293   13.821799   19.213272 H          1 MOL1         0.3769
     127    C1      19.177667   17.756553   24.110448 C.2        1 MOL1         0.6021
     128    O1      18.055742   18.073926   24.456406 O.co2      1 MOL1        -0.6904
     129    O2      19.595089   16.616529   24.162558 O.co2      1 MOL1        -0.6904
     130    C2      20.157035   18.859821   23.707864 C.3        1 MOL1        -0.2102
     131    H1      21.068623   18.706926   24.297274 H          1 MOL1         0.0687
     132    H2      19.741071   19.826679   24.015949 H          1 MOL1         0.0687
     133    C3      20.528935   18.896026   22.201692 C.3        1 MOL1        -0.1974
     134    H3      21.381735   19.571905   22.073850 H          1 MOL1         0.0689
     135    H4      20.856360   17.902429   21.870206 H          1 MOL1         0.0689
     136    C4      19.371264   19.380927   21.309718 C.3        1 MOL1        -0.2987
     137    H5      19.005031   20.355328   21.651773 H          1 MOL1         0.0700
     138    H6      19.693938   19.475571   20.265708 H          1 MOL1         0.0700
     139    H7      18.536645   18.672875   21.343475 H          1 MOL1         0.0700
@<TRIPOS>BOND
    1     1     2    1
    2     1     3    1
    3     1     4    1
    4     4     5    1
    5     4     6    1
    6     6     7    1
    7     4     8    1
    8     8     9    1
    9     8    10    1
   10    10    11    1
   11     8    12    1
   12    12    13    1
   13    12    14    1
   14    14    15    1
   15     1    16    1
   16    14    16    1
   17    14    17    1
   18    17    18    1
   19    17    19    1
   20    17    20    1
   21    20    21    1
   22    22    23    1
   23    22    24    1
   24    22    25    1
   25    25    26    1
   26    25    27    1
   27    27    28    1
   28    25    29    1
   29    29    30    1
   30    29    31    1
   31    31    32    1
   32     3    33    1
   33    29    33    1
   34    33    34    1
   35    33    35    1
   36    35    36    1
   37    22    37    1
   38    35    37    1
   39    35    38    1
   40    38    39    1
   41    38    40    1
   42    38    41    1
   43    41    42    1
   44    43    44    1
   45    43    45    1
   46    43    46    1
   47    46    47    1
   48    46    48    1
   49    48    49    1
   50    46    50    1
   51    50    51    1
   52    50    52    1
   53    52    53    1
   54    24    54    1
   55    50    54    1
   56    54    55    1
   57    54    56    1
   58    56    57    1
   59    43    58    1
   60    56    58    1
   61    56    59    1
   62    59    60    1
   63    59    61    1
   64    59    62    1
   65    62    63    1
   66    64    65    1
   67    64    66    1
   68    64    67    1
   69    67    68    1
   70    67    69    1
   71    69    70    1
   72    67    71    1
   73    71    72    1
   74    71    73    1
   75    73    74    1
   76    45    75    1
   77    71    75    1
   78    75    76    1
   79    75    77    1
   80    77    78    1
   81    64    79    1
   82    77    79    1
   83    77    80    1
   84    80    81    1
   85    80    82    1
   86    80    83    1
   87    83    84    1
   88    85    86    1
   89    85    87    1
   90    85    88    1
   91    88    89    1
   92    88    90    1
   93    90    91    1
   94    88    92    1
   95    92    93    1
   96    92    94    1
   97    94    95    1
   98    66    96    1
   99    92    96    1
  100    96    97    1
  101    96    98    1
  102    98    99    1
  103    85   100    1
  104    98   100    1
  105    98   101    1
  106   101   102    1
  107   101   103    1
  108   101   104    1
  109   104   105    1
  110   106   107    1
  111    12   108    1
  112   106   108    1
  113   106   109    1
  114   109   110    1
  115   109   111    1
  116   111   112    1
  117   109   113    1
  118   113   114    1
  119   113   115    1
  120   115   116    1
  121    87   117    1
  122   113   117    1
  123   117   118    1
  124   117   119    1
  125   119   120    1
  126   106   121    1
  127   119   121    1
  128   119   122    1
  129   122   123    1
  130   122   124    1
  131   122   125    1
  132   125   126    1
  133   127   128    1
  134   127   129    2
  135   127   130    1
  136   130   131    1
  137   130   132    1
  138   130   133    1
  139   133   134    1
  140   133   135    1
  141   133   136    1
  142   136   137    1
  143   136   138    1
  144   136   139    1
@<TRIPOS>SUBSTRUCTURE
       1 MOL1            1 RESIDUE      1      MOL     
       2 MOL1          139 RESIDUE      1      MOL     
@<SCITEGIC>MOL_PROPERTY
feprocess Rank
SciTegic.value.IntegerValue
65

@<SCITEGIC>MOL_PROPERTY
Conf_Id
SciTegic.value.IntegerValue
936

@<SCITEGIC>MOL_PROPERTY
Probability
SciTegic.value.DoubleValue
0.00

@<SCITEGIC>MOL_PROPERTY
G
SciTegic.value.DoubleValue
490.512

@<SCITEGIC>MOL_PROPERTY
E
SciTegic.value.DoubleValue
314.537

@<SCITEGIC>MOL_PROPERTY
-TS
SciTegic.value.DoubleValue
175.975

@<SCITEGIC>MOL_PROPERTY
U+W
SciTegic.value.DoubleValue
192.026

@<SCITEGIC>MOL_PROPERTY
U
SciTegic.value.DoubleValue
268.521

@<SCITEGIC>MOL_PROPERTY
W
SciTegic.value.DoubleValue
-76.495

@<SCITEGIC>MOL_PROPERTY
W(PB)
SciTegic.value.DoubleValue
-82.438

@<SCITEGIC>MOL_PROPERTY
W(SA)
SciTegic.value.DoubleValue
5.942

@<SCITEGIC>MOL_PROPERTY
Valence
SciTegic.value.DoubleValue
154.451

@<SCITEGIC>MOL_PROPERTY
Coulomb
SciTegic.value.DoubleValue
136.290

@<SCITEGIC>MOL_PROPERTY
VdW
SciTegic.value.DoubleValue
-22.220

@<SCITEGIC>MOL_PROPERTY
VdW6
SciTegic.value.DoubleValue
-173.984

@<SCITEGIC>MOL_PROPERTY
VdW12
SciTegic.value.DoubleValue
151.764

@<SCITEGIC>MOL_PROPERTY
Bond
SciTegic.value.DoubleValue
4.945

@<SCITEGIC>MOL_PROPERTY
Angle
SciTegic.value.DoubleValue
14.571

@<SCITEGIC>MOL_PROPERTY
Pdih
SciTegic.value.DoubleValue
134.914

@<SCITEGIC>MOL_PROPERTY
Idih
SciTegic.value.DoubleValue
0.021

@<SCITEGIC>MOL_PROPERTY
Tether
SciTegic.value.DoubleValue
0.000

@<TRIPOS>MOLECULE
CD_guest-6_fast_vm2_rndm.mol2 : feprocess host+ligand conformer 66
         139         144           2
SMALL
USER_CHARGES
 
@<TRIPOS>ATOM
       1    C1      16.178856   15.029834   21.096747 C.3        1 MOL1         0.2972
       2    H1      15.103337   14.912808   20.913152 H          1 MOL1         0.0751
       3    O1      16.519496   16.385970   21.444955 O.3        1 MOL1        -0.3740
       4    C2      16.610663   14.111970   22.261675 C.3        1 MOL1         0.1003
       5    H2      16.399670   13.078152   21.958789 H          1 MOL1         0.0783
       6    O2      15.856963   14.420403   23.445184 O.3        1 MOL1        -0.5519
       7    H3      15.728764   15.402303   23.455398 H          1 MOL1         0.3769
       8    C3      18.129370   14.224973   22.535631 C.3        1 MOL1         0.1053
       9    H4      18.322248   15.208451   22.987012 H          1 MOL1         0.0783
      10    O3      18.498898   13.182697   23.444227 O.3        1 MOL1        -0.5519
      11    H5      17.923777   13.309253   24.229508 H          1 MOL1         0.3769
      12    C4      18.975134   14.115179   21.236283 C.3        1 MOL1         0.1018
      13    H6      19.089331   13.056705   20.971383 H          1 MOL1         0.0783
      14    C5      18.365063   14.881298   20.027825 C.3        1 MOL1         0.1043
      15    H7      18.539085   15.949818   20.188873 H          1 MOL1         0.0783
      16    O4      16.937514   14.651398   19.930837 O.3        1 MOL1        -0.3740
      17    C6      19.020800   14.530682   18.669523 C.3        1 MOL1         0.0138
      18    H8      20.030203   14.961974   18.646890 H          1 MOL1         0.0794
      19    H9      18.444710   15.015686   17.870374 H          1 MOL1         0.0794
      20    O5      19.092095   13.119282   18.434025 O.3        1 MOL1        -0.5486
      21    H10     19.804608   12.759601   19.004719 H          1 MOL1         0.3769
      22    C7      14.862713   20.242715   21.156064 C.3        1 MOL1         0.2972
      23    H11     14.140453   21.044218   20.955849 H          1 MOL1         0.0751
      24    O6      16.130492   20.776245   21.581365 O.3        1 MOL1        -0.3740
      25    C8      14.324685   19.337616   22.294841 C.3        1 MOL1         0.1003
      26    H12     13.336938   18.973289   21.984103 H          1 MOL1         0.0783
      27    O7      14.187544   20.096549   23.506506 O.3        1 MOL1        -0.5519
      28    H13     14.951797   20.722590   23.531030 H          1 MOL1         0.3769
      29    C9      15.232606   18.104121   22.524849 C.3        1 MOL1         0.1053
      30    H14     16.190741   18.446112   22.941389 H          1 MOL1         0.0783
      31    O8      14.588967   17.207298   23.437791 O.3        1 MOL1        -0.5519
      32    H15     14.347230   17.763359   24.211050 H          1 MOL1         0.3769
      33    C10     15.512608   17.380909   21.187039 C.3        1 MOL1         0.1018
      34    H16     14.575327   16.934734   20.829482 H          1 MOL1         0.0783
      35    C11     16.044567   18.372960   20.119384 C.3        1 MOL1         0.1043
      36    H17     16.995617   18.786559   20.478654 H          1 MOL1         0.0783
      37    O9      15.078302   19.443961   19.970820 O.3        1 MOL1        -0.3740
      38    C12     16.314405   17.750852   18.725144 C.3        1 MOL1         0.0138
      39    H18     17.328140   17.330461   18.723513 H          1 MOL1         0.0794
      40    H19     16.300336   18.551951   17.974730 H          1 MOL1         0.0794
      41    O10     15.373617   16.732056   18.368980 O.3        1 MOL1        -0.5486
      42    H20     15.700429   15.894239   18.770679 H          1 MOL1         0.3769
      43    C13     18.535200   24.163083   21.131594 C.3        1 MOL1         0.2972
      44    H21     18.929851   25.160405   20.898029 H          1 MOL1         0.0751
      45    O11     19.571442   23.263723   21.562099 O.3        1 MOL1        -0.3740
      46    C14     17.481283   24.230988   22.265955 C.3        1 MOL1         0.1003
      47    H22     16.667640   24.881565   21.919966 H          1 MOL1         0.0783
      48    O12     18.050429   24.782697   23.464811 O.3        1 MOL1        -0.5519
      49    H23     18.900902   24.303729   23.635537 H          1 MOL1         0.3769
      50    C15     16.886203   22.827787   22.547053 C.3        1 MOL1         0.1053
      51    H24     17.676019   22.196986   22.979285 H          1 MOL1         0.0783
      52    O13     15.801830   22.950411   23.474301 O.3        1 MOL1        -0.5519
      53    H25     16.143779   23.524208   24.195077 H          1 MOL1         0.3769
      54    C16     16.388702   22.153554   21.243326 C.3        1 MOL1         0.1018
      55    H26     15.478570   22.674612   20.918766 H          1 MOL1         0.0783
      56    C17     17.454819   22.218044   20.110513 C.3        1 MOL1         0.1043
      57    H27     18.305650   21.589186   20.396273 H          1 MOL1         0.0783
      58    O14     17.902849   23.588209   19.967486 O.3        1 MOL1        -0.3740
      59    C18     16.986856   21.717263   18.721369 C.3        1 MOL1         0.0138
      60    H28     17.151069   20.634044   18.671711 H          1 MOL1         0.0794
      61    H29     17.628806   22.169673   17.953843 H          1 MOL1         0.0794
      62    O15     15.612793   22.009127   18.445858 O.3        1 MOL1        -0.5486
      63    H30     15.092988   21.250491   18.796624 H          1 MOL1         0.3769
      64    C19     23.612767   22.765673   21.925372 C.3        1 MOL1         0.2972
      65    H31     24.702783   22.836248   22.035109 H          1 MOL1         0.0751
      66    O16     23.189898   21.412782   21.669567 O.3        1 MOL1        -0.3740
      67    C20     22.922898   23.251299   23.221311 C.3        1 MOL1         0.1003
      68    H32     23.185014   24.307817   23.363320 H          1 MOL1         0.0783
      69    O17     23.382060   22.489359   24.349290 O.3        1 MOL1        -0.5519
      70    H33     23.757372   21.648109   23.990466 H          1 MOL1         0.3769
      71    C21     21.387247   23.149570   23.087364 C.3        1 MOL1         0.1053
      72    H34     21.125605   22.085475   23.043696 H          1 MOL1         0.0783
      73    O18     20.763599   23.748791   24.228065 O.3        1 MOL1        -0.5519
      74    H35     21.249282   23.384044   25.001210 H          1 MOL1         0.3769
      75    C22     20.874031   23.826733   21.792485 C.3        1 MOL1         0.1018
      76    H36     20.834964   24.911667   21.957246 H          1 MOL1         0.0783
      77    C23     21.733545   23.497137   20.537688 C.3        1 MOL1         0.1043
      78    H37     21.496871   22.467903   20.242090 H          1 MOL1         0.0783
      79    O19     23.151329   23.588436   20.834602 O.3        1 MOL1        -0.3740
      80    C24     21.429759   24.401439   19.319371 C.3        1 MOL1         0.0138
      81    H38     20.438367   24.138051   18.926936 H          1 MOL1         0.0794
      82    H39     22.160385   24.182638   18.528989 H          1 MOL1         0.0794
      83    O20     21.464489   25.793092   19.658981 O.3        1 MOL1        -0.5486
      84    H40     21.336285   26.305172   18.830792 H          1 MOL1         0.3769
      85    C25     24.771597   17.718094   20.522041 C.3        1 MOL1         0.2972
      86    H41     25.401730   16.923532   20.102414 H          1 MOL1         0.0751
      87    O21     23.478972   17.208737   20.909965 O.3        1 MOL1        -0.3740
      88    C26     25.468048   18.409870   21.730494 C.3        1 MOL1         0.1003
      89    H42     26.395698   18.855546   21.348451 H          1 MOL1         0.0783
      90    O22     25.804709   17.484539   22.774158 O.3        1 MOL1        -0.5519
      91    H43     24.949021   17.145187   23.139868 H          1 MOL1         0.3769
      92    C27     24.589016   19.557869   22.284414 C.3        1 MOL1         0.1053
      93    H44     23.667476   19.122482   22.694738 H          1 MOL1         0.0783
      94    O23     25.297642   20.259127   23.312326 O.3        1 MOL1        -0.5519
      95    H45     25.706021   19.558040   23.867545 H          1 MOL1         0.3769
      96    C28     24.201726   20.534866   21.149039 C.3        1 MOL1         0.1018
      97    H46     25.099895   21.083167   20.835343 H          1 MOL1         0.0783
      98    C29     23.612275   19.790399   19.920902 C.3        1 MOL1         0.1043
      99    H47     22.653304   19.346120   20.215857 H          1 MOL1         0.0783
     100    O24     24.534641   18.741185   19.526935 O.3        1 MOL1        -0.3740
     101    C30     23.327308   20.693068   18.691996 C.3        1 MOL1         0.0138
     102    H48     22.296202   21.060526   18.764431 H          1 MOL1         0.0794
     103    H49     23.377507   20.075088   17.785636 H          1 MOL1         0.0794
     104    O25     24.226540   21.803833   18.580288 O.3        1 MOL1        -0.5486
     105    H50     23.998394   22.437468   19.300078 H          1 MOL1         0.3769
     106    C31     21.295347   13.893131   22.010226 C.3        1 MOL1         0.2972
     107    H51     20.907363   12.920258   22.338032 H          1 MOL1         0.0751
     108    O26     20.249015   14.738665   21.491638 O.3        1 MOL1        -0.3740
     109    C32     22.015360   14.605821   23.183220 C.3        1 MOL1         0.1003
     110    H52     22.883830   13.988253   23.446038 H          1 MOL1         0.0783
     111    O27     21.175936   14.727917   24.340553 O.3        1 MOL1        -0.5519
     112    H53     20.525696   15.461703   24.158540 H          1 MOL1         0.3769
     113    C33     22.535969   15.989008   22.736472 C.3        1 MOL1         0.1053
     114    H54     21.667812   16.615368   22.494366 H          1 MOL1         0.0783
     115    O28     23.279788   16.579321   23.808172 O.3        1 MOL1        -0.5519
     116    H55     22.672225   16.540628   24.580803 H          1 MOL1         0.3769
     117    C34     23.412392   15.878886   21.463360 C.3        1 MOL1         0.1018
     118    H56     24.401673   15.495740   21.745001 H          1 MOL1         0.0783
     119    C35     22.778942   14.961966   20.375288 C.3        1 MOL1         0.1043
     120    H57     21.942779   15.510696   19.922928 H          1 MOL1         0.0783
     121    O29     22.274127   13.730460   20.960156 O.3        1 MOL1        -0.3740
     122    C36     23.754216   14.598758   19.230299 C.3        1 MOL1         0.0138
     123    H58     23.931191   15.498591   18.625823 H          1 MOL1         0.0794
     124    H59     23.269467   13.858882   18.579311 H          1 MOL1         0.0794
     125    O30     25.001048   14.090318   19.720903 O.3        1 MOL1        -0.5486
     126    H60     25.533658   13.807750   18.945545 H          1 MOL1         0.3769
     127    C1      19.364641   18.230694   23.959191 C.2        1 MOL1         0.6021
     128    O1      18.311232   18.658269   24.390009 O.co2      1 MOL1        -0.6904
     129    O2      19.726337   17.074975   24.076376 O.co2      1 MOL1        -0.6904
     130    C2      20.314563   19.217130   23.279633 C.3        1 MOL1        -0.2102
     131    H1      21.310803   18.766745   23.216948 H          1 MOL1         0.0687
     132    H2      20.402736   20.085177   23.942120 H          1 MOL1         0.0687
     133    C3      19.847182   19.680742   21.877025 C.3        1 MOL1        -0.1974
     134    H3      18.848494   20.124802   21.972697 H          1 MOL1         0.0689
     135    H4      20.517493   20.465816   21.506137 H          1 MOL1         0.0689
     136    C4      19.803140   18.527178   20.857083 C.3        1 MOL1        -0.2987
     137    H5      19.101602   17.757587   21.198259 H          1 MOL1         0.0700
     138    H6      19.475544   18.885277   19.873424 H          1 MOL1         0.0700
     139    H7      20.788582   18.059376   20.744777 H          1 MOL1         0.0700
@<TRIPOS>BOND
    1     1     2    1
    2     1     3    1
    3     1     4    1
    4     4     5    1
    5     4     6    1
    6     6     7    1
    7     4     8    1
    8     8     9    1
    9     8    10    1
   10    10    11    1
   11     8    12    1
   12    12    13    1
   13    12    14    1
   14    14    15    1
   15     1    16    1
   16    14    16    1
   17    14    17    1
   18    17    18    1
   19    17    19    1
   20    17    20    1
   21    20    21    1
   22    22    23    1
   23    22    24    1
   24    22    25    1
   25    25    26    1
   26    25    27    1
   27    27    28    1
   28    25    29    1
   29    29    30    1
   30    29    31    1
   31    31    32    1
   32     3    33    1
   33    29    33    1
   34    33    34    1
   35    33    35    1
   36    35    36    1
   37    22    37    1
   38    35    37    1
   39    35    38    1
   40    38    39    1
   41    38    40    1
   42    38    41    1
   43    41    42    1
   44    43    44    1
   45    43    45    1
   46    43    46    1
   47    46    47    1
   48    46    48    1
   49    48    49    1
   50    46    50    1
   51    50    51    1
   52    50    52    1
   53    52    53    1
   54    24    54    1
   55    50    54    1
   56    54    55    1
   57    54    56    1
   58    56    57    1
   59    43    58    1
   60    56    58    1
   61    56    59    1
   62    59    60    1
   63    59    61    1
   64    59    62    1
   65    62    63    1
   66    64    65    1
   67    64    66    1
   68    64    67    1
   69    67    68    1
   70    67    69    1
   71    69    70    1
   72    67    71    1
   73    71    72    1
   74    71    73    1
   75    73    74    1
   76    45    75    1
   77    71    75    1
   78    75    76    1
   79    75    77    1
   80    77    78    1
   81    64    79    1
   82    77    79    1
   83    77    80    1
   84    80    81    1
   85    80    82    1
   86    80    83    1
   87    83    84    1
   88    85    86    1
   89    85    87    1
   90    85    88    1
   91    88    89    1
   92    88    90    1
   93    90    91    1
   94    88    92    1
   95    92    93    1
   96    92    94    1
   97    94    95    1
   98    66    96    1
   99    92    96    1
  100    96    97    1
  101    96    98    1
  102    98    99    1
  103    85   100    1
  104    98   100    1
  105    98   101    1
  106   101   102    1
  107   101   103    1
  108   101   104    1
  109   104   105    1
  110   106   107    1
  111    12   108    1
  112   106   108    1
  113   106   109    1
  114   109   110    1
  115   109   111    1
  116   111   112    1
  117   109   113    1
  118   113   114    1
  119   113   115    1
  120   115   116    1
  121    87   117    1
  122   113   117    1
  123   117   118    1
  124   117   119    1
  125   119   120    1
  126   106   121    1
  127   119   121    1
  128   119   122    1
  129   122   123    1
  130   122   124    1
  131   122   125    1
  132   125   126    1
  133   127   128    1
  134   127   129    2
  135   127   130    1
  136   130   131    1
  137   130   132    1
  138   130   133    1
  139   133   134    1
  140   133   135    1
  141   133   136    1
  142   136   137    1
  143   136   138    1
  144   136   139    1
@<TRIPOS>SUBSTRUCTURE
       1 MOL1            1 RESIDUE      1      MOL     
       2 MOL1          139 RESIDUE      1      MOL     
@<SCITEGIC>MOL_PROPERTY
feprocess Rank
SciTegic.value.IntegerValue
66

@<SCITEGIC>MOL_PROPERTY
Conf_Id
SciTegic.value.IntegerValue
811

@<SCITEGIC>MOL_PROPERTY
Probability
SciTegic.value.DoubleValue
0.00

@<SCITEGIC>MOL_PROPERTY
G
SciTegic.value.DoubleValue
490.803

@<SCITEGIC>MOL_PROPERTY
E
SciTegic.value.DoubleValue
316.251

@<SCITEGIC>MOL_PROPERTY
-TS
SciTegic.value.DoubleValue
174.552

@<SCITEGIC>MOL_PROPERTY
U+W
SciTegic.value.DoubleValue
193.740

@<SCITEGIC>MOL_PROPERTY
U
SciTegic.value.DoubleValue
271.697

@<SCITEGIC>MOL_PROPERTY
W
SciTegic.value.DoubleValue
-77.957

@<SCITEGIC>MOL_PROPERTY
W(PB)
SciTegic.value.DoubleValue
-83.922

@<SCITEGIC>MOL_PROPERTY
W(SA)
SciTegic.value.DoubleValue
5.964

@<SCITEGIC>MOL_PROPERTY
Valence
SciTegic.value.DoubleValue
152.833

@<SCITEGIC>MOL_PROPERTY
Coulomb
SciTegic.value.DoubleValue
142.539

@<SCITEGIC>MOL_PROPERTY
VdW
SciTegic.value.DoubleValue
-23.674

@<SCITEGIC>MOL_PROPERTY
VdW6
SciTegic.value.DoubleValue
-172.937

@<SCITEGIC>MOL_PROPERTY
VdW12
SciTegic.value.DoubleValue
149.263

@<SCITEGIC>MOL_PROPERTY
Bond
SciTegic.value.DoubleValue
4.703

@<SCITEGIC>MOL_PROPERTY
Angle
SciTegic.value.DoubleValue
13.928

@<SCITEGIC>MOL_PROPERTY
Pdih
SciTegic.value.DoubleValue
134.198

@<SCITEGIC>MOL_PROPERTY
Idih
SciTegic.value.DoubleValue
0.004

@<SCITEGIC>MOL_PROPERTY
Tether
SciTegic.value.DoubleValue
0.000

@<TRIPOS>MOLECULE
CD_guest-6_fast_vm2_rndm.mol2 : feprocess host+ligand conformer 67
         139         144           2
SMALL
USER_CHARGES
 
@<TRIPOS>ATOM
       1    C1      16.243211   15.364511   20.458793 C.3        1 MOL1         0.2972
       2    H1      15.237108   15.293072   20.025970 H          1 MOL1         0.0751
       3    O1      16.423982   16.581976   21.201404 O.3        1 MOL1        -0.3740
       4    C2      16.507089   14.198237   21.443673 C.3        1 MOL1         0.1003
       5    H2      16.397658   13.259631   20.885158 H          1 MOL1         0.0783
       6    O2      15.561335   14.225228   22.526052 O.3        1 MOL1        -0.5519
       7    H3      15.524163   15.158739   22.855711 H          1 MOL1         0.3769
       8    C3      17.952707   14.267809   21.996192 C.3        1 MOL1         0.1053
       9    H4      18.031520   15.157325   22.637109 H          1 MOL1         0.0783
      10    O3      18.228965   13.092418   22.766327 O.3        1 MOL1        -0.5519
      11    H5      17.445545   12.976693   23.348480 H          1 MOL1         0.3769
      12    C4      18.990561   14.408322   20.854802 C.3        1 MOL1         0.1018
      13    H6      19.046803   13.452240   20.318105 H          1 MOL1         0.0783
      14    C5      18.608098   15.539235   19.855730 C.3        1 MOL1         0.1043
      15    H7      18.674070   16.505249   20.371632 H          1 MOL1         0.0783
      16    O4      17.245082   15.315388   19.420220 O.3        1 MOL1        -0.3740
      17    C6      19.502977   15.649950   18.595245 C.3        1 MOL1         0.0138
      18    H8      20.337828   16.325116   18.818188 H          1 MOL1         0.0794
      19    H9      18.921257   16.131644   17.798171 H          1 MOL1         0.0794
      20    O5      20.006751   14.386380   18.145280 O.3        1 MOL1        -0.5486
      21    H10     20.785606   14.178446   18.711735 H          1 MOL1         0.3769
      22    C7      14.692869   20.290424   21.784650 C.3        1 MOL1         0.2972
      23    H11     14.007009   21.139865   21.897040 H          1 MOL1         0.0751
      24    O6      16.067876   20.704187   21.884946 O.3        1 MOL1        -0.3740
      25    C8      14.427907   19.256897   22.905417 C.3        1 MOL1         0.1003
      26    H12     13.388455   18.917630   22.808005 H          1 MOL1         0.0783
      27    O7      14.613884   19.865736   24.193214 O.3        1 MOL1        -0.5519
      28    H13     15.294172   20.572533   24.073788 H          1 MOL1         0.3769
      29    C9      15.351834   18.027318   22.748511 C.3        1 MOL1         0.1053
      30    H14     16.383501   18.350548   22.943909 H          1 MOL1         0.0783
      31    O8      14.972624   17.016385   23.690214 O.3        1 MOL1        -0.5519
      32    H15     14.891933   17.486986   24.549330 H          1 MOL1         0.3769
      33    C10     15.287006   17.451993   21.313739 C.3        1 MOL1         0.1018
      34    H16     14.339604   16.909318   21.196792 H          1 MOL1         0.0783
      35    C11     15.417834   18.552474   20.224052 C.3        1 MOL1         0.1043
      36    H17     16.451621   18.921359   20.248266 H          1 MOL1         0.0783
      37    O9      14.505728   19.645288   20.508639 O.3        1 MOL1        -0.3740
      38    C12     15.140798   18.055179   18.785345 C.3        1 MOL1         0.0138
      39    H18     15.987290   17.435062   18.461854 H          1 MOL1         0.0794
      40    H19     15.104814   18.924623   18.115493 H          1 MOL1         0.0794
      41    O10     13.921041   17.307187   18.696891 O.3        1 MOL1        -0.5486
      42    H20     13.778460   17.082095   17.751876 H          1 MOL1         0.3769
      43    C13     18.480119   24.066098   21.313085 C.3        1 MOL1         0.2972
      44    H21     18.834883   25.082346   21.098490 H          1 MOL1         0.0751
      45    O11     19.573564   23.173308   21.593780 O.3        1 MOL1        -0.3740
      46    C14     17.564365   24.087233   22.561364 C.3        1 MOL1         0.1003
      47    H22     16.725338   24.762128   22.347718 H          1 MOL1         0.0783
      48    O12     18.290684   24.575019   23.700784 O.3        1 MOL1        -0.5519
      49    H23     19.237819   24.334873   23.554079 H          1 MOL1         0.3769
      50    C15     16.988461   22.680450   22.847178 C.3        1 MOL1         0.1053
      51    H24     17.816754   22.022775   23.145922 H          1 MOL1         0.0783
      52    O13     16.027122   22.761527   23.905490 O.3        1 MOL1        -0.5519
      53    H25     16.458666   23.306487   24.600589 H          1 MOL1         0.3769
      54    C16     16.332364   22.084684   21.578964 C.3        1 MOL1         0.1018
      55    H26     15.412844   22.645382   21.365512 H          1 MOL1         0.0783
      56    C17     17.280817   22.164462   20.348965 C.3        1 MOL1         0.1043
      57    H27     18.140817   21.511511   20.540555 H          1 MOL1         0.0783
      58    O14     17.736314   23.534009   20.195932 O.3        1 MOL1        -0.3740
      59    C18     16.662949   21.710715   19.001699 C.3        1 MOL1         0.0138
      60    H28     16.819784   20.630636   18.893131 H          1 MOL1         0.0794
      61    H29     17.218572   22.188854   18.184300 H          1 MOL1         0.0794
      62    O15     15.267614   22.013573   18.888830 O.3        1 MOL1        -0.5486
      63    H30     14.786916   21.307762   19.381160 H          1 MOL1         0.3769
      64    C19     23.616056   22.593997   20.806283 C.3        1 MOL1         0.2972
      65    H31     24.653052   22.665354   20.453746 H          1 MOL1         0.0751
      66    O16     23.357479   21.345128   21.472393 O.3        1 MOL1        -0.3740
      67    C20     23.291639   23.721930   21.817922 C.3        1 MOL1         0.1003
      68    H32     23.441208   24.681022   21.305359 H          1 MOL1         0.0783
      69    O17     24.161242   23.649694   22.960029 O.3        1 MOL1        -0.5519
      70    H33     24.152680   22.710177   23.275040 H          1 MOL1         0.3769
      71    C21     21.811189   23.638246   22.266736 C.3        1 MOL1         0.1053
      72    H34     21.686924   22.722844   22.862194 H          1 MOL1         0.0783
      73    O18     21.485015   24.780231   23.066588 O.3        1 MOL1        -0.5519
      74    H35     22.229606   24.870324   23.702004 H          1 MOL1         0.3769
      75    C22     20.851823   23.552814   21.053008 C.3        1 MOL1         0.1018
      76    H36     20.821536   24.536211   20.565752 H          1 MOL1         0.0783
      77    C23     21.304644   22.480193   20.020990 C.3        1 MOL1         0.1043
      78    H37     21.200358   21.492171   20.480846 H          1 MOL1         0.0783
      79    O19     22.697184   22.710983   19.698340 O.3        1 MOL1        -0.3740
      80    C24     20.496805   22.435736   18.699126 C.3        1 MOL1         0.0138
      81    H38     19.652776   21.746793   18.829620 H          1 MOL1         0.0794
      82    H39     21.133833   22.000666   17.917601 H          1 MOL1         0.0794
      83    O20     20.016198   23.720315   18.285798 O.3        1 MOL1        -0.5486
      84    H40     19.195927   23.892865   18.803689 H          1 MOL1         0.3769
      85    C25     25.042266   17.632940   22.168948 C.3        1 MOL1         0.2972
      86    H41     25.720594   16.786437   22.336319 H          1 MOL1         0.0751
      87    O21     23.668721   17.206310   22.119559 O.3        1 MOL1        -0.3740
      88    C26     25.179419   18.646526   23.330256 C.3        1 MOL1         0.1003
      89    H42     26.220461   18.994333   23.348712 H          1 MOL1         0.0783
      90    O22     24.864795   18.012150   24.579980 O.3        1 MOL1        -0.5519
      91    H43     24.218252   17.294238   24.373992 H          1 MOL1         0.3769
      92    C27     24.266411   19.872899   23.100854 C.3        1 MOL1         0.1053
      93    H44     23.222013   19.540043   23.177646 H          1 MOL1         0.0783
      94    O23     24.534859   20.864617   24.098958 O.3        1 MOL1        -0.5519
      95    H45     24.537947   20.373101   24.950359 H          1 MOL1         0.3769
      96    C28     24.480533   20.477903   21.693166 C.3        1 MOL1         0.1018
      97    H46     25.432675   21.024958   21.686414 H          1 MOL1         0.0783
      98    C29     24.468454   19.398432   20.575712 C.3        1 MOL1         0.1043
      99    H47     23.439777   19.024906   20.488229 H          1 MOL1         0.0783
     100    O24     25.353149   18.303459   20.930159 O.3        1 MOL1        -0.3740
     101    C30     24.884524   19.928584   19.183047 C.3        1 MOL1         0.0138
     102    H48     24.073088   20.558082   18.793709 H          1 MOL1         0.0794
     103    H49     24.986998   19.075185   18.499513 H          1 MOL1         0.0794
     104    O25     26.105802   20.677458   19.232782 O.3        1 MOL1        -0.5486
     105    H50     26.342838   20.921160   18.311612 H          1 MOL1         0.3769
     106    C31     21.339556   13.858048   21.247302 C.3        1 MOL1         0.2972
     107    H51     20.997371   12.853725   20.966479 H          1 MOL1         0.0751
     108    O26     20.232802   14.741888   21.498283 O.3        1 MOL1        -0.3740
     109    C32     22.174655   13.781074   22.548667 C.3        1 MOL1         0.1003
     110    H52     23.028784   13.118329   22.358204 H          1 MOL1         0.0783
     111    O27     21.379148   13.240398   23.615537 O.3        1 MOL1        -0.5519
     112    H53     20.444673   13.500214   23.426903 H          1 MOL1         0.3769
     113    C33     22.723922   15.174604   22.935356 C.3        1 MOL1         0.1053
     114    H54     21.875435   15.812941   23.217223 H          1 MOL1         0.0783
     115    O28     23.620298   15.046092   24.044544 O.3        1 MOL1        -0.5519
     116    H55     23.149293   14.470892   24.687590 H          1 MOL1         0.3769
     117    C34     23.451591   15.835638   21.740024 C.3        1 MOL1         0.1018
     118    H56     24.393753   15.299282   21.566756 H          1 MOL1         0.0783
     119    C35     22.593763   15.798896   20.443089 C.3        1 MOL1         0.1043
     120    H57     21.720545   16.445693   20.596028 H          1 MOL1         0.0783
     121    O29     22.154675   14.435812   20.205665 O.3        1 MOL1        -0.3740
     122    C36     23.309070   16.298838   19.161288 C.3        1 MOL1         0.0138
     123    H58     23.152796   17.380388   19.072993 H          1 MOL1         0.0794
     124    H59     22.820991   15.843716   18.289418 H          1 MOL1         0.0794
     125    O30     24.711783   16.008565   19.145202 O.3        1 MOL1        -0.5486
     126    H60     25.146380   16.689079   19.710601 H          1 MOL1         0.3769
     127    C1      20.002172   19.054467   20.180124 C.2        1 MOL1         0.6021
     128    O1      18.928884   19.236507   19.638218 O.co2      1 MOL1        -0.6904
     129    O2      21.010894   18.715485   19.591917 O.co2      1 MOL1        -0.6904
     130    C2      20.104872   19.317196   21.680744 C.3        1 MOL1        -0.2102
     131    H1      19.509026   20.206536   21.914325 H          1 MOL1         0.0687
     132    H2      21.148809   19.555905   21.913803 H          1 MOL1         0.0687
     133    C3      19.634704   18.126072   22.545689 C.3        1 MOL1        -0.1974
     134    H3      18.590845   17.889104   22.304568 H          1 MOL1         0.0689
     135    H4      20.230956   17.241076   22.296825 H          1 MOL1         0.0689
     136    C4      19.764238   18.426154   24.051226 C.3        1 MOL1        -0.2987
     137    H5      19.154691   19.295422   24.330555 H          1 MOL1         0.0700
     138    H6      19.425656   17.567708   24.645430 H          1 MOL1         0.0700
     139    H7      20.807890   18.635830   24.319850 H          1 MOL1         0.0700
@<TRIPOS>BOND
    1     1     2    1
    2     1     3    1
    3     1     4    1
    4     4     5    1
    5     4     6    1
    6     6     7    1
    7     4     8    1
    8     8     9    1
    9     8    10    1
   10    10    11    1
   11     8    12    1
   12    12    13    1
   13    12    14    1
   14    14    15    1
   15     1    16    1
   16    14    16    1
   17    14    17    1
   18    17    18    1
   19    17    19    1
   20    17    20    1
   21    20    21    1
   22    22    23    1
   23    22    24    1
   24    22    25    1
   25    25    26    1
   26    25    27    1
   27    27    28    1
   28    25    29    1
   29    29    30    1
   30    29    31    1
   31    31    32    1
   32     3    33    1
   33    29    33    1
   34    33    34    1
   35    33    35    1
   36    35    36    1
   37    22    37    1
   38    35    37    1
   39    35    38    1
   40    38    39    1
   41    38    40    1
   42    38    41    1
   43    41    42    1
   44    43    44    1
   45    43    45    1
   46    43    46    1
   47    46    47    1
   48    46    48    1
   49    48    49    1
   50    46    50    1
   51    50    51    1
   52    50    52    1
   53    52    53    1
   54    24    54    1
   55    50    54    1
   56    54    55    1
   57    54    56    1
   58    56    57    1
   59    43    58    1
   60    56    58    1
   61    56    59    1
   62    59    60    1
   63    59    61    1
   64    59    62    1
   65    62    63    1
   66    64    65    1
   67    64    66    1
   68    64    67    1
   69    67    68    1
   70    67    69    1
   71    69    70    1
   72    67    71    1
   73    71    72    1
   74    71    73    1
   75    73    74    1
   76    45    75    1
   77    71    75    1
   78    75    76    1
   79    75    77    1
   80    77    78    1
   81    64    79    1
   82    77    79    1
   83    77    80    1
   84    80    81    1
   85    80    82    1
   86    80    83    1
   87    83    84    1
   88    85    86    1
   89    85    87    1
   90    85    88    1
   91    88    89    1
   92    88    90    1
   93    90    91    1
   94    88    92    1
   95    92    93    1
   96    92    94    1
   97    94    95    1
   98    66    96    1
   99    92    96    1
  100    96    97    1
  101    96    98    1
  102    98    99    1
  103    85   100    1
  104    98   100    1
  105    98   101    1
  106   101   102    1
  107   101   103    1
  108   101   104    1
  109   104   105    1
  110   106   107    1
  111    12   108    1
  112   106   108    1
  113   106   109    1
  114   109   110    1
  115   109   111    1
  116   111   112    1
  117   109   113    1
  118   113   114    1
  119   113   115    1
  120   115   116    1
  121    87   117    1
  122   113   117    1
  123   117   118    1
  124   117   119    1
  125   119   120    1
  126   106   121    1
  127   119   121    1
  128   119   122    1
  129   122   123    1
  130   122   124    1
  131   122   125    1
  132   125   126    1
  133   127   128    1
  134   127   129    2
  135   127   130    1
  136   130   131    1
  137   130   132    1
  138   130   133    1
  139   133   134    1
  140   133   135    1
  141   133   136    1
  142   136   137    1
  143   136   138    1
  144   136   139    1
@<TRIPOS>SUBSTRUCTURE
       1 MOL1            1 RESIDUE      1      MOL     
       2 MOL1          139 RESIDUE      1      MOL     
@<SCITEGIC>MOL_PROPERTY
feprocess Rank
SciTegic.value.IntegerValue
67

@<SCITEGIC>MOL_PROPERTY
Conf_Id
SciTegic.value.IntegerValue
293

@<SCITEGIC>MOL_PROPERTY
Probability
SciTegic.value.DoubleValue
0.00

@<SCITEGIC>MOL_PROPERTY
G
SciTegic.value.DoubleValue
490.850

@<SCITEGIC>MOL_PROPERTY
E
SciTegic.value.DoubleValue
316.583

@<SCITEGIC>MOL_PROPERTY
-TS
SciTegic.value.DoubleValue
174.267

@<SCITEGIC>MOL_PROPERTY
U+W
SciTegic.value.DoubleValue
194.071

@<SCITEGIC>MOL_PROPERTY
U
SciTegic.value.DoubleValue
261.706

@<SCITEGIC>MOL_PROPERTY
W
SciTegic.value.DoubleValue
-67.634

@<SCITEGIC>MOL_PROPERTY
W(PB)
SciTegic.value.DoubleValue
-73.487

@<SCITEGIC>MOL_PROPERTY
W(SA)
SciTegic.value.DoubleValue
5.853

@<SCITEGIC>MOL_PROPERTY
Valence
SciTegic.value.DoubleValue
153.333

@<SCITEGIC>MOL_PROPERTY
Coulomb
SciTegic.value.DoubleValue
135.556

@<SCITEGIC>MOL_PROPERTY
VdW
SciTegic.value.DoubleValue
-27.184

@<SCITEGIC>MOL_PROPERTY
VdW6
SciTegic.value.DoubleValue
-176.853

@<SCITEGIC>MOL_PROPERTY
VdW12
SciTegic.value.DoubleValue
149.669

@<SCITEGIC>MOL_PROPERTY
Bond
SciTegic.value.DoubleValue
4.299

@<SCITEGIC>MOL_PROPERTY
Angle
SciTegic.value.DoubleValue
12.647

@<SCITEGIC>MOL_PROPERTY
Pdih
SciTegic.value.DoubleValue
136.383

@<SCITEGIC>MOL_PROPERTY
Idih
SciTegic.value.DoubleValue
0.004

@<SCITEGIC>MOL_PROPERTY
Tether
SciTegic.value.DoubleValue
0.000

@<TRIPOS>MOLECULE
CD_guest-6_fast_vm2_rndm.mol2 : feprocess host+ligand conformer 68
         139         144           2
SMALL
USER_CHARGES
 
@<TRIPOS>ATOM
       1    C1      16.160813   14.989514   21.148106 C.3        1 MOL1         0.2972
       2    H1      15.109992   14.813745   20.885062 H          1 MOL1         0.0751
       3    O1      16.402702   16.365215   21.488718 O.3        1 MOL1        -0.3740
       4    C2      16.546089   14.145429   22.387336 C.3        1 MOL1         0.1003
       5    H2      16.395221   13.088405   22.132461 H          1 MOL1         0.0783
       6    O2      15.709704   14.492871   23.502920 O.3        1 MOL1        -0.5519
       7    H3      15.513589   15.459005   23.420910 H          1 MOL1         0.3769
       8    C3      18.038234   14.347089   22.747182 C.3        1 MOL1         0.1053
       9    H4      18.173433   15.382903   23.088723 H          1 MOL1         0.0783
      10    O3      18.403269   13.442441   23.794736 O.3        1 MOL1        -0.5519
      11    H5      17.685053   13.520665   24.461189 H          1 MOL1         0.3769
      12    C4      18.946586   14.123326   21.513265 C.3        1 MOL1         0.1018
      13    H6      18.962310   13.049540   21.285130 H          1 MOL1         0.0783
      14    C5      18.444477   14.910993   20.267955 C.3        1 MOL1         0.1043
      15    H7      18.574286   15.981483   20.469238 H          1 MOL1         0.0783
      16    O4      17.035853   14.631078   20.056493 O.3        1 MOL1        -0.3740
      17    C6      19.199540   14.610286   18.947099 C.3        1 MOL1         0.0138
      18    H8      20.047029   15.301021   18.863945 H          1 MOL1         0.0794
      19    H9      18.530551   14.830706   18.104552 H          1 MOL1         0.0794
      20    O5      19.669899   13.261210   18.855883 O.3        1 MOL1        -0.5486
      21    H10     20.501417   13.214269   19.382691 H          1 MOL1         0.3769
      22    C7      15.005492   20.238530   20.865934 C.3        1 MOL1         0.2972
      23    H11     14.388378   21.101811   20.585113 H          1 MOL1         0.0751
      24    O6      16.290142   20.653454   21.376596 O.3        1 MOL1        -0.3740
      25    C8      14.274229   19.420536   21.959646 C.3        1 MOL1         0.1003
      26    H12     13.305187   19.112386   21.546040 H          1 MOL1         0.0783
      27    O7      14.053997   20.224751   23.129417 O.3        1 MOL1        -0.5519
      28    H13     14.676826   20.991672   23.071254 H          1 MOL1         0.3769
      29    C9      15.064124   18.142454   22.321463 C.3        1 MOL1         0.1053
      30    H14     15.993586   18.448156   22.819481 H          1 MOL1         0.0783
      31    O8      14.286203   17.330272   23.207784 O.3        1 MOL1        -0.5519
      32    H15     13.948110   17.952916   23.889457 H          1 MOL1         0.3769
      33    C10     15.434672   17.334883   21.054248 C.3        1 MOL1         0.1018
      34    H16     14.524885   16.866358   20.656640 H          1 MOL1         0.0783
      35    C11     16.087001   18.236890   19.968004 C.3        1 MOL1         0.1043
      36    H17     17.051616   18.583169   20.355301 H          1 MOL1         0.0783
      37    O9      15.235998   19.385355   19.722818 O.3        1 MOL1        -0.3740
      38    C12     16.375862   17.539650   18.614223 C.3        1 MOL1         0.0138
      39    H18     17.364906   17.068315   18.669661 H          1 MOL1         0.0794
      40    H19     16.434307   18.306662   17.830346 H          1 MOL1         0.0794
      41    O10     15.396820   16.555500   18.265802 O.3        1 MOL1        -0.5486
      42    H20     15.672113   15.718334   18.703488 H          1 MOL1         0.3769
      43    C13     18.616819   24.195154   21.256186 C.3        1 MOL1         0.2972
      44    H21     18.926069   25.202882   20.949877 H          1 MOL1         0.0751
      45    O11     19.579329   23.615886   22.157608 O.3        1 MOL1        -0.3740
      46    C14     17.252419   24.265649   21.996729 C.3        1 MOL1         0.1003
      47    H22     16.547440   24.785547   21.335000 H          1 MOL1         0.0783
      48    O12     17.388711   25.004969   23.219333 O.3        1 MOL1        -0.5519
      49    H23     18.212648   24.672632   23.644942 H          1 MOL1         0.3769
      50    C15     16.678051   22.856510   22.291744 C.3        1 MOL1         0.1053
      51    H24     17.318716   22.369343   23.039958 H          1 MOL1         0.0783
      52    O13     15.343426   22.980214   22.795265 O.3        1 MOL1        -0.5519
      53    H25     15.389710   23.686686   23.477476 H          1 MOL1         0.3769
      54    C16     16.685233   21.990459   21.011975 C.3        1 MOL1         0.1018
      55    H26     15.994621   22.434127   20.282245 H          1 MOL1         0.0783
      56    C17     18.103244   21.958461   20.389600 C.3        1 MOL1         0.1043
      57    H27     18.801142   21.524639   21.117349 H          1 MOL1         0.0783
      58    O14     18.484494   23.324838   20.107702 O.3        1 MOL1        -0.3740
      59    C18     18.218332   21.137788   19.079274 C.3        1 MOL1         0.0138
      60    H28     18.386006   20.085501   19.339576 H          1 MOL1         0.0794
      61    H29     19.108207   21.476516   18.531883 H          1 MOL1         0.0794
      62    O15     17.059343   21.246468   18.244659 O.3        1 MOL1        -0.5486
      63    H30     16.345089   20.714125   18.666265 H          1 MOL1         0.3769
      64    C19     23.619335   22.848014   21.998453 C.3        1 MOL1         0.2972
      65    H31     24.715878   22.846671   21.969128 H          1 MOL1         0.0751
      66    O16     23.090354   21.511827   21.883408 O.3        1 MOL1        -0.3740
      67    C20     23.138175   23.519105   23.305532 C.3        1 MOL1         0.1003
      68    H32     23.466067   24.565960   23.264175 H          1 MOL1         0.0783
      69    O17     23.717656   22.906088   24.467301 O.3        1 MOL1        -0.5519
      70    H33     23.423801   21.952866   24.491483 H          1 MOL1         0.3769
      71    C21     21.598522   23.515911   23.387366 C.3        1 MOL1         0.1053
      72    H34     21.270917   22.473397   23.486029 H          1 MOL1         0.0783
      73    O18     21.192681   24.256724   24.543474 O.3        1 MOL1        -0.5519
      74    H35     21.759494   23.919318   25.272432 H          1 MOL1         0.3769
      75    C22     20.939183   24.117786   22.116614 C.3        1 MOL1         0.1018
      76    H36     20.951785   25.210805   22.214221 H          1 MOL1         0.0783
      77    C23     21.643130   23.695417   20.780102 C.3        1 MOL1         0.1043
      78    H37     21.264181   22.703765   20.519003 H          1 MOL1         0.0783
      79    O19     23.089031   23.628906   20.912068 O.3        1 MOL1        -0.3740
      80    C24     21.384728   24.638705   19.574687 C.3        1 MOL1         0.0138
      81    H38     20.384288   24.461435   19.166905 H          1 MOL1         0.0794
      82    H39     22.092611   24.379963   18.775576 H          1 MOL1         0.0794
      83    O20     21.529518   26.019719   19.927059 O.3        1 MOL1        -0.5486
      84    H40     21.446100   26.548126   19.103273 H          1 MOL1         0.3769
      85    C25     24.445242   17.757644   20.528762 C.3        1 MOL1         0.2972
      86    H41     24.952792   16.989155   19.933887 H          1 MOL1         0.0751
      87    O21     23.560019   17.170892   21.499680 O.3        1 MOL1        -0.3740
      88    C26     25.498026   18.617204   21.275217 C.3        1 MOL1         0.1003
      89    H42     26.204727   18.984527   20.519797 H          1 MOL1         0.0783
      90    O22     26.203789   17.812133   22.231911 O.3        1 MOL1        -0.5519
      91    H43     25.510663   17.363109   22.770350 H          1 MOL1         0.3769
      92    C27     24.878194   19.850964   21.981674 C.3        1 MOL1         0.1053
      93    H44     24.336463   19.497905   22.867094 H          1 MOL1         0.0783
      94    O23     25.946208   20.719109   22.375532 O.3        1 MOL1        -0.5519
      95    H45     26.549053   20.162098   22.914301 H          1 MOL1         0.3769
      96    C28     23.872928   20.608061   21.070890 C.3        1 MOL1         0.1018
      97    H46     24.433844   21.150029   20.298257 H          1 MOL1         0.0783
      98    C29     22.890295   19.628205   20.379321 C.3        1 MOL1         0.1043
      99    H47     22.273303   19.157020   21.153083 H          1 MOL1         0.0783
     100    O24     23.657718   18.620480   19.681532 O.3        1 MOL1        -0.3740
     101    C30     21.920062   20.287983   19.370402 C.3        1 MOL1         0.0138
     102    H48     21.066547   20.686809   19.931544 H          1 MOL1         0.0794
     103    H49     21.524237   19.510644   18.703465 H          1 MOL1         0.0794
     104    O25     22.535547   21.330103   18.602305 O.3        1 MOL1        -0.5486
     105    H50     22.861716   22.009507   19.233245 H          1 MOL1         0.3769
     106    C31     21.335032   13.677070   21.808289 C.3        1 MOL1         0.2972
     107    H51     20.974833   12.641740   21.862100 H          1 MOL1         0.0751
     108    O26     20.247100   14.620547   21.882459 O.3        1 MOL1        -0.3740
     109    C32     22.298412   13.953775   22.987269 C.3        1 MOL1         0.1003
     110    H52     23.152274   13.270031   22.899459 H          1 MOL1         0.0783
     111    O27     21.607088   13.704013   24.222251 O.3        1 MOL1        -0.5519
     112    H53     20.679596   14.013380   24.092191 H          1 MOL1         0.3769
     113    C33     22.832365   15.405807   22.911097 C.3        1 MOL1         0.1053
     114    H54     21.977336   16.068108   23.081119 H          1 MOL1         0.0783
     115    O28     23.816762   15.661549   23.919375 O.3        1 MOL1        -0.5519
     116    H55     23.588822   16.572180   24.254239 H          1 MOL1         0.3769
     117    C34     23.429487   15.732372   21.515799 C.3        1 MOL1         0.1018
     118    H56     24.409459   15.244392   21.433099 H          1 MOL1         0.0783
     119    C35     22.497494   15.268127   20.350697 C.3        1 MOL1         0.1043
     120    H57     21.632008   15.942784   20.330631 H          1 MOL1         0.0783
     121    O29     22.043572   13.908244   20.577330 O.3        1 MOL1        -0.3740
     122    C36     23.136520   15.285517   18.939276 C.3        1 MOL1         0.0138
     123    H58     23.191853   16.320861   18.580837 H          1 MOL1         0.0794
     124    H59     22.470546   14.748722   18.250260 H          1 MOL1         0.0794
     125    O30     24.438722   14.687876   18.928170 O.3        1 MOL1        -0.5486
     126    H60     24.734796   14.634265   17.993365 H          1 MOL1         0.3769
     127    C1      22.244218   19.317443   24.461217 C.2        1 MOL1         0.6021
     128    O1      22.744501   18.208401   24.507150 O.co2      1 MOL1        -0.6904
     129    O2      22.792942   20.315642   24.884477 O.co2      1 MOL1        -0.6904
     130    C2      20.890470   19.523085   23.777932 C.3        1 MOL1        -0.2102
     131    H1      21.022944   20.294904   23.013969 H          1 MOL1         0.0687
     132    H2      20.203236   19.930905   24.528080 H          1 MOL1         0.0687
     133    C3      20.265696   18.267173   23.125264 C.3        1 MOL1        -0.1974
     134    H3      20.967148   17.838343   22.400999 H          1 MOL1         0.0689
     135    H4      20.083938   17.502326   23.892798 H          1 MOL1         0.0689
     136    C4      18.953331   18.608361   22.403059 C.3        1 MOL1        -0.2987
     137    H5      19.135863   19.293900   21.568597 H          1 MOL1         0.0700
     138    H6      18.502291   17.696229   22.003852 H          1 MOL1         0.0700
     139    H7      18.235889   19.076887   23.088592 H          1 MOL1         0.0700
@<TRIPOS>BOND
    1     1     2    1
    2     1     3    1
    3     1     4    1
    4     4     5    1
    5     4     6    1
    6     6     7    1
    7     4     8    1
    8     8     9    1
    9     8    10    1
   10    10    11    1
   11     8    12    1
   12    12    13    1
   13    12    14    1
   14    14    15    1
   15     1    16    1
   16    14    16    1
   17    14    17    1
   18    17    18    1
   19    17    19    1
   20    17    20    1
   21    20    21    1
   22    22    23    1
   23    22    24    1
   24    22    25    1
   25    25    26    1
   26    25    27    1
   27    27    28    1
   28    25    29    1
   29    29    30    1
   30    29    31    1
   31    31    32    1
   32     3    33    1
   33    29    33    1
   34    33    34    1
   35    33    35    1
   36    35    36    1
   37    22    37    1
   38    35    37    1
   39    35    38    1
   40    38    39    1
   41    38    40    1
   42    38    41    1
   43    41    42    1
   44    43    44    1
   45    43    45    1
   46    43    46    1
   47    46    47    1
   48    46    48    1
   49    48    49    1
   50    46    50    1
   51    50    51    1
   52    50    52    1
   53    52    53    1
   54    24    54    1
   55    50    54    1
   56    54    55    1
   57    54    56    1
   58    56    57    1
   59    43    58    1
   60    56    58    1
   61    56    59    1
   62    59    60    1
   63    59    61    1
   64    59    62    1
   65    62    63    1
   66    64    65    1
   67    64    66    1
   68    64    67    1
   69    67    68    1
   70    67    69    1
   71    69    70    1
   72    67    71    1
   73    71    72    1
   74    71    73    1
   75    73    74    1
   76    45    75    1
   77    71    75    1
   78    75    76    1
   79    75    77    1
   80    77    78    1
   81    64    79    1
   82    77    79    1
   83    77    80    1
   84    80    81    1
   85    80    82    1
   86    80    83    1
   87    83    84    1
   88    85    86    1
   89    85    87    1
   90    85    88    1
   91    88    89    1
   92    88    90    1
   93    90    91    1
   94    88    92    1
   95    92    93    1
   96    92    94    1
   97    94    95    1
   98    66    96    1
   99    92    96    1
  100    96    97    1
  101    96    98    1
  102    98    99    1
  103    85   100    1
  104    98   100    1
  105    98   101    1
  106   101   102    1
  107   101   103    1
  108   101   104    1
  109   104   105    1
  110   106   107    1
  111    12   108    1
  112   106   108    1
  113   106   109    1
  114   109   110    1
  115   109   111    1
  116   111   112    1
  117   109   113    1
  118   113   114    1
  119   113   115    1
  120   115   116    1
  121    87   117    1
  122   113   117    1
  123   117   118    1
  124   117   119    1
  125   119   120    1
  126   106   121    1
  127   119   121    1
  128   119   122    1
  129   122   123    1
  130   122   124    1
  131   122   125    1
  132   125   126    1
  133   127   128    1
  134   127   129    2
  135   127   130    1
  136   130   131    1
  137   130   132    1
  138   130   133    1
  139   133   134    1
  140   133   135    1
  141   133   136    1
  142   136   137    1
  143   136   138    1
  144   136   139    1
@<TRIPOS>SUBSTRUCTURE
       1 MOL1            1 RESIDUE      1      MOL     
       2 MOL1          139 RESIDUE      1      MOL     
@<SCITEGIC>MOL_PROPERTY
feprocess Rank
SciTegic.value.IntegerValue
68

@<SCITEGIC>MOL_PROPERTY
Conf_Id
SciTegic.value.IntegerValue
93

@<SCITEGIC>MOL_PROPERTY
Probability
SciTegic.value.DoubleValue
0.00

@<SCITEGIC>MOL_PROPERTY
G
SciTegic.value.DoubleValue
490.882

@<SCITEGIC>MOL_PROPERTY
E
SciTegic.value.DoubleValue
314.990

@<SCITEGIC>MOL_PROPERTY
-TS
SciTegic.value.DoubleValue
175.892

@<SCITEGIC>MOL_PROPERTY
U+W
SciTegic.value.DoubleValue
192.479

@<SCITEGIC>MOL_PROPERTY
U
SciTegic.value.DoubleValue
271.237

@<SCITEGIC>MOL_PROPERTY
W
SciTegic.value.DoubleValue
-78.759

@<SCITEGIC>MOL_PROPERTY
W(PB)
SciTegic.value.DoubleValue
-84.590

@<SCITEGIC>MOL_PROPERTY
W(SA)
SciTegic.value.DoubleValue
5.831

@<SCITEGIC>MOL_PROPERTY
Valence
SciTegic.value.DoubleValue
153.269

@<SCITEGIC>MOL_PROPERTY
Coulomb
SciTegic.value.DoubleValue
140.858

@<SCITEGIC>MOL_PROPERTY
VdW
SciTegic.value.DoubleValue
-22.889

@<SCITEGIC>MOL_PROPERTY
VdW6
SciTegic.value.DoubleValue
-175.091

@<SCITEGIC>MOL_PROPERTY
VdW12
SciTegic.value.DoubleValue
152.202

@<SCITEGIC>MOL_PROPERTY
Bond
SciTegic.value.DoubleValue
5.100

@<SCITEGIC>MOL_PROPERTY
Angle
SciTegic.value.DoubleValue
15.657

@<SCITEGIC>MOL_PROPERTY
Pdih
SciTegic.value.DoubleValue
132.504

@<SCITEGIC>MOL_PROPERTY
Idih
SciTegic.value.DoubleValue
0.008

@<SCITEGIC>MOL_PROPERTY
Tether
SciTegic.value.DoubleValue
0.000

@<TRIPOS>MOLECULE
CD_guest-6_fast_vm2_rndm.mol2 : feprocess host+ligand conformer 69
         139         144           2
SMALL
USER_CHARGES
 
@<TRIPOS>ATOM
       1    C1      16.324557   15.259003   21.780379 C.3        1 MOL1         0.2972
       2    H1      15.261557   15.122583   22.018486 H          1 MOL1         0.0751
       3    O1      16.656125   16.647856   21.605064 O.3        1 MOL1        -0.3740
       4    C2      17.196770   14.697857   22.926747 C.3        1 MOL1         0.1003
       5    H2      16.990296   13.622355   23.003047 H          1 MOL1         0.0783
       6    O2      16.867966   15.333387   24.172711 O.3        1 MOL1        -0.5519
       7    H3      16.324702   16.129596   23.952389 H          1 MOL1         0.3769
       8    C3      18.697870   14.877215   22.607252 C.3        1 MOL1         0.1053
       9    H4      18.922235   15.951808   22.612281 H          1 MOL1         0.0783
      10    O3      19.464892   14.224048   23.622776 O.3        1 MOL1        -0.5519
      11    H5      19.059262   14.521733   24.468265 H          1 MOL1         0.3769
      12    C4      19.052013   14.311418   21.206477 C.3        1 MOL1         0.1018
      13    H6      19.100915   13.216083   21.266918 H          1 MOL1         0.0783
      14    C5      18.037686   14.743206   20.108529 C.3        1 MOL1         0.1043
      15    H7      18.209651   15.806760   19.900131 H          1 MOL1         0.0783
      16    O4      16.671247   14.565065   20.564062 O.3        1 MOL1        -0.3740
      17    C6      18.213160   13.985164   18.771238 C.3        1 MOL1         0.0138
      18    H8      19.146817   14.321944   18.300506 H          1 MOL1         0.0794
      19    H9      17.390530   14.263943   18.098927 H          1 MOL1         0.0794
      20    O5      18.247200   12.564610   18.956670 O.3        1 MOL1        -0.5486
      21    H10     18.278385   12.148567   18.067564 H          1 MOL1         0.3769
      22    C7      14.689886   20.315026   21.221057 C.3        1 MOL1         0.2972
      23    H11     13.943706   21.091734   21.011057 H          1 MOL1         0.0751
      24    O6      15.938009   20.882495   21.654842 O.3        1 MOL1        -0.3740
      25    C8      14.197602   19.407462   22.376431 C.3        1 MOL1         0.1003
      26    H12     13.246058   18.956448   22.066321 H          1 MOL1         0.0783
      27    O7      13.993372   20.187951   23.565229 O.3        1 MOL1        -0.5519
      28    H13     14.703203   20.875800   23.572997 H          1 MOL1         0.3769
      29    C9      15.208264   18.266531   22.649002 C.3        1 MOL1         0.1053
      30    H14     16.134998   18.710423   23.038693 H          1 MOL1         0.0783
      31    O8      14.660412   17.361236   23.613172 O.3        1 MOL1        -0.5519
      32    H15     14.283174   17.936172   24.316233 H          1 MOL1         0.3769
      33    C10     15.545869   17.518603   21.337321 C.3        1 MOL1         0.1018
      34    H16     14.659528   16.961247   21.006273 H          1 MOL1         0.0783
      35    C11     15.970653   18.497569   20.211629 C.3        1 MOL1         0.1043
      36    H17     16.905772   18.986315   20.513339 H          1 MOL1         0.0783
      37    O9      14.930578   19.497218   20.053377 O.3        1 MOL1        -0.3740
      38    C12     16.239643   17.819199   18.842904 C.3        1 MOL1         0.0138
      39    H18     17.298345   17.531278   18.806080 H          1 MOL1         0.0794
      40    H19     16.089764   18.560499   18.047223 H          1 MOL1         0.0794
      41    O10     15.417229   16.667508   18.609213 O.3        1 MOL1        -0.5486
      42    H20     15.714251   15.966828   19.234673 H          1 MOL1         0.3769
      43    C13     18.399700   24.192497   21.175337 C.3        1 MOL1         0.2972
      44    H21     18.811093   25.188086   20.965736 H          1 MOL1         0.0751
      45    O11     19.422274   23.272279   21.600825 O.3        1 MOL1        -0.3740
      46    C14     17.361442   24.287030   22.317653 C.3        1 MOL1         0.1003
      47    H22     16.564335   24.967186   21.990472 H          1 MOL1         0.0783
      48    O12     17.978588   24.808164   23.506023 O.3        1 MOL1        -0.5519
      49    H23     18.916318   24.493925   23.498968 H          1 MOL1         0.3769
      50    C15     16.730478   22.903454   22.597130 C.3        1 MOL1         0.1053
      51    H24     17.509995   22.250369   23.014137 H          1 MOL1         0.0783
      52    O13     15.663625   23.046281   23.542209 O.3        1 MOL1        -0.5519
      53    H25     16.032560   23.606458   24.260612 H          1 MOL1         0.3769
      54    C16     16.200367   22.250005   21.297090 C.3        1 MOL1         0.1018
      55    H26     15.288431   22.779275   20.991709 H          1 MOL1         0.0783
      56    C17     17.252040   22.293043   20.147939 C.3        1 MOL1         0.1043
      57    H27     18.083189   21.630000   20.419110 H          1 MOL1         0.0783
      58    O14     17.748632   23.649481   20.007553 O.3        1 MOL1        -0.3740
      59    C18     16.744727   21.823711   18.761158 C.3        1 MOL1         0.0138
      60    H28     16.872448   20.736468   18.694880 H          1 MOL1         0.0794
      61    H29     17.389914   22.260222   17.987441 H          1 MOL1         0.0794
      62    O15     15.376515   22.165825   18.513017 O.3        1 MOL1        -0.5486
      63    H30     14.840978   21.407423   18.836662 H          1 MOL1         0.3769
      64    C19     23.538965   22.630623   21.224966 C.3        1 MOL1         0.2972
      65    H31     24.603867   22.742564   20.984226 H          1 MOL1         0.0751
      66    O16     23.244217   21.326430   21.755312 O.3        1 MOL1        -0.3740
      67    C20     23.106519   23.662077   22.298145 C.3        1 MOL1         0.1003
      68    H32     23.326480   24.662568   21.903775 H          1 MOL1         0.0783
      69    O17     23.837217   23.457684   23.519245 O.3        1 MOL1        -0.5519
      70    H33     23.815472   22.485839   23.710223 H          1 MOL1         0.3769
      71    C21     21.583024   23.573460   22.566891 C.3        1 MOL1         0.1053
      72    H34     21.377873   22.613087   23.060273 H          1 MOL1         0.0783
      73    O18     21.182786   24.651802   23.420599 O.3        1 MOL1        -0.5519
      74    H35     21.844317   24.663061   24.147490 H          1 MOL1         0.3769
      75    C22     20.773401   23.616573   21.247569 C.3        1 MOL1         0.1018
      76    H36     20.845919   24.629288   20.829846 H          1 MOL1         0.0783
      77    C23     21.314519   22.591867   20.211874 C.3        1 MOL1         0.1043
      78    H37     21.157471   21.580515   20.605830 H          1 MOL1         0.0783
      79    O19     22.732171   22.833633   20.044884 O.3        1 MOL1        -0.3740
      80    C24     20.647218   22.633001   18.814364 C.3        1 MOL1         0.0138
      81    H38     19.766696   21.978905   18.830915 H          1 MOL1         0.0794
      82    H39     21.343016   22.196538   18.085538 H          1 MOL1         0.0794
      83    O20     20.263897   23.952699   18.408846 O.3        1 MOL1        -0.5486
      84    H40     19.372759   24.112309   18.796297 H          1 MOL1         0.3769
      85    C25     24.962815   17.553593   22.064363 C.3        1 MOL1         0.2972
      86    H41     25.664832   16.716171   22.168852 H          1 MOL1         0.0751
      87    O21     23.616870   17.080189   21.871438 O.3        1 MOL1        -0.3740
      88    C26     24.989738   18.416362   23.350607 C.3        1 MOL1         0.1003
      89    H42     26.016396   18.781195   23.484683 H          1 MOL1         0.0783
      90    O22     24.613886   17.623430   24.486618 O.3        1 MOL1        -0.5519
      91    H43     23.955710   16.968979   24.156328 H          1 MOL1         0.3769
      92    C27     24.058715   19.643639   23.218284 C.3        1 MOL1         0.1053
      93    H44     23.019924   19.286459   23.173253 H          1 MOL1         0.0783
      94    O23     24.232640   20.502211   24.352252 O.3        1 MOL1        -0.5519
      95    H45     24.184500   19.906398   25.132443 H          1 MOL1         0.3769
      96    C28     24.355732   20.430205   21.921793 C.3        1 MOL1         0.1018
      97    H46     25.303534   20.970078   22.048536 H          1 MOL1         0.0783
      98    C29     24.426644   19.500393   20.679066 C.3        1 MOL1         0.1043
      99    H47     23.413878   19.122130   20.496665 H          1 MOL1         0.0783
     100    O24     25.318753   18.384475   20.939589 O.3        1 MOL1        -0.3740
     101    C30     24.900962   20.204213   19.385270 C.3        1 MOL1         0.0138
     102    H48     24.092889   20.855468   19.026701 H          1 MOL1         0.0794
     103    H49     25.065335   19.442886   18.611358 H          1 MOL1         0.0794
     104    O25     26.096158   20.968180   19.593109 O.3        1 MOL1        -0.5486
     105    H50     26.369559   21.333799   18.723883 H          1 MOL1         0.3769
     106    C31     21.338076   14.005419   20.335644 C.3        1 MOL1         0.2972
     107    H51     20.906295   13.129421   19.834680 H          1 MOL1         0.0751
     108    O26     20.315749   14.892285   20.835800 O.3        1 MOL1        -0.3740
     109    C32     22.275333   13.590105   21.498306 C.3        1 MOL1         0.1003
     110    H52     23.119404   13.045920   21.054836 H          1 MOL1         0.0783
     111    O27     21.617538   12.731742   22.441655 O.3        1 MOL1        -0.5519
     112    H53     20.873818   13.253252   22.836352 H          1 MOL1         0.3769
     113    C33     22.836469   14.850702   22.198573 C.3        1 MOL1         0.1053
     114    H54     22.000598   15.374690   22.683095 H          1 MOL1         0.0783
     115    O28     23.797685   14.460134   23.184782 O.3        1 MOL1        -0.5519
     116    H55     23.380824   13.715491   23.672118 H          1 MOL1         0.3769
     117    C34     23.491396   15.821241   21.180652 C.3        1 MOL1         0.1018
     118    H56     24.468180   15.405617   20.901431 H          1 MOL1         0.0783
     119    C35     22.636172   16.035500   19.891763 C.3        1 MOL1         0.1043
     120    H57     21.777818   16.668104   20.145144 H          1 MOL1         0.0783
     121    O29     22.152218   14.755584   19.410065 O.3        1 MOL1        -0.3740
     122    C36     23.368201   16.736751   18.716919 C.3        1 MOL1         0.0138
     123    H58     23.184422   17.815144   18.782605 H          1 MOL1         0.0794
     124    H59     22.910634   16.405367   17.775388 H          1 MOL1         0.0794
     125    O30     24.778926   16.486401   18.689742 O.3        1 MOL1        -0.5486
     126    H60     25.179842   17.047170   19.394674 H          1 MOL1         0.3769
     127    C1      20.057400   19.153093   19.862189 C.2        1 MOL1         0.6021
     128    O1      21.181495   19.256526   19.411144 O.co2      1 MOL1        -0.6904
     129    O2      19.054790   19.501262   19.268704 O.co2      1 MOL1        -0.6904
     130    C2      19.894103   18.556044   21.257943 C.3        1 MOL1        -0.2102
     131    H1      20.849164   18.113653   21.562486 H          1 MOL1         0.0687
     132    H2      19.167433   17.741485   21.180344 H          1 MOL1         0.0687
     133    C3      19.436936   19.576395   22.327930 C.3        1 MOL1        -0.1974
     134    H3      20.176873   20.383861   22.406781 H          1 MOL1         0.0689
     135    H4      18.491728   20.036431   22.016972 H          1 MOL1         0.0689
     136    C4      19.249818   18.908559   23.704302 C.3        1 MOL1        -0.2987
     137    H5      18.929149   19.646680   24.450462 H          1 MOL1         0.0700
     138    H6      18.487219   18.120570   23.657200 H          1 MOL1         0.0700
     139    H7      20.188512   18.457746   24.051740 H          1 MOL1         0.0700
@<TRIPOS>BOND
    1     1     2    1
    2     1     3    1
    3     1     4    1
    4     4     5    1
    5     4     6    1
    6     6     7    1
    7     4     8    1
    8     8     9    1
    9     8    10    1
   10    10    11    1
   11     8    12    1
   12    12    13    1
   13    12    14    1
   14    14    15    1
   15     1    16    1
   16    14    16    1
   17    14    17    1
   18    17    18    1
   19    17    19    1
   20    17    20    1
   21    20    21    1
   22    22    23    1
   23    22    24    1
   24    22    25    1
   25    25    26    1
   26    25    27    1
   27    27    28    1
   28    25    29    1
   29    29    30    1
   30    29    31    1
   31    31    32    1
   32     3    33    1
   33    29    33    1
   34    33    34    1
   35    33    35    1
   36    35    36    1
   37    22    37    1
   38    35    37    1
   39    35    38    1
   40    38    39    1
   41    38    40    1
   42    38    41    1
   43    41    42    1
   44    43    44    1
   45    43    45    1
   46    43    46    1
   47    46    47    1
   48    46    48    1
   49    48    49    1
   50    46    50    1
   51    50    51    1
   52    50    52    1
   53    52    53    1
   54    24    54    1
   55    50    54    1
   56    54    55    1
   57    54    56    1
   58    56    57    1
   59    43    58    1
   60    56    58    1
   61    56    59    1
   62    59    60    1
   63    59    61    1
   64    59    62    1
   65    62    63    1
   66    64    65    1
   67    64    66    1
   68    64    67    1
   69    67    68    1
   70    67    69    1
   71    69    70    1
   72    67    71    1
   73    71    72    1
   74    71    73    1
   75    73    74    1
   76    45    75    1
   77    71    75    1
   78    75    76    1
   79    75    77    1
   80    77    78    1
   81    64    79    1
   82    77    79    1
   83    77    80    1
   84    80    81    1
   85    80    82    1
   86    80    83    1
   87    83    84    1
   88    85    86    1
   89    85    87    1
   90    85    88    1
   91    88    89    1
   92    88    90    1
   93    90    91    1
   94    88    92    1
   95    92    93    1
   96    92    94    1
   97    94    95    1
   98    66    96    1
   99    92    96    1
  100    96    97    1
  101    96    98    1
  102    98    99    1
  103    85   100    1
  104    98   100    1
  105    98   101    1
  106   101   102    1
  107   101   103    1
  108   101   104    1
  109   104   105    1
  110   106   107    1
  111    12   108    1
  112   106   108    1
  113   106   109    1
  114   109   110    1
  115   109   111    1
  116   111   112    1
  117   109   113    1
  118   113   114    1
  119   113   115    1
  120   115   116    1
  121    87   117    1
  122   113   117    1
  123   117   118    1
  124   117   119    1
  125   119   120    1
  126   106   121    1
  127   119   121    1
  128   119   122    1
  129   122   123    1
  130   122   124    1
  131   122   125    1
  132   125   126    1
  133   127   128    1
  134   127   129    2
  135   127   130    1
  136   130   131    1
  137   130   132    1
  138   130   133    1
  139   133   134    1
  140   133   135    1
  141   133   136    1
  142   136   137    1
  143   136   138    1
  144   136   139    1
@<TRIPOS>SUBSTRUCTURE
       1 MOL1            1 RESIDUE      1      MOL     
       2 MOL1          139 RESIDUE      1      MOL     
@<SCITEGIC>MOL_PROPERTY
feprocess Rank
SciTegic.value.IntegerValue
69

@<SCITEGIC>MOL_PROPERTY
Conf_Id
SciTegic.value.IntegerValue
614

@<SCITEGIC>MOL_PROPERTY
Probability
SciTegic.value.DoubleValue
0.00

@<SCITEGIC>MOL_PROPERTY
G
SciTegic.value.DoubleValue
491.083

@<SCITEGIC>MOL_PROPERTY
E
SciTegic.value.DoubleValue
315.967

@<SCITEGIC>MOL_PROPERTY
-TS
SciTegic.value.DoubleValue
175.116

@<SCITEGIC>MOL_PROPERTY
U+W
SciTegic.value.DoubleValue
193.456

@<SCITEGIC>MOL_PROPERTY
U
SciTegic.value.DoubleValue
263.406

@<SCITEGIC>MOL_PROPERTY
W
SciTegic.value.DoubleValue
-69.950

@<SCITEGIC>MOL_PROPERTY
W(PB)
SciTegic.value.DoubleValue
-75.845

@<SCITEGIC>MOL_PROPERTY
W(SA)
SciTegic.value.DoubleValue
5.896

@<SCITEGIC>MOL_PROPERTY
Valence
SciTegic.value.DoubleValue
153.039

@<SCITEGIC>MOL_PROPERTY
Coulomb
SciTegic.value.DoubleValue
136.744

@<SCITEGIC>MOL_PROPERTY
VdW
SciTegic.value.DoubleValue
-26.377

@<SCITEGIC>MOL_PROPERTY
VdW6
SciTegic.value.DoubleValue
-178.050

@<SCITEGIC>MOL_PROPERTY
VdW12
SciTegic.value.DoubleValue
151.674

@<SCITEGIC>MOL_PROPERTY
Bond
SciTegic.value.DoubleValue
4.462

@<SCITEGIC>MOL_PROPERTY
Angle
SciTegic.value.DoubleValue
13.372

@<SCITEGIC>MOL_PROPERTY
Pdih
SciTegic.value.DoubleValue
135.205

@<SCITEGIC>MOL_PROPERTY
Idih
SciTegic.value.DoubleValue
0.000

@<SCITEGIC>MOL_PROPERTY
Tether
SciTegic.value.DoubleValue
0.000

@<TRIPOS>MOLECULE
CD_guest-6_fast_vm2_rndm.mol2 : feprocess host+ligand conformer 70
         139         144           2
SMALL
USER_CHARGES
 
@<TRIPOS>ATOM
       1    C1      16.043914   15.038713   21.601713 C.3        1 MOL1         0.2972
       2    H1      14.962287   14.858576   21.647295 H          1 MOL1         0.0751
       3    O1      16.359571   16.435840   21.736952 O.3        1 MOL1        -0.3740
       4    C2      16.749702   14.294309   22.759401 C.3        1 MOL1         0.1003
       5    H2      16.562632   13.220229   22.631153 H          1 MOL1         0.0783
       6    O2      16.219385   14.726179   24.023026 O.3        1 MOL1        -0.5519
       7    H3      15.947835   15.670292   23.909290 H          1 MOL1         0.3769
       8    C3      18.277149   14.528829   22.704634 C.3        1 MOL1         0.1053
       9    H4      18.468720   15.587481   22.928739 H          1 MOL1         0.0783
      10    O3      18.925660   13.704296   23.679799 O.3        1 MOL1        -0.5519
      11    H5      18.409336   13.834118   24.506218 H          1 MOL1         0.3769
      12    C4      18.847183   14.221567   21.299023 C.3        1 MOL1         0.1018
      13    H6      18.903394   13.131715   21.177224 H          1 MOL1         0.0783
      14    C5      18.002615   14.849103   20.152872 C.3        1 MOL1         0.1043
      15    H7      18.161074   15.933804   20.178277 H          1 MOL1         0.0783
      16    O4      16.592559   14.568288   20.353929 O.3        1 MOL1        -0.3740
      17    C6      18.400373   14.366857   18.738052 C.3        1 MOL1         0.0138
      18    H8      19.364857   14.821450   18.474574 H          1 MOL1         0.0794
      19    H9      17.660502   14.743844   18.019489 H          1 MOL1         0.0794
      20    O5      18.491236   12.938330   18.658835 O.3        1 MOL1        -0.5486
      21    H10     18.682985   12.704392   17.724691 H          1 MOL1         0.3769
      22    C7      14.758528   20.231328   21.212032 C.3        1 MOL1         0.2972
      23    H11     14.097199   21.084067   21.012096 H          1 MOL1         0.0751
      24    O6      16.107098   20.653884   21.492320 O.3        1 MOL1        -0.3740
      25    C8      14.242808   19.448761   22.444183 C.3        1 MOL1         0.1003
      26    H12     13.232086   19.089561   22.210704 H          1 MOL1         0.0783
      27    O7      14.188081   20.300857   23.599521 O.3        1 MOL1        -0.5519
      28    H13     14.866477   21.010148   23.468499 H          1 MOL1         0.3769
      29    C9      15.136756   18.218558   22.718864 C.3        1 MOL1         0.1053
      30    H14     16.130369   18.575990   23.023440 H          1 MOL1         0.0783
      31    O8      14.563344   17.430907   23.768403 O.3        1 MOL1        -0.5519
      32    H15     14.315159   18.079363   24.464638 H          1 MOL1         0.3769
      33    C10     15.300518   17.360243   21.442222 C.3        1 MOL1         0.1018
      34    H16     14.348322   16.852310   21.240799 H          1 MOL1         0.0783
      35    C11     15.707775   18.213437   20.205712 C.3        1 MOL1         0.1043
      36    H17     16.722587   18.591037   20.372063 H          1 MOL1         0.0783
      37    O9      14.795787   19.335748   20.078994 O.3        1 MOL1        -0.3740
      38    C12     15.737643   17.448456   18.857624 C.3        1 MOL1         0.0138
      39    H18     16.735484   17.011219   18.728305 H          1 MOL1         0.0794
      40    H19     15.605165   18.171751   18.042208 H          1 MOL1         0.0794
      41    O10     14.747864   16.417029   18.769300 O.3        1 MOL1        -0.5486
      42    H20     15.129606   15.626054   19.215127 H          1 MOL1         0.3769
      43    C13     18.549399   24.022128   20.991147 C.3        1 MOL1         0.2972
      44    H21     18.902391   25.022460   20.710335 H          1 MOL1         0.0751
      45    O11     19.598284   23.240606   21.592057 O.3        1 MOL1        -0.3740
      46    C14     17.418382   24.145463   22.042376 C.3        1 MOL1         0.1003
      47    H22     16.619744   24.756376   21.601883 H          1 MOL1         0.0783
      48    O12     17.912187   24.788270   23.228844 O.3        1 MOL1        -0.5519
      49    H23     18.847728   24.488717   23.343452 H          1 MOL1         0.3769
      50    C15     16.827282   22.757551   22.387068 C.3        1 MOL1         0.1053
      51    H24     17.595787   22.173626   22.912742 H          1 MOL1         0.0783
      52    O13     15.679731   22.922667   23.227179 O.3        1 MOL1        -0.5519
      53    H25     15.957578   23.568929   23.914225 H          1 MOL1         0.3769
      54    C16     16.438013   21.996484   21.098387 C.3        1 MOL1         0.1018
      55    H26     15.587147   22.511603   20.633358 H          1 MOL1         0.0783
      56    C17     17.615669   21.951613   20.087039 C.3        1 MOL1         0.1043
      57    H27     18.441758   21.383566   20.534866 H          1 MOL1         0.0783
      58    O14     18.046452   23.313973   19.835780 O.3        1 MOL1        -0.3740
      59    C18     17.281774   21.275365   18.731853 C.3        1 MOL1         0.0138
      60    H28     17.441430   20.194325   18.832419 H          1 MOL1         0.0794
      61    H29     17.997546   21.628797   17.978238 H          1 MOL1         0.0794
      62    O15     15.939742   21.521655   18.294442 O.3        1 MOL1        -0.5486
      63    H30     15.366090   20.876963   18.769122 H          1 MOL1         0.3769
      64    C19     23.761419   22.849739   21.480613 C.3        1 MOL1         0.2972
      65    H31     24.834486   23.024490   21.330036 H          1 MOL1         0.0751
      66    O16     23.498311   21.518027   21.957603 O.3        1 MOL1        -0.3740
      67    C20     23.198142   23.815965   22.552063 C.3        1 MOL1         0.1003
      68    H32     23.387271   24.841707   22.209971 H          1 MOL1         0.0783
      69    O17     23.857013   23.599023   23.811022 O.3        1 MOL1        -0.5519
      70    H33     23.946009   22.619746   23.917678 H          1 MOL1         0.3769
      71    C21     21.667426   23.632063   22.710898 C.3        1 MOL1         0.1053
      72    H34     21.484678   22.643655   23.155375 H          1 MOL1         0.0783
      73    O18     21.149750   24.653525   23.571616 O.3        1 MOL1        -0.5519
      74    H35     21.753454   24.666150   24.347050 H          1 MOL1         0.3769
      75    C22     20.945431   23.682396   21.341858 C.3        1 MOL1         0.1018
      76    H36     20.977184   24.717671   20.977968 H          1 MOL1         0.0783
      77    C23     21.620039   22.743705   20.301528 C.3        1 MOL1         0.1043
      78    H37     21.489448   21.705433   20.630529 H          1 MOL1         0.0783
      79    O19     23.031581   23.061116   20.253564 O.3        1 MOL1        -0.3740
      80    C24     21.061313   22.829759   18.859407 C.3        1 MOL1         0.0138
      81    H38     20.196536   22.159233   18.782958 H          1 MOL1         0.0794
      82    H39     21.820377   22.439278   18.169068 H          1 MOL1         0.0794
      83    O20     20.680091   24.156629   18.477475 O.3        1 MOL1        -0.5486
      84    H40     19.723148   24.237545   18.688780 H          1 MOL1         0.3769
      85    C25     25.007241   17.666541   21.826260 C.3        1 MOL1         0.2972
      86    H41     25.642029   16.771514   21.791398 H          1 MOL1         0.0751
      87    O21     23.611142   17.322205   21.774600 O.3        1 MOL1        -0.3740
      88    C26     25.272379   18.439623   23.139701 C.3        1 MOL1         0.1003
      89    H42     26.331376   18.728656   23.147285 H          1 MOL1         0.0783
      90    O22     24.998903   17.601530   24.273610 O.3        1 MOL1        -0.5519
      91    H43     24.384749   16.895582   23.957718 H          1 MOL1         0.3769
      92    C27     24.423047   19.728833   23.199906 C.3        1 MOL1         0.1053
      93    H44     23.368462   19.436109   23.286996 H          1 MOL1         0.0783
      94    O23     24.804100   20.502141   24.343992 O.3        1 MOL1        -0.5519
      95    H45     24.821898   19.860713   25.088487 H          1 MOL1         0.3769
      96    C28     24.586865   20.578679   21.916442 C.3        1 MOL1         0.1018
      97    H46     25.563145   21.079363   21.955304 H          1 MOL1         0.0783
      98    C29     24.465834   19.730521   20.616489 C.3        1 MOL1         0.1043
      99    H47     23.412544   19.442853   20.508400 H          1 MOL1         0.0783
     100    O24     25.288836   18.538026   20.713276 O.3        1 MOL1        -0.3740
     101    C30     24.880466   20.473727   19.323667 C.3        1 MOL1         0.0138
     102    H48     24.088686   21.182048   19.052737 H          1 MOL1         0.0794
     103    H49     24.944472   19.743622   18.505740 H          1 MOL1         0.0794
     104    O25     26.128896   21.162130   19.472167 O.3        1 MOL1        -0.5486
     105    H50     26.344749   21.575344   18.608077 H          1 MOL1         0.3769
     106    C31     21.194463   14.106440   20.614280 C.3        1 MOL1         0.2972
     107    H51     20.821789   13.184241   20.150130 H          1 MOL1         0.0751
     108    O26     20.146158   14.835514   21.275221 O.3        1 MOL1        -0.3740
     109    C32     22.270686   13.791854   21.685657 C.3        1 MOL1         0.1003
     110    H52     23.084964   13.250308   21.187042 H          1 MOL1         0.0783
     111    O27     21.724981   12.971587   22.732311 O.3        1 MOL1        -0.5519
     112    H53     20.856816   13.370662   22.994475 H          1 MOL1         0.3769
     113    C33     22.854325   15.099573   22.278193 C.3        1 MOL1         0.1053
     114    H54     22.062527   15.601960   22.851546 H          1 MOL1         0.0783
     115    O28     23.953643   14.787376   23.140727 O.3        1 MOL1        -0.5519
     116    H55     23.639765   14.038968   23.695555 H          1 MOL1         0.3769
     117    C34     23.314957   16.059046   21.153578 C.3        1 MOL1         0.1018
     118    H56     24.196808   15.627007   20.662109 H          1 MOL1         0.0783
     119    C35     22.203943   16.271392   20.089389 C.3        1 MOL1         0.1043
     120    H57     21.357777   16.783744   20.562578 H          1 MOL1         0.0783
     121    O29     21.781946   14.969585   19.616340 O.3        1 MOL1        -0.3740
     122    C36     22.620902   17.124692   18.864142 C.3        1 MOL1         0.0138
     123    H58     22.422241   18.179607   19.089416 H          1 MOL1         0.0794
     124    H59     21.968788   16.862654   18.020258 H          1 MOL1         0.0794
     125    O30     23.997311   16.953748   18.499820 O.3        1 MOL1        -0.5486
     126    H60     24.537616   17.402447   19.191257 H          1 MOL1         0.3769
     127    C1      19.609465   18.835789   19.971356 C.2        1 MOL1         0.6021
     128    O1      20.336654   19.723141   19.568702 O.co2      1 MOL1        -0.6904
     129    O2      19.024319   18.064612   19.236909 O.co2      1 MOL1        -0.6904
     130    C2      19.401579   18.662119   21.477706 C.3        1 MOL1        -0.2102
     131    H1      19.303440   17.588562   21.674999 H          1 MOL1         0.0687
     132    H2      18.446063   19.125305   21.743247 H          1 MOL1         0.0687
     133    C3      20.525552   19.253810   22.363358 C.3        1 MOL1        -0.1974
     134    H3      21.495390   18.878213   22.017224 H          1 MOL1         0.0689
     135    H4      20.547450   20.345453   22.248650 H          1 MOL1         0.0689
     136    C4      20.330296   18.894325   23.849052 C.3        1 MOL1        -0.2987
     137    H5      20.350151   17.806211   23.993750 H          1 MOL1         0.0700
     138    H6      21.128922   19.333263   24.460686 H          1 MOL1         0.0700
     139    H7      19.369435   19.273785   24.220189 H          1 MOL1         0.0700
@<TRIPOS>BOND
    1     1     2    1
    2     1     3    1
    3     1     4    1
    4     4     5    1
    5     4     6    1
    6     6     7    1
    7     4     8    1
    8     8     9    1
    9     8    10    1
   10    10    11    1
   11     8    12    1
   12    12    13    1
   13    12    14    1
   14    14    15    1
   15     1    16    1
   16    14    16    1
   17    14    17    1
   18    17    18    1
   19    17    19    1
   20    17    20    1
   21    20    21    1
   22    22    23    1
   23    22    24    1
   24    22    25    1
   25    25    26    1
   26    25    27    1
   27    27    28    1
   28    25    29    1
   29    29    30    1
   30    29    31    1
   31    31    32    1
   32     3    33    1
   33    29    33    1
   34    33    34    1
   35    33    35    1
   36    35    36    1
   37    22    37    1
   38    35    37    1
   39    35    38    1
   40    38    39    1
   41    38    40    1
   42    38    41    1
   43    41    42    1
   44    43    44    1
   45    43    45    1
   46    43    46    1
   47    46    47    1
   48    46    48    1
   49    48    49    1
   50    46    50    1
   51    50    51    1
   52    50    52    1
   53    52    53    1
   54    24    54    1
   55    50    54    1
   56    54    55    1
   57    54    56    1
   58    56    57    1
   59    43    58    1
   60    56    58    1
   61    56    59    1
   62    59    60    1
   63    59    61    1
   64    59    62    1
   65    62    63    1
   66    64    65    1
   67    64    66    1
   68    64    67    1
   69    67    68    1
   70    67    69    1
   71    69    70    1
   72    67    71    1
   73    71    72    1
   74    71    73    1
   75    73    74    1
   76    45    75    1
   77    71    75    1
   78    75    76    1
   79    75    77    1
   80    77    78    1
   81    64    79    1
   82    77    79    1
   83    77    80    1
   84    80    81    1
   85    80    82    1
   86    80    83    1
   87    83    84    1
   88    85    86    1
   89    85    87    1
   90    85    88    1
   91    88    89    1
   92    88    90    1
   93    90    91    1
   94    88    92    1
   95    92    93    1
   96    92    94    1
   97    94    95    1
   98    66    96    1
   99    92    96    1
  100    96    97    1
  101    96    98    1
  102    98    99    1
  103    85   100    1
  104    98   100    1
  105    98   101    1
  106   101   102    1
  107   101   103    1
  108   101   104    1
  109   104   105    1
  110   106   107    1
  111    12   108    1
  112   106   108    1
  113   106   109    1
  114   109   110    1
  115   109   111    1
  116   111   112    1
  117   109   113    1
  118   113   114    1
  119   113   115    1
  120   115   116    1
  121    87   117    1
  122   113   117    1
  123   117   118    1
  124   117   119    1
  125   119   120    1
  126   106   121    1
  127   119   121    1
  128   119   122    1
  129   122   123    1
  130   122   124    1
  131   122   125    1
  132   125   126    1
  133   127   128    1
  134   127   129    2
  135   127   130    1
  136   130   131    1
  137   130   132    1
  138   130   133    1
  139   133   134    1
  140   133   135    1
  141   133   136    1
  142   136   137    1
  143   136   138    1
  144   136   139    1
@<TRIPOS>SUBSTRUCTURE
       1 MOL1            1 RESIDUE      1      MOL     
       2 MOL1          139 RESIDUE      1      MOL     
@<SCITEGIC>MOL_PROPERTY
feprocess Rank
SciTegic.value.IntegerValue
70

@<SCITEGIC>MOL_PROPERTY
Conf_Id
SciTegic.value.IntegerValue
541

@<SCITEGIC>MOL_PROPERTY
Probability
SciTegic.value.DoubleValue
0.00

@<SCITEGIC>MOL_PROPERTY
G
SciTegic.value.DoubleValue
491.131

@<SCITEGIC>MOL_PROPERTY
E
SciTegic.value.DoubleValue
317.355

@<SCITEGIC>MOL_PROPERTY
-TS
SciTegic.value.DoubleValue
173.776

@<SCITEGIC>MOL_PROPERTY
U+W
SciTegic.value.DoubleValue
194.844

@<SCITEGIC>MOL_PROPERTY
U
SciTegic.value.DoubleValue
263.381

@<SCITEGIC>MOL_PROPERTY
W
SciTegic.value.DoubleValue
-68.538

@<SCITEGIC>MOL_PROPERTY
W(PB)
SciTegic.value.DoubleValue
-74.412

@<SCITEGIC>MOL_PROPERTY
W(SA)
SciTegic.value.DoubleValue
5.874

@<SCITEGIC>MOL_PROPERTY
Valence
SciTegic.value.DoubleValue
154.018

@<SCITEGIC>MOL_PROPERTY
Coulomb
SciTegic.value.DoubleValue
136.228

@<SCITEGIC>MOL_PROPERTY
VdW
SciTegic.value.DoubleValue
-26.865

@<SCITEGIC>MOL_PROPERTY
VdW6
SciTegic.value.DoubleValue
-177.075

@<SCITEGIC>MOL_PROPERTY
VdW12
SciTegic.value.DoubleValue
150.210

@<SCITEGIC>MOL_PROPERTY
Bond
SciTegic.value.DoubleValue
4.351

@<SCITEGIC>MOL_PROPERTY
Angle
SciTegic.value.DoubleValue
12.839

@<SCITEGIC>MOL_PROPERTY
Pdih
SciTegic.value.DoubleValue
136.828

@<SCITEGIC>MOL_PROPERTY
Idih
SciTegic.value.DoubleValue
0.000

@<SCITEGIC>MOL_PROPERTY
Tether
SciTegic.value.DoubleValue
0.000

@<TRIPOS>MOLECULE
CD_guest-6_fast_vm2_rndm.mol2 : feprocess host+ligand conformer 71
         139         144           2
SMALL
USER_CHARGES
 
@<TRIPOS>ATOM
       1    C1      16.235312   15.383634   21.863000 C.3        1 MOL1         0.2972
       2    H1      15.137955   15.391444   21.845522 H          1 MOL1         0.0751
       3    O1      16.771094   16.674609   21.514730 O.3        1 MOL1        -0.3740
       4    C2      16.722466   14.944279   23.263516 C.3        1 MOL1         0.1003
       5    H2      16.349625   13.924791   23.425884 H          1 MOL1         0.0783
       6    O2      16.201733   15.795430   24.294798 O.3        1 MOL1        -0.5519
       7    H3      16.620406   16.693294   24.170320 H          1 MOL1         0.3769
       8    C3      18.261844   14.898381   23.323623 C.3        1 MOL1         0.1053
       9    H4      18.630180   15.929427   23.231472 H          1 MOL1         0.0783
      10    O3      18.661540   14.350449   24.585275 O.3        1 MOL1        -0.5519
      11    H5      18.166102   14.872285   25.254519 H          1 MOL1         0.3769
      12    C4      18.871698   14.064037   22.166871 C.3        1 MOL1         0.1018
      13    H6      18.770130   12.999927   22.415405 H          1 MOL1         0.0783
      14    C5      18.196827   14.356645   20.782935 C.3        1 MOL1         0.1043
      15    H7      18.580941   15.319132   20.427834 H          1 MOL1         0.0783
      16    O4      16.750942   14.435875   20.908850 O.3        1 MOL1        -0.3740
      17    C6      18.461042   13.299541   19.677813 C.3        1 MOL1         0.0138
      18    H8      19.456488   13.453602   19.247397 H          1 MOL1         0.0794
      19    H9      17.744477   13.464462   18.861807 H          1 MOL1         0.0794
      20    O5      18.341689   11.959109   20.169087 O.3        1 MOL1        -0.5486
      21    H10     18.421849   11.351699   19.401397 H          1 MOL1         0.3769
      22    C7      15.452805   20.236992   19.753255 C.3        1 MOL1         0.2972
      23    H11     14.956177   20.981929   19.119518 H          1 MOL1         0.0751
      24    O6      16.548334   20.824444   20.481771 O.3        1 MOL1        -0.3740
      25    C8      14.436100   19.553915   20.712304 C.3        1 MOL1         0.1003
      26    H12     13.679668   19.082433   20.071373 H          1 MOL1         0.0783
      27    O7      13.775306   20.496794   21.569857 O.3        1 MOL1        -0.5519
      28    H13     14.451979   20.804238   22.224688 H          1 MOL1         0.3769
      29    C9      15.094922   18.428368   21.550233 C.3        1 MOL1         0.1053
      30    H14     15.779302   18.881192   22.280664 H          1 MOL1         0.0783
      31    O8      14.057255   17.706905   22.222964 O.3        1 MOL1        -0.5519
      32    H15     13.534917   18.384457   22.703958 H          1 MOL1         0.3769
      33    C10     15.917966   17.462575   20.658574 C.3        1 MOL1         0.1018
      34    H16     15.217503   16.831330   20.096136 H          1 MOL1         0.0783
      35    C11     16.826041   18.215406   19.649731 C.3        1 MOL1         0.1043
      36    H17     17.617801   18.725337   20.213563 H          1 MOL1         0.0783
      37    O9      16.026434   19.193023   18.934377 O.3        1 MOL1        -0.3740
      38    C12     17.534218   17.299187   18.618134 C.3        1 MOL1         0.0138
      39    H18     18.487830   16.969144   19.048063 H          1 MOL1         0.0794
      40    H19     17.779829   17.895691   17.729405 H          1 MOL1         0.0794
      41    O10     16.752376   16.157252   18.243684 O.3        1 MOL1        -0.5486
      42    H20     16.629187   15.606336   19.050501 H          1 MOL1         0.3769
      43    C13     18.402889   23.937778   22.268577 C.3        1 MOL1         0.2972
      44    H21     18.775958   24.849284   22.753286 H          1 MOL1         0.0751
      45    O11     19.479807   23.036813   21.937656 O.3        1 MOL1        -0.3740
      46    C14     17.396325   23.220792   23.199946 C.3        1 MOL1         0.1003
      47    H22     16.528300   23.882501   23.314601 H          1 MOL1         0.0783
      48    O12     17.971502   22.978780   24.494354 O.3        1 MOL1        -0.5519
      49    H23     18.183831   22.009116   24.552397 H          1 MOL1         0.3769
      50    C15     16.916948   21.908556   22.542922 C.3        1 MOL1         0.1053
      51    H24     17.787333   21.247506   22.463591 H          1 MOL1         0.0783
      52    O13     15.917198   21.280626   23.353694 O.3        1 MOL1        -0.5519
      53    H25     16.429190   20.822801   24.071648 H          1 MOL1         0.3769
      54    C16     16.391309   22.117331   21.102224 C.3        1 MOL1         0.1018
      55    H26     15.348016   22.451726   21.139599 H          1 MOL1         0.0783
      56    C17     17.251152   23.108555   20.263731 C.3        1 MOL1         0.1043
      57    H27     18.131166   22.551153   19.926901 H          1 MOL1         0.0783
      58    O14     17.700012   24.248602   21.045619 O.3        1 MOL1        -0.3740
      59    C18     16.536035   23.631662   18.994649 C.3        1 MOL1         0.0138
      60    H28     16.368536   22.789673   18.309736 H          1 MOL1         0.0794
      61    H29     17.207523   24.333597   18.482312 H          1 MOL1         0.0794
      62    O15     15.292063   24.278864   19.292707 O.3        1 MOL1        -0.5486
      63    H30     14.654323   23.600434   19.598507 H          1 MOL1         0.3769
      64    C19     23.587338   22.842293   21.526713 C.3        1 MOL1         0.2972
      65    H31     24.654073   23.030712   21.350391 H          1 MOL1         0.0751
      66    O16     23.330264   21.451119   21.795623 O.3        1 MOL1        -0.3740
      67    C20     23.112686   23.651279   22.754969 C.3        1 MOL1         0.1003
      68    H32     23.291316   24.712663   22.538850 H          1 MOL1         0.0783
      69    O17     23.865791   23.269082   23.917428 O.3        1 MOL1        -0.5519
      70    H33     24.083774   22.310711   23.810988 H          1 MOL1         0.3769
      71    C21     21.596525   23.463944   23.005123 C.3        1 MOL1         0.1053
      72    H34     21.431562   22.441714   23.373711 H          1 MOL1         0.0783
      73    O18     21.180819   24.413482   23.991427 O.3        1 MOL1        -0.5519
      74    H35     21.791392   24.283863   24.749426 H          1 MOL1         0.3769
      75    C22     20.763747   23.648086   21.708005 C.3        1 MOL1         0.1018
      76    H36     20.676428   24.721776   21.496734 H          1 MOL1         0.0783
      77    C23     21.387601   22.930288   20.477081 C.3        1 MOL1         0.1043
      78    H37     21.265137   21.849284   20.624263 H          1 MOL1         0.0783
      79    O19     22.799327   23.243980   20.387817 O.3        1 MOL1        -0.3740
      80    C24     20.728638   23.276214   19.114742 C.3        1 MOL1         0.0138
      81    H38     19.964319   22.521335   18.895163 H          1 MOL1         0.0794
      82    H39     21.487120   23.185391   18.325587 H          1 MOL1         0.0794
      83    O20     20.144535   24.584900   19.078058 O.3        1 MOL1        -0.5486
      84    H40     19.395834   24.594991   19.718264 H          1 MOL1         0.3769
      85    C25     24.880272   17.652182   21.035461 C.3        1 MOL1         0.2972
      86    H41     25.525903   16.820510   20.725269 H          1 MOL1         0.0751
      87    O21     23.613666   17.182935   21.533802 O.3        1 MOL1        -0.3740
      88    C26     25.572821   18.455694   22.163903 C.3        1 MOL1         0.1003
      89    H42     26.529542   18.822902   21.770387 H          1 MOL1         0.0783
      90    O22     25.819220   17.611981   23.300126 O.3        1 MOL1        -0.5519
      91    H43     25.155819   16.879274   23.260176 H          1 MOL1         0.3769
      92    C27     24.722118   19.680416   22.572198 C.3        1 MOL1         0.1053
      93    H44     23.802174   19.312834   23.044416 H          1 MOL1         0.0783
      94    O23     25.454987   20.488915   23.499292 O.3        1 MOL1        -0.5519
      95    H45     25.808211   19.855897   24.163146 H          1 MOL1         0.3769
      96    C28     24.326652   20.520733   21.334860 C.3        1 MOL1         0.1018
      97    H46     25.224812   21.026217   20.956355 H          1 MOL1         0.0783
      98    C29     23.712232   19.637227   20.212322 C.3        1 MOL1         0.1043
      99    H47     22.758106   19.241520   20.583341 H          1 MOL1         0.0783
     100    O24     24.614834   18.537840   19.926740 O.3        1 MOL1        -0.3740
     101    C30     23.411715   20.367554   18.878165 C.3        1 MOL1         0.0138
     102    H48     22.401078   20.789436   18.929407 H          1 MOL1         0.0794
     103    H49     23.401633   19.625596   18.068448 H          1 MOL1         0.0794
     104    O25     24.350678   21.405266   18.577731 O.3        1 MOL1        -0.5486
     105    H50     24.055455   22.204449   19.071638 H          1 MOL1         0.3769
     106    C31     21.192925   13.752639   21.332513 C.3        1 MOL1         0.2972
     107    H51     20.812688   12.758166   21.066317 H          1 MOL1         0.0751
     108    O26     20.262534   14.462173   22.168444 O.3        1 MOL1        -0.3740
     109    C32     22.520439   13.620437   22.125395 C.3        1 MOL1         0.1003
     110    H52     23.223801   13.053037   21.502147 H          1 MOL1         0.0783
     111    O27     22.295090   12.916275   23.355593 O.3        1 MOL1        -0.5519
     112    H53     21.497750   13.329792   23.760087 H          1 MOL1         0.3769
     113    C33     23.145589   15.006856   22.419124 C.3        1 MOL1         0.1053
     114    H54     22.495186   15.535726   23.129991 H          1 MOL1         0.0783
     115    O28     24.448981   14.835940   22.986871 O.3        1 MOL1        -0.5519
     116    H55     24.340068   14.149902   23.682303 H          1 MOL1         0.3769
     117    C34     23.237139   15.854955   21.130057 C.3        1 MOL1         0.1018
     118    H56     23.979753   15.400223   20.461020 H          1 MOL1         0.0783
     119    C35     21.868313   15.914599   20.401562 C.3        1 MOL1         0.1043
     120    H57     21.144037   16.418581   21.054936 H          1 MOL1         0.0783
     121    O29     21.436578   14.555020   20.153877 O.3        1 MOL1        -0.3740
     122    C36     21.873190   16.679767   19.053654 C.3        1 MOL1         0.0138
     123    H58     21.698395   17.743490   19.256182 H          1 MOL1         0.0794
     124    H59     21.025700   16.328221   18.450320 H          1 MOL1         0.0794
     125    O30     23.093572   16.524724   18.320861 O.3        1 MOL1        -0.5486
     126    H60     23.760811   17.112573   18.745642 H          1 MOL1         0.3769
     127    C1      18.391866   19.121029   24.102606 C.2        1 MOL1         0.6021
     128    O1      17.649642   18.163904   24.194984 O.co2      1 MOL1        -0.6904
     129    O2      18.201465   20.172357   24.686873 O.co2      1 MOL1        -0.6904
     130    C2      19.502778   19.065569   23.053403 C.3        1 MOL1        -0.2102
     131    H1      19.761550   20.089850   22.759703 H          1 MOL1         0.0687
     132    H2      19.088590   18.572634   22.166594 H          1 MOL1         0.0687
     133    C3      20.778025   18.314143   23.509500 C.3        1 MOL1        -0.1974
     134    H3      20.513550   17.299404   23.836963 H          1 MOL1         0.0689
     135    H4      21.452680   18.207335   22.652246 H          1 MOL1         0.0689
     136    C4      21.522422   19.050899   24.641268 C.3        1 MOL1        -0.2987
     137    H5      20.887890   19.145537   25.532178 H          1 MOL1         0.0700
     138    H6      22.429461   18.503520   24.928045 H          1 MOL1         0.0700
     139    H7      21.817071   20.059888   24.324594 H          1 MOL1         0.0700
@<TRIPOS>BOND
    1     1     2    1
    2     1     3    1
    3     1     4    1
    4     4     5    1
    5     4     6    1
    6     6     7    1
    7     4     8    1
    8     8     9    1
    9     8    10    1
   10    10    11    1
   11     8    12    1
   12    12    13    1
   13    12    14    1
   14    14    15    1
   15     1    16    1
   16    14    16    1
   17    14    17    1
   18    17    18    1
   19    17    19    1
   20    17    20    1
   21    20    21    1
   22    22    23    1
   23    22    24    1
   24    22    25    1
   25    25    26    1
   26    25    27    1
   27    27    28    1
   28    25    29    1
   29    29    30    1
   30    29    31    1
   31    31    32    1
   32     3    33    1
   33    29    33    1
   34    33    34    1
   35    33    35    1
   36    35    36    1
   37    22    37    1
   38    35    37    1
   39    35    38    1
   40    38    39    1
   41    38    40    1
   42    38    41    1
   43    41    42    1
   44    43    44    1
   45    43    45    1
   46    43    46    1
   47    46    47    1
   48    46    48    1
   49    48    49    1
   50    46    50    1
   51    50    51    1
   52    50    52    1
   53    52    53    1
   54    24    54    1
   55    50    54    1
   56    54    55    1
   57    54    56    1
   58    56    57    1
   59    43    58    1
   60    56    58    1
   61    56    59    1
   62    59    60    1
   63    59    61    1
   64    59    62    1
   65    62    63    1
   66    64    65    1
   67    64    66    1
   68    64    67    1
   69    67    68    1
   70    67    69    1
   71    69    70    1
   72    67    71    1
   73    71    72    1
   74    71    73    1
   75    73    74    1
   76    45    75    1
   77    71    75    1
   78    75    76    1
   79    75    77    1
   80    77    78    1
   81    64    79    1
   82    77    79    1
   83    77    80    1
   84    80    81    1
   85    80    82    1
   86    80    83    1
   87    83    84    1
   88    85    86    1
   89    85    87    1
   90    85    88    1
   91    88    89    1
   92    88    90    1
   93    90    91    1
   94    88    92    1
   95    92    93    1
   96    92    94    1
   97    94    95    1
   98    66    96    1
   99    92    96    1
  100    96    97    1
  101    96    98    1
  102    98    99    1
  103    85   100    1
  104    98   100    1
  105    98   101    1
  106   101   102    1
  107   101   103    1
  108   101   104    1
  109   104   105    1
  110   106   107    1
  111    12   108    1
  112   106   108    1
  113   106   109    1
  114   109   110    1
  115   109   111    1
  116   111   112    1
  117   109   113    1
  118   113   114    1
  119   113   115    1
  120   115   116    1
  121    87   117    1
  122   113   117    1
  123   117   118    1
  124   117   119    1
  125   119   120    1
  126   106   121    1
  127   119   121    1
  128   119   122    1
  129   122   123    1
  130   122   124    1
  131   122   125    1
  132   125   126    1
  133   127   128    1
  134   127   129    2
  135   127   130    1
  136   130   131    1
  137   130   132    1
  138   130   133    1
  139   133   134    1
  140   133   135    1
  141   133   136    1
  142   136   137    1
  143   136   138    1
  144   136   139    1
@<TRIPOS>SUBSTRUCTURE
       1 MOL1            1 RESIDUE      1      MOL     
       2 MOL1          139 RESIDUE      1      MOL     
@<SCITEGIC>MOL_PROPERTY
feprocess Rank
SciTegic.value.IntegerValue
71

@<SCITEGIC>MOL_PROPERTY
Conf_Id
SciTegic.value.IntegerValue
879

@<SCITEGIC>MOL_PROPERTY
Probability
SciTegic.value.DoubleValue
0.00

@<SCITEGIC>MOL_PROPERTY
G
SciTegic.value.DoubleValue
491.132

@<SCITEGIC>MOL_PROPERTY
E
SciTegic.value.DoubleValue
315.764

@<SCITEGIC>MOL_PROPERTY
-TS
SciTegic.value.DoubleValue
175.368

@<SCITEGIC>MOL_PROPERTY
U+W
SciTegic.value.DoubleValue
193.253

@<SCITEGIC>MOL_PROPERTY
U
SciTegic.value.DoubleValue
265.444

@<SCITEGIC>MOL_PROPERTY
W
SciTegic.value.DoubleValue
-72.191

@<SCITEGIC>MOL_PROPERTY
W(PB)
SciTegic.value.DoubleValue
-78.052

@<SCITEGIC>MOL_PROPERTY
W(SA)
SciTegic.value.DoubleValue
5.861

@<SCITEGIC>MOL_PROPERTY
Valence
SciTegic.value.DoubleValue
154.109

@<SCITEGIC>MOL_PROPERTY
Coulomb
SciTegic.value.DoubleValue
132.230

@<SCITEGIC>MOL_PROPERTY
VdW
SciTegic.value.DoubleValue
-20.895

@<SCITEGIC>MOL_PROPERTY
VdW6
SciTegic.value.DoubleValue
-174.494

@<SCITEGIC>MOL_PROPERTY
VdW12
SciTegic.value.DoubleValue
153.600

@<SCITEGIC>MOL_PROPERTY
Bond
SciTegic.value.DoubleValue
5.088

@<SCITEGIC>MOL_PROPERTY
Angle
SciTegic.value.DoubleValue
16.725

@<SCITEGIC>MOL_PROPERTY
Pdih
SciTegic.value.DoubleValue
132.243

@<SCITEGIC>MOL_PROPERTY
Idih
SciTegic.value.DoubleValue
0.052

@<SCITEGIC>MOL_PROPERTY
Tether
SciTegic.value.DoubleValue
0.000

@<TRIPOS>MOLECULE
CD_guest-6_fast_vm2_rndm.mol2 : feprocess host+ligand conformer 72
         139         144           2
SMALL
USER_CHARGES
 
@<TRIPOS>ATOM
       1    C1      16.278922   15.237017   21.377922 C.3        1 MOL1         0.2972
       2    H1      15.221300   15.011927   21.190362 H          1 MOL1         0.0751
       3    O1      16.479297   16.638030   21.641889 O.3        1 MOL1        -0.3740
       4    C2      16.764020   14.443195   22.617799 C.3        1 MOL1         0.1003
       5    H2      16.580433   13.379439   22.418419 H          1 MOL1         0.0783
       6    O2      16.024021   14.839786   23.783600 O.3        1 MOL1        -0.5519
       7    H3      15.747239   15.778316   23.638968 H          1 MOL1         0.3769
       8    C3      18.283265   14.626026   22.851448 C.3        1 MOL1         0.1053
       9    H4      18.465200   15.665517   23.153733 H          1 MOL1         0.0783
      10    O3      18.714271   13.735426   23.885828 O.3        1 MOL1        -0.5519
      11    H5      18.063615   13.855336   24.612629 H          1 MOL1         0.3769
      12    C4      19.076406   14.353103   21.551531 C.3        1 MOL1         0.1018
      13    H6      19.009841   13.281869   21.319945 H          1 MOL1         0.0783
      14    C5      18.503025   15.167555   20.359932 C.3        1 MOL1         0.1043
      15    H7      18.640183   16.234987   20.577385 H          1 MOL1         0.0783
      16    O4      17.087526   14.875524   20.236519 O.3        1 MOL1        -0.3740
      17    C6      19.176942   14.889336   18.991274 C.3        1 MOL1         0.0138
      18    H8      20.042549   15.554463   18.886021 H          1 MOL1         0.0794
      19    H9      18.472174   15.159452   18.193584 H          1 MOL1         0.0794
      20    O5      19.595518   13.529110   18.833018 O.3        1 MOL1        -0.5486
      21    H10     20.451208   13.435340   19.313224 H          1 MOL1         0.3769
      22    C7      14.674863   20.353232   20.918953 C.3        1 MOL1         0.2972
      23    H11     13.962904   21.128507   20.608608 H          1 MOL1         0.0751
      24    O6      15.883043   20.937196   21.444778 O.3        1 MOL1        -0.3740
      25    C8      14.047073   19.492342   22.045187 C.3        1 MOL1         0.1003
      26    H12     13.110566   19.070766   21.657544 H          1 MOL1         0.0783
      27    O7      13.763862   20.311221   23.190284 O.3        1 MOL1        -0.5519
      28    H13     14.501744   20.963816   23.250474 H          1 MOL1         0.3769
      29    C9      14.973423   18.316882   22.442196 C.3        1 MOL1         0.1053
      30    H14     15.865369   18.729622   22.929056 H          1 MOL1         0.0783
      31    O8      14.286060   17.448551   23.349719 O.3        1 MOL1        -0.5519
      32    H15     13.886022   18.044470   24.021186 H          1 MOL1         0.3769
      33    C10     15.431167   17.522117   21.197734 C.3        1 MOL1         0.1018
      34    H16     14.566604   16.973316   20.801792 H          1 MOL1         0.0783
      35    C11     15.992555   18.461888   20.094908 C.3        1 MOL1         0.1043
      36    H17     16.906867   18.934090   20.476433 H          1 MOL1         0.0783
      37    O9      15.010636   19.490577   19.809035 O.3        1 MOL1        -0.3740
      38    C12     16.364747   17.754587   18.765547 C.3        1 MOL1         0.0138
      39    H18     17.396247   17.389296   18.843984 H          1 MOL1         0.0794
      40    H19     16.350105   18.495268   17.955692 H          1 MOL1         0.0794
      41    O10     15.494943   16.665349   18.439824 O.3        1 MOL1        -0.5486
      42    H20     15.829966   15.880857   18.932557 H          1 MOL1         0.3769
      43    C13     18.544825   24.093541   20.889513 C.3        1 MOL1         0.2972
      44    H21     19.042833   25.031359   20.611905 H          1 MOL1         0.0751
      45    O11     19.475635   23.136055   21.426905 O.3        1 MOL1        -0.3740
      46    C14     17.429554   24.343848   21.936780 C.3        1 MOL1         0.1003
      47    H22     16.715087   25.047174   21.489770 H          1 MOL1         0.0783
      48    O12     17.969253   24.917198   23.138910 O.3        1 MOL1        -0.5519
      49    H23     18.693405   24.316469   23.450844 H          1 MOL1         0.3769
      50    C15     16.669273   23.035067   22.266280 C.3        1 MOL1         0.1053
      51    H24     17.352311   22.392397   22.833471 H          1 MOL1         0.0783
      52    O13     15.525779   23.341214   23.071784 O.3        1 MOL1        -0.5519
      53    H25     15.859410   23.937337   23.777996 H          1 MOL1         0.3769
      54    C16     16.223772   22.266141   20.992643 C.3        1 MOL1         0.1018
      55    H26     15.356684   22.788719   20.568338 H          1 MOL1         0.0783
      56    C17     17.360100   22.178488   19.928933 C.3        1 MOL1         0.1043
      57    H27     18.134031   21.499457   20.310041 H          1 MOL1         0.0783
      58    O14     17.928156   23.496529   19.731417 O.3        1 MOL1        -0.3740
      59    C18     16.945936   21.644369   18.534436 C.3        1 MOL1         0.0138
      60    H28     17.074680   20.556606   18.527010 H          1 MOL1         0.0794
      61    H29     17.643590   22.045585   17.787162 H          1 MOL1         0.0794
      62    O15     15.601339   21.975406   18.172349 O.3        1 MOL1        -0.5486
      63    H30     15.034787   21.250972   18.521998 H          1 MOL1         0.3769
      64    C19     23.449926   22.532752   22.319631 C.3        1 MOL1         0.2972
      65    H31     24.510590   22.603644   22.592475 H          1 MOL1         0.0751
      66    O16     23.106620   21.195977   21.904152 O.3        1 MOL1        -0.3740
      67    C20     22.570281   22.953226   23.525242 C.3        1 MOL1         0.1003
      68    H32     22.796221   24.006396   23.736177 H          1 MOL1         0.0783
      69    O17     22.867882   22.175571   24.693786 O.3        1 MOL1        -0.5519
      70    H33     22.620098   21.229741   24.490179 H          1 MOL1         0.3769
      71    C21     21.071338   22.853006   23.169791 C.3        1 MOL1         0.1053
      72    H34     20.837102   21.792710   23.004729 H          1 MOL1         0.0783
      73    O18     20.281650   23.367724   24.248616 O.3        1 MOL1        -0.5519
      74    H35     20.622930   22.910235   25.048879 H          1 MOL1         0.3769
      75    C22     20.748701   23.637029   21.875347 C.3        1 MOL1         0.1018
      76    H36     20.709876   24.708252   22.114098 H          1 MOL1         0.0783
      77    C23     21.773003   23.372198   20.734665 C.3        1 MOL1         0.1043
      78    H37     21.568448   22.366277   20.355100 H          1 MOL1         0.0783
      79    O19     23.140788   23.421873   21.223164 O.3        1 MOL1        -0.3740
      80    C24     21.645396   24.347608   19.539657 C.3        1 MOL1         0.0138
      81    H38     20.720645   24.114612   18.994792 H          1 MOL1         0.0794
      82    H39     22.480878   24.170543   18.849173 H          1 MOL1         0.0794
      83    O20     21.630632   25.716786   19.961442 O.3        1 MOL1        -0.5486
      84    H40     21.636467   26.277416   19.155023 H          1 MOL1         0.3769
      85    C25     24.900123   17.667101   20.625880 C.3        1 MOL1         0.2972
      86    H41     25.526674   16.902669   20.150278 H          1 MOL1         0.0751
      87    O21     23.731595   17.096435   21.240727 O.3        1 MOL1        -0.3740
      88    C26     25.691899   18.425311   21.719226 C.3        1 MOL1         0.1003
      89    H42     26.557764   18.888257   21.228256 H          1 MOL1         0.0783
      90    O22     26.156956   17.518905   22.732768 O.3        1 MOL1        -0.5519
      91    H43     25.381753   16.972079   23.018910 H          1 MOL1         0.3769
      92    C27     24.843945   19.560173   22.350443 C.3        1 MOL1         0.1053
      93    H44     24.055486   19.101581   22.962878 H          1 MOL1         0.0783
      94    O23     25.702699   20.359503   23.170909 O.3        1 MOL1        -0.5519
      95    H45     26.140074   19.726829   23.781169 H          1 MOL1         0.3769
      96    C28     24.164241   20.447345   21.270235 C.3        1 MOL1         0.1018
      97    H46     24.924824   21.110265   20.837953 H          1 MOL1         0.0783
      98    C29     23.512934   19.613221   20.130600 C.3        1 MOL1         0.1043
      99    H47     22.634794   19.097794   20.539453 H          1 MOL1         0.0783
     100    O24     24.462845   18.633124   19.648864 O.3        1 MOL1        -0.3740
     101    C30     23.019135   20.444631   18.918189 C.3        1 MOL1         0.0138
     102    H48     21.976051   20.732112   19.096731 H          1 MOL1         0.0794
     103    H49     23.015114   19.799297   18.029615 H          1 MOL1         0.0794
     104    O25     23.812799   21.612877   18.670463 O.3        1 MOL1        -0.5486
     105    H50     23.732593   22.197438   19.458633 H          1 MOL1         0.3769
     106    C31     21.437824   13.742262   21.685540 C.3        1 MOL1         0.2972
     107    H51     21.000539   12.738671   21.763611 H          1 MOL1         0.0751
     108    O26     20.433371   14.771653   21.792111 O.3        1 MOL1        -0.3740
     109    C32     22.474783   13.945891   22.815031 C.3        1 MOL1         0.1003
     110    H52     23.269259   13.201307   22.676138 H          1 MOL1         0.0783
     111    O27     21.858253   13.748688   24.096525 O.3        1 MOL1        -0.5519
     112    H53     20.952235   14.138850   24.039230 H          1 MOL1         0.3769
     113    C33     23.113793   15.350072   22.723199 C.3        1 MOL1         0.1053
     114    H54     22.337998   16.083462   22.969110 H          1 MOL1         0.0783
     115    O28     24.189390   15.458095   23.661447 O.3        1 MOL1        -0.5519
     116    H55     23.780681   15.264736   24.534520 H          1 MOL1         0.3769
     117    C34     23.636455   15.662190   21.298890 C.3        1 MOL1         0.1018
     118    H56     24.610873   15.173977   21.170346 H          1 MOL1         0.0783
     119    C35     22.654593   15.230418   20.171222 C.3        1 MOL1         0.1043
     120    H57     21.830386   15.955141   20.162383 H          1 MOL1         0.0783
     121    O29     22.116928   13.907131   20.424943 O.3        1 MOL1        -0.3740
     122    C36     23.279854   15.235391   18.754852 C.3        1 MOL1         0.0138
     123    H58     23.530633   16.268513   18.479185 H          1 MOL1         0.0794
     124    H59     22.520388   14.888522   18.041545 H          1 MOL1         0.0794
     125    O30     24.444161   14.403927   18.664571 O.3        1 MOL1        -0.5486
     126    H60     25.168266   14.829076   19.167801 H          1 MOL1         0.3769
     127    C1      21.349920   18.553710   24.053071 C.2        1 MOL1         0.6021
     128    O1      21.922986   19.589943   24.329076 O.co2      1 MOL1        -0.6904
     129    O2      21.389598   17.552855   24.742057 O.co2      1 MOL1        -0.6904
     130    C2      20.554182   18.496028   22.749979 C.3        1 MOL1        -0.2102
     131    H1      20.792213   17.549029   22.254950 H          1 MOL1         0.0687
     132    H2      20.903809   19.298768   22.091199 H          1 MOL1         0.0687
     133    C3      19.023340   18.601065   22.951691 C.3        1 MOL1        -0.1974
     134    H3      18.518433   18.328858   22.018215 H          1 MOL1         0.0689
     135    H4      18.700602   17.880596   23.715023 H          1 MOL1         0.0689
     136    C4      18.595183   20.020566   23.364310 C.3        1 MOL1        -0.2987
     137    H5      18.837958   20.733942   22.569336 H          1 MOL1         0.0700
     138    H6      17.517065   20.069972   23.552332 H          1 MOL1         0.0700
     139    H7      19.110127   20.338420   24.280330 H          1 MOL1         0.0700
@<TRIPOS>BOND
    1     1     2    1
    2     1     3    1
    3     1     4    1
    4     4     5    1
    5     4     6    1
    6     6     7    1
    7     4     8    1
    8     8     9    1
    9     8    10    1
   10    10    11    1
   11     8    12    1
   12    12    13    1
   13    12    14    1
   14    14    15    1
   15     1    16    1
   16    14    16    1
   17    14    17    1
   18    17    18    1
   19    17    19    1
   20    17    20    1
   21    20    21    1
   22    22    23    1
   23    22    24    1
   24    22    25    1
   25    25    26    1
   26    25    27    1
   27    27    28    1
   28    25    29    1
   29    29    30    1
   30    29    31    1
   31    31    32    1
   32     3    33    1
   33    29    33    1
   34    33    34    1
   35    33    35    1
   36    35    36    1
   37    22    37    1
   38    35    37    1
   39    35    38    1
   40    38    39    1
   41    38    40    1
   42    38    41    1
   43    41    42    1
   44    43    44    1
   45    43    45    1
   46    43    46    1
   47    46    47    1
   48    46    48    1
   49    48    49    1
   50    46    50    1
   51    50    51    1
   52    50    52    1
   53    52    53    1
   54    24    54    1
   55    50    54    1
   56    54    55    1
   57    54    56    1
   58    56    57    1
   59    43    58    1
   60    56    58    1
   61    56    59    1
   62    59    60    1
   63    59    61    1
   64    59    62    1
   65    62    63    1
   66    64    65    1
   67    64    66    1
   68    64    67    1
   69    67    68    1
   70    67    69    1
   71    69    70    1
   72    67    71    1
   73    71    72    1
   74    71    73    1
   75    73    74    1
   76    45    75    1
   77    71    75    1
   78    75    76    1
   79    75    77    1
   80    77    78    1
   81    64    79    1
   82    77    79    1
   83    77    80    1
   84    80    81    1
   85    80    82    1
   86    80    83    1
   87    83    84    1
   88    85    86    1
   89    85    87    1
   90    85    88    1
   91    88    89    1
   92    88    90    1
   93    90    91    1
   94    88    92    1
   95    92    93    1
   96    92    94    1
   97    94    95    1
   98    66    96    1
   99    92    96    1
  100    96    97    1
  101    96    98    1
  102    98    99    1
  103    85   100    1
  104    98   100    1
  105    98   101    1
  106   101   102    1
  107   101   103    1
  108   101   104    1
  109   104   105    1
  110   106   107    1
  111    12   108    1
  112   106   108    1
  113   106   109    1
  114   109   110    1
  115   109   111    1
  116   111   112    1
  117   109   113    1
  118   113   114    1
  119   113   115    1
  120   115   116    1
  121    87   117    1
  122   113   117    1
  123   117   118    1
  124   117   119    1
  125   119   120    1
  126   106   121    1
  127   119   121    1
  128   119   122    1
  129   122   123    1
  130   122   124    1
  131   122   125    1
  132   125   126    1
  133   127   128    1
  134   127   129    2
  135   127   130    1
  136   130   131    1
  137   130   132    1
  138   130   133    1
  139   133   134    1
  140   133   135    1
  141   133   136    1
  142   136   137    1
  143   136   138    1
  144   136   139    1
@<TRIPOS>SUBSTRUCTURE
       1 MOL1            1 RESIDUE      1      MOL     
       2 MOL1          139 RESIDUE      1      MOL     
@<SCITEGIC>MOL_PROPERTY
feprocess Rank
SciTegic.value.IntegerValue
72

@<SCITEGIC>MOL_PROPERTY
Conf_Id
SciTegic.value.IntegerValue
916

@<SCITEGIC>MOL_PROPERTY
Probability
SciTegic.value.DoubleValue
0.00

@<SCITEGIC>MOL_PROPERTY
G
SciTegic.value.DoubleValue
491.393

@<SCITEGIC>MOL_PROPERTY
E
SciTegic.value.DoubleValue
316.716

@<SCITEGIC>MOL_PROPERTY
-TS
SciTegic.value.DoubleValue
174.677

@<SCITEGIC>MOL_PROPERTY
U+W
SciTegic.value.DoubleValue
194.205

@<SCITEGIC>MOL_PROPERTY
U
SciTegic.value.DoubleValue
274.785

@<SCITEGIC>MOL_PROPERTY
W
SciTegic.value.DoubleValue
-80.584

@<SCITEGIC>MOL_PROPERTY
W(PB)
SciTegic.value.DoubleValue
-86.502

@<SCITEGIC>MOL_PROPERTY
W(SA)
SciTegic.value.DoubleValue
5.918

@<SCITEGIC>MOL_PROPERTY
Valence
SciTegic.value.DoubleValue
153.248

@<SCITEGIC>MOL_PROPERTY
Coulomb
SciTegic.value.DoubleValue
145.932

@<SCITEGIC>MOL_PROPERTY
VdW
SciTegic.value.DoubleValue
-24.396

@<SCITEGIC>MOL_PROPERTY
VdW6
SciTegic.value.DoubleValue
-173.001

@<SCITEGIC>MOL_PROPERTY
VdW12
SciTegic.value.DoubleValue
148.605

@<SCITEGIC>MOL_PROPERTY
Bond
SciTegic.value.DoubleValue
4.711

@<SCITEGIC>MOL_PROPERTY
Angle
SciTegic.value.DoubleValue
13.672

@<SCITEGIC>MOL_PROPERTY
Pdih
SciTegic.value.DoubleValue
134.865

@<SCITEGIC>MOL_PROPERTY
Idih
SciTegic.value.DoubleValue
0.001

@<SCITEGIC>MOL_PROPERTY
Tether
SciTegic.value.DoubleValue
0.000

@<TRIPOS>MOLECULE
CD_guest-6_fast_vm2_rndm.mol2 : feprocess host+ligand conformer 73
         139         144           2
SMALL
USER_CHARGES
 
@<TRIPOS>ATOM
       1    C1      16.236937   15.185398   20.866485 C.3        1 MOL1         0.2972
       2    H1      15.217752   14.952608   20.532909 H          1 MOL1         0.0751
       3    O1      16.348393   16.556358   21.295922 O.3        1 MOL1        -0.3740
       4    C2      16.602368   14.290780   22.075299 C.3        1 MOL1         0.1003
       5    H2      16.495589   13.247139   21.752057 H          1 MOL1         0.0783
       6    O2      15.698371   14.543935   23.162995 O.3        1 MOL1        -0.5519
       7    H3      15.514250   15.514469   23.150421 H          1 MOL1         0.3769
       8    C3      18.070125   14.497776   22.529345 C.3        1 MOL1         0.1053
       9    H4      18.155791   15.488987   22.997609 H          1 MOL1         0.0783
      10    O3      18.388439   13.471735   23.475527 O.3        1 MOL1        -0.5519
      11    H5      17.702479   13.543114   24.174095 H          1 MOL1         0.3769
      12    C4      19.052190   14.445322   21.327702 C.3        1 MOL1         0.1018
      13    H6      19.169004   13.402618   21.005664 H          1 MOL1         0.0783
      14    C5      18.555246   15.299388   20.132325 C.3        1 MOL1         0.1043
      15    H7      18.585390   16.351491   20.439903 H          1 MOL1         0.0783
      16    O4      17.189561   14.941322   19.808997 O.3        1 MOL1        -0.3740
      17    C6      19.431437   15.173484   18.858592 C.3        1 MOL1         0.0138
      18    H8      20.258081   15.891080   18.938549 H          1 MOL1         0.0794
      19    H9      18.834511   15.471538   17.986784 H          1 MOL1         0.0794
      20    O5      19.958847   13.854798   18.665890 O.3        1 MOL1        -0.5486
      21    H10     20.570352   13.674173   19.414198 H          1 MOL1         0.3769
      22    C7      14.801275   20.358005   20.544144 C.3        1 MOL1         0.2972
      23    H11     14.201416   21.211541   20.205444 H          1 MOL1         0.0751
      24    O6      16.049307   20.779737   21.125430 O.3        1 MOL1        -0.3740
      25    C8      14.029219   19.510412   21.588026 C.3        1 MOL1         0.1003
      26    H12     13.119223   19.141524   21.097161 H          1 MOL1         0.0783
      27    O7      13.656026   20.297391   22.729846 O.3        1 MOL1        -0.5519
      28    H13     14.484096   20.700416   23.095609 H          1 MOL1         0.3769
      29    C9      14.866823   18.280998   22.020309 C.3        1 MOL1         0.1053
      30    H14     15.747718   18.639738   22.571516 H          1 MOL1         0.0783
      31    O8      14.074276   17.438908   22.865266 O.3        1 MOL1        -0.5519
      32    H15     13.651472   18.046926   23.511316 H          1 MOL1         0.3769
      33    C10     15.360032   17.475526   20.791053 C.3        1 MOL1         0.1018
      34    H16     14.496943   16.953160   20.358207 H          1 MOL1         0.0783
      35    C11     16.009434   18.395224   19.714858 C.3        1 MOL1         0.1043
      36    H17     16.946789   18.791599   20.121803 H          1 MOL1         0.0783
      37    O9      15.110490   19.496181   19.428259 O.3        1 MOL1        -0.3740
      38    C12     16.366620   17.708072   18.372953 C.3        1 MOL1         0.0138
      39    H18     17.376201   17.288631   18.456054 H          1 MOL1         0.0794
      40    H19     16.408548   18.476153   17.589234 H          1 MOL1         0.0794
      41    O10     15.446157   16.677139   17.999952 O.3        1 MOL1        -0.5486
      42    H20     15.778048   15.846829   18.410648 H          1 MOL1         0.3769
      43    C13     18.434970   23.927280   22.192147 C.3        1 MOL1         0.2972
      44    H21     18.896572   24.880926   22.479855 H          1 MOL1         0.0751
      45    O11     19.427450   22.919886   21.918862 O.3        1 MOL1        -0.3740
      46    C14     17.523318   23.421832   23.333812 C.3        1 MOL1         0.1003
      47    H22     16.733218   24.169568   23.481264 H          1 MOL1         0.0783
      48    O12     18.273899   23.277545   24.550196 O.3        1 MOL1        -0.5519
      49    H23     19.229652   23.307515   24.300039 H          1 MOL1         0.3769
      50    C15     16.852306   22.083672   22.949545 C.3        1 MOL1         0.1053
      51    H24     17.633373   21.315346   22.910393 H          1 MOL1         0.0783
      52    O13     15.891201   21.733974   23.949916 O.3        1 MOL1        -0.5519
      53    H25     16.360909   21.863708   24.804277 H          1 MOL1         0.3769
      54    C16     16.169347   22.147509   21.558951 C.3        1 MOL1         0.1018
      55    H26     15.193175   22.636875   21.668384 H          1 MOL1         0.0783
      56    C17     17.028996   22.873957   20.483220 C.3        1 MOL1         0.1043
      57    H27     17.830289   22.185485   20.189850 H          1 MOL1         0.0783
      58    O14     17.624179   24.087291   21.010705 O.3        1 MOL1        -0.3740
      59    C18     16.249422   23.233887   19.195151 C.3        1 MOL1         0.0138
      60    H28     15.940952   22.305645   18.695439 H          1 MOL1         0.0794
      61    H29     16.933365   23.753920   18.511127 H          1 MOL1         0.0794
      62    O15     15.105471   24.057607   19.456898 O.3        1 MOL1        -0.5486
      63    H30     14.444600   23.525552   19.945365 H          1 MOL1         0.3769
      64    C19     23.568138   22.690285   21.284292 C.3        1 MOL1         0.2972
      65    H31     24.600381   22.962333   21.030186 H          1 MOL1         0.0751
      66    O16     23.455403   21.287715   21.591471 O.3        1 MOL1        -0.3740
      67    C20     23.116782   23.478715   22.541840 C.3        1 MOL1         0.1003
      68    H32     23.228668   24.547865   22.319469 H          1 MOL1         0.0783
      69    O17     23.946239   23.136661   23.663514 O.3        1 MOL1        -0.5519
      70    H33     24.151906   22.173721   23.577432 H          1 MOL1         0.3769
      71    C21     21.627500   23.212719   22.873268 C.3        1 MOL1         0.1053
      72    H34     21.532014   22.170215   23.201854 H          1 MOL1         0.0783
      73    O18     21.203377   24.088768   23.923014 O.3        1 MOL1        -0.5519
      74    H35     21.919555   24.047010   24.595529 H          1 MOL1         0.3769
      75    C22     20.744276   23.415004   21.618310 C.3        1 MOL1         0.1018
      76    H36     20.729498   24.482870   21.362440 H          1 MOL1         0.0783
      77    C23     21.290465   22.619392   20.404329 C.3        1 MOL1         0.1043
      78    H37     21.234419   21.549377   20.639431 H          1 MOL1         0.0783
      79    O19     22.674155   22.995951   20.190491 O.3        1 MOL1        -0.3740
      80    C24     20.500896   22.837380   19.087304 C.3        1 MOL1         0.0138
      81    H38     19.693797   22.095398   19.042453 H          1 MOL1         0.0794
      82    H39     21.166821   22.631000   18.239209 H          1 MOL1         0.0794
      83    O20     19.950964   24.155809   18.968431 O.3        1 MOL1        -0.5486
      84    H40     19.234191   24.237177   19.639888 H          1 MOL1         0.3769
      85    C25     25.076119   17.566599   20.636302 C.3        1 MOL1         0.2972
      86    H41     25.696298   16.730778   20.288085 H          1 MOL1         0.0751
      87    O21     23.748106   17.122202   20.985840 O.3        1 MOL1        -0.3740
      88    C26     25.748070   18.313220   21.823209 C.3        1 MOL1         0.1003
      89    H42     26.689359   18.728466   21.440173 H          1 MOL1         0.0783
      90    O22     26.054651   17.437751   22.917694 O.3        1 MOL1        -0.5519
      91    H43     25.187907   17.147135   23.298689 H          1 MOL1         0.3769
      92    C27     24.871374   19.502294   22.291142 C.3        1 MOL1         0.1053
      93    H44     23.937103   19.104002   22.711346 H          1 MOL1         0.0783
      94    O23     25.573928   20.253268   23.288466 O.3        1 MOL1        -0.5519
      95    H45     25.912447   19.585333   23.924450 H          1 MOL1         0.3769
      96    C28     24.508468   20.430420   21.105100 C.3        1 MOL1         0.1018
      97    H46     25.407190   20.998436   20.831695 H          1 MOL1         0.0783
      98    C29     23.997812   19.628365   19.871651 C.3        1 MOL1         0.1043
      99    H47     23.019887   19.207674   20.128693 H          1 MOL1         0.0783
     100    O24     24.919565   18.543705   19.583275 O.3        1 MOL1        -0.3740
     101    C30     23.798490   20.451324   18.574329 C.3        1 MOL1         0.0138
     102    H48     22.792295   20.887640   18.590593 H          1 MOL1         0.0794
     103    H49     23.830106   19.763845   17.718571 H          1 MOL1         0.0794
     104    O25     24.771054   21.488313   18.406298 O.3        1 MOL1        -0.5486
     105    H50     24.390239   22.296839   18.815828 H          1 MOL1         0.3769
     106    C31     21.274021   14.127798   22.316284 C.3        1 MOL1         0.2972
     107    H51     20.796056   13.225080   22.716717 H          1 MOL1         0.0751
     108    O26     20.311207   15.020637   21.724282 O.3        1 MOL1        -0.3740
     109    C32     22.022209   14.876219   23.445740 C.3        1 MOL1         0.1003
     110    H52     22.808535   14.206415   23.815981 H          1 MOL1         0.0783
     111    O27     21.132565   15.193406   24.528088 O.3        1 MOL1        -0.5519
     112    H53     20.576153   15.967880   24.236384 H          1 MOL1         0.3769
     113    C33     22.699791   16.149424   22.889223 C.3        1 MOL1         0.1053
     114    H54     21.908376   16.827535   22.550905 H          1 MOL1         0.0783
     115    O28     23.467495   16.784587   23.916735 O.3        1 MOL1        -0.5519
     116    H55     22.805122   17.346575   24.405096 H          1 MOL1         0.3769
     117    C34     23.585239   15.853798   21.654156 C.3        1 MOL1         0.1018
     118    H56     24.540694   15.424270   21.981946 H          1 MOL1         0.0783
     119    C35     22.884769   14.909198   20.634203 C.3        1 MOL1         0.1043
     120    H57     22.116759   15.497227   20.117360 H          1 MOL1         0.0783
     121    O29     22.243931   13.788003   21.299933 O.3        1 MOL1        -0.3740
     122    C36     23.840879   14.360101   19.549135 C.3        1 MOL1         0.0138
     123    H58     24.127479   15.188494   18.887237 H          1 MOL1         0.0794
     124    H59     23.295492   13.628162   18.938316 H          1 MOL1         0.0794
     125    O30     25.013931   13.762643   20.115072 O.3        1 MOL1        -0.5486
     126    H60     25.535524   13.374125   19.379062 H          1 MOL1         0.3769
     127    C1      20.409494   18.490795   23.813180 C.2        1 MOL1         0.6021
     128    O1      19.688326   17.511140   23.814033 O.co2      1 MOL1        -0.6904
     129    O2      21.405454   18.573397   24.506320 O.co2      1 MOL1        -0.6904
     130    C2      20.128933   19.649935   22.853972 C.3        1 MOL1        -0.2102
     131    H1      21.093227   20.063310   22.540409 H          1 MOL1         0.0687
     132    H2      19.631805   20.423422   23.448152 H          1 MOL1         0.0687
     133    C3      19.268709   19.324761   21.601783 C.3        1 MOL1        -0.1974
     134    H3      18.418443   18.693185   21.893255 H          1 MOL1         0.0689
     135    H4      18.846296   20.256212   21.206917 H          1 MOL1         0.0689
     136    C4      20.077044   18.647054   20.477738 C.3        1 MOL1        -0.2987
     137    H5      20.554229   17.727463   20.839235 H          1 MOL1         0.0700
     138    H6      19.426498   18.392054   19.632884 H          1 MOL1         0.0700
     139    H7      20.856625   19.317715   20.104264 H          1 MOL1         0.0700
@<TRIPOS>BOND
    1     1     2    1
    2     1     3    1
    3     1     4    1
    4     4     5    1
    5     4     6    1
    6     6     7    1
    7     4     8    1
    8     8     9    1
    9     8    10    1
   10    10    11    1
   11     8    12    1
   12    12    13    1
   13    12    14    1
   14    14    15    1
   15     1    16    1
   16    14    16    1
   17    14    17    1
   18    17    18    1
   19    17    19    1
   20    17    20    1
   21    20    21    1
   22    22    23    1
   23    22    24    1
   24    22    25    1
   25    25    26    1
   26    25    27    1
   27    27    28    1
   28    25    29    1
   29    29    30    1
   30    29    31    1
   31    31    32    1
   32     3    33    1
   33    29    33    1
   34    33    34    1
   35    33    35    1
   36    35    36    1
   37    22    37    1
   38    35    37    1
   39    35    38    1
   40    38    39    1
   41    38    40    1
   42    38    41    1
   43    41    42    1
   44    43    44    1
   45    43    45    1
   46    43    46    1
   47    46    47    1
   48    46    48    1
   49    48    49    1
   50    46    50    1
   51    50    51    1
   52    50    52    1
   53    52    53    1
   54    24    54    1
   55    50    54    1
   56    54    55    1
   57    54    56    1
   58    56    57    1
   59    43    58    1
   60    56    58    1
   61    56    59    1
   62    59    60    1
   63    59    61    1
   64    59    62    1
   65    62    63    1
   66    64    65    1
   67    64    66    1
   68    64    67    1
   69    67    68    1
   70    67    69    1
   71    69    70    1
   72    67    71    1
   73    71    72    1
   74    71    73    1
   75    73    74    1
   76    45    75    1
   77    71    75    1
   78    75    76    1
   79    75    77    1
   80    77    78    1
   81    64    79    1
   82    77    79    1
   83    77    80    1
   84    80    81    1
   85    80    82    1
   86    80    83    1
   87    83    84    1
   88    85    86    1
   89    85    87    1
   90    85    88    1
   91    88    89    1
   92    88    90    1
   93    90    91    1
   94    88    92    1
   95    92    93    1
   96    92    94    1
   97    94    95    1
   98    66    96    1
   99    92    96    1
  100    96    97    1
  101    96    98    1
  102    98    99    1
  103    85   100    1
  104    98   100    1
  105    98   101    1
  106   101   102    1
  107   101   103    1
  108   101   104    1
  109   104   105    1
  110   106   107    1
  111    12   108    1
  112   106   108    1
  113   106   109    1
  114   109   110    1
  115   109   111    1
  116   111   112    1
  117   109   113    1
  118   113   114    1
  119   113   115    1
  120   115   116    1
  121    87   117    1
  122   113   117    1
  123   117   118    1
  124   117   119    1
  125   119   120    1
  126   106   121    1
  127   119   121    1
  128   119   122    1
  129   122   123    1
  130   122   124    1
  131   122   125    1
  132   125   126    1
  133   127   128    1
  134   127   129    2
  135   127   130    1
  136   130   131    1
  137   130   132    1
  138   130   133    1
  139   133   134    1
  140   133   135    1
  141   133   136    1
  142   136   137    1
  143   136   138    1
  144   136   139    1
@<TRIPOS>SUBSTRUCTURE
       1 MOL1            1 RESIDUE      1      MOL     
       2 MOL1          139 RESIDUE      1      MOL     
@<SCITEGIC>MOL_PROPERTY
feprocess Rank
SciTegic.value.IntegerValue
73

@<SCITEGIC>MOL_PROPERTY
Conf_Id
SciTegic.value.IntegerValue
575

@<SCITEGIC>MOL_PROPERTY
Probability
SciTegic.value.DoubleValue
0.00

@<SCITEGIC>MOL_PROPERTY
G
SciTegic.value.DoubleValue
491.464

@<SCITEGIC>MOL_PROPERTY
E
SciTegic.value.DoubleValue
315.271

@<SCITEGIC>MOL_PROPERTY
-TS
SciTegic.value.DoubleValue
176.193

@<SCITEGIC>MOL_PROPERTY
U+W
SciTegic.value.DoubleValue
192.759

@<SCITEGIC>MOL_PROPERTY
U
SciTegic.value.DoubleValue
268.148

@<SCITEGIC>MOL_PROPERTY
W
SciTegic.value.DoubleValue
-75.389

@<SCITEGIC>MOL_PROPERTY
W(PB)
SciTegic.value.DoubleValue
-81.357

@<SCITEGIC>MOL_PROPERTY
W(SA)
SciTegic.value.DoubleValue
5.969

@<SCITEGIC>MOL_PROPERTY
Valence
SciTegic.value.DoubleValue
155.066

@<SCITEGIC>MOL_PROPERTY
Coulomb
SciTegic.value.DoubleValue
136.782

@<SCITEGIC>MOL_PROPERTY
VdW
SciTegic.value.DoubleValue
-23.700

@<SCITEGIC>MOL_PROPERTY
VdW6
SciTegic.value.DoubleValue
-178.456

@<SCITEGIC>MOL_PROPERTY
VdW12
SciTegic.value.DoubleValue
154.756

@<SCITEGIC>MOL_PROPERTY
Bond
SciTegic.value.DoubleValue
4.957

@<SCITEGIC>MOL_PROPERTY
Angle
SciTegic.value.DoubleValue
15.848

@<SCITEGIC>MOL_PROPERTY
Pdih
SciTegic.value.DoubleValue
134.250

@<SCITEGIC>MOL_PROPERTY
Idih
SciTegic.value.DoubleValue
0.010

@<SCITEGIC>MOL_PROPERTY
Tether
SciTegic.value.DoubleValue
0.000

@<TRIPOS>MOLECULE
CD_guest-6_fast_vm2_rndm.mol2 : feprocess host+ligand conformer 74
         139         144           2
SMALL
USER_CHARGES
 
@<TRIPOS>ATOM
       1    C1      16.263379   15.218060   21.025549 C.3        1 MOL1         0.2972
       2    H1      15.222635   15.033692   20.729668 H          1 MOL1         0.0751
       3    O1      16.487320   16.603528   21.344067 O.3        1 MOL1        -0.3740
       4    C2      16.600332   14.388062   22.288312 C.3        1 MOL1         0.1003
       5    H2      16.447263   13.329444   22.041347 H          1 MOL1         0.0783
       6    O2      15.732267   14.753947   23.373131 O.3        1 MOL1        -0.5519
       7    H3      15.444250   15.685162   23.205738 H          1 MOL1         0.3769
       8    C3      18.081278   14.577805   22.690235 C.3        1 MOL1         0.1053
       9    H4      18.220612   15.618471   23.015090 H          1 MOL1         0.0783
      10    O3      18.406191   13.686753   23.763116 O.3        1 MOL1        -0.5519
      11    H5      17.666125   13.780018   24.403599 H          1 MOL1         0.3769
      12    C4      19.014279   14.317880   21.484085 C.3        1 MOL1         0.1018
      13    H6      18.995166   13.244473   21.254034 H          1 MOL1         0.0783
      14    C5      18.573883   15.120466   20.226640 C.3        1 MOL1         0.1043
      15    H7      18.706564   16.187912   20.439172 H          1 MOL1         0.0783
      16    O4      17.172118   14.849900   19.965038 O.3        1 MOL1        -0.3740
      17    C6      19.375233   14.817980   18.934506 C.3        1 MOL1         0.0138
      18    H8      20.248666   15.480591   18.902370 H          1 MOL1         0.0794
      19    H9      18.753456   15.080427   18.068399 H          1 MOL1         0.0794
      20    O5      19.800566   13.453540   18.839818 O.3        1 MOL1        -0.5486
      21    H10     20.611481   13.373092   19.394131 H          1 MOL1         0.3769
      22    C7      14.884878   20.384667   20.609512 C.3        1 MOL1         0.2972
      23    H11     14.282941   21.226926   20.244763 H          1 MOL1         0.0751
      24    O6      16.015211   20.825515   21.381082 O.3        1 MOL1        -0.3740
      25    C8      14.050182   19.473569   21.544510 C.3        1 MOL1         0.1003
      26    H12     13.185265   19.111143   20.973989 H          1 MOL1         0.0783
      27    O7      13.596282   20.213805   22.690288 O.3        1 MOL1        -0.5519
      28    H13     14.371680   20.732688   23.021048 H          1 MOL1         0.3769
      29    C9      14.882221   18.247637   21.999195 C.3        1 MOL1         0.1053
      30    H14     15.685293   18.604735   22.659085 H          1 MOL1         0.0783
      31    O8      14.042935   17.332750   22.712692 O.3        1 MOL1        -0.5519
      32    H15     13.532339   17.889285   23.341949 H          1 MOL1         0.3769
      33    C10     15.538315   17.532483   20.792818 C.3        1 MOL1         0.1018
      34    H16     14.750593   17.028640   20.217372 H          1 MOL1         0.0783
      35    C11     16.288344   18.527960   19.865075 C.3        1 MOL1         0.1043
      36    H17     17.135456   18.953662   20.416479 H          1 MOL1         0.0783
      37    O9      15.367827   19.586096   19.506478 O.3        1 MOL1        -0.3740
      38    C12     16.866521   17.913936   18.564253 C.3        1 MOL1         0.0138
      39    H18     17.874934   17.535980   18.774614 H          1 MOL1         0.0794
      40    H19     16.983785   18.716428   17.823986 H          1 MOL1         0.0794
      41    O10     16.058104   16.858916   18.028834 O.3        1 MOL1        -0.5486
      42    H20     16.276266   16.047713   18.543524 H          1 MOL1         0.3769
      43    C13     18.406380   24.149090   21.963859 C.3        1 MOL1         0.2972
      44    H21     18.810591   25.162166   22.086207 H          1 MOL1         0.0751
      45    O11     19.445079   23.155685   22.024860 O.3        1 MOL1        -0.3740
      46    C14     17.397930   23.850327   23.098709 C.3        1 MOL1         0.1003
      47    H22     16.589852   24.590185   23.030516 H          1 MOL1         0.0783
      48    O12     18.043991   23.963938   24.376607 O.3        1 MOL1        -0.5519
      49    H23     18.994485   23.737024   24.230285 H          1 MOL1         0.3769
      50    C15     16.778218   22.444305   22.927853 C.3        1 MOL1         0.1053
      51    H24     17.569729   21.699770   23.093231 H          1 MOL1         0.0783
      52    O13     15.729896   22.259965   23.887235 O.3        1 MOL1        -0.5519
      53    H25     16.116040   22.548498   24.743802 H          1 MOL1         0.3769
      54    C16     16.217007   22.242347   21.500401 C.3        1 MOL1         0.1018
      55    H26     15.275750   22.800738   21.411903 H          1 MOL1         0.0783
      56    C17     17.219077   22.689117   20.398470 C.3        1 MOL1         0.1043
      57    H27     18.046930   21.967708   20.393523 H          1 MOL1         0.0783
      58    O14     17.728995   24.015081   20.698262 O.3        1 MOL1        -0.3740
      59    C18     16.625519   22.721993   18.969721 C.3        1 MOL1         0.0138
      60    H28     16.511390   21.690308   18.613388 H          1 MOL1         0.0794
      61    H29     17.347434   23.211929   18.302750 H          1 MOL1         0.0794
      62    O15     15.364350   23.401905   18.922897 O.3        1 MOL1        -0.5486
      63    H30     15.081200   23.438140   17.983445 H          1 MOL1         0.3769
      64    C19     23.556336   22.746171   21.377713 C.3        1 MOL1         0.2972
      65    H31     24.606438   22.951817   21.133608 H          1 MOL1         0.0751
      66    O16     23.351676   21.358687   21.697184 O.3        1 MOL1        -0.3740
      67    C20     23.137288   23.575325   22.616642 C.3        1 MOL1         0.1003
      68    H32     23.292760   24.635032   22.376038 H          1 MOL1         0.0783
      69    O17     23.947975   23.219187   23.747796 O.3        1 MOL1        -0.5519
      70    H33     24.205895   22.273757   23.620640 H          1 MOL1         0.3769
      71    C21     21.638106   23.371315   22.938934 C.3        1 MOL1         0.1053
      72    H34     21.494285   22.332518   23.267275 H          1 MOL1         0.0783
      73    O18     21.245948   24.269136   23.983360 O.3        1 MOL1        -0.5519
      74    H35     21.946801   24.185745   24.667507 H          1 MOL1         0.3769
      75    C22     20.767239   23.606099   21.681714 C.3        1 MOL1         0.1018
      76    H36     20.788666   24.675857   21.435486 H          1 MOL1         0.0783
      77    C23     21.286676   22.789322   20.464734 C.3        1 MOL1         0.1043
      78    H37     21.161707   21.722370   20.691156 H          1 MOL1         0.0783
      79    O19     22.693985   23.087680   20.271677 O.3        1 MOL1        -0.3740
      80    C24     20.555742   23.056534   19.123906 C.3        1 MOL1         0.0138
      81    H38     19.701873   22.372593   19.049286 H          1 MOL1         0.0794
      82    H39     21.232843   22.796331   18.299712 H          1 MOL1         0.0794
      83    O20     20.110452   24.410767   18.982719 O.3        1 MOL1        -0.5486
      84    H40     19.286783   24.493844   19.517939 H          1 MOL1         0.3769
      85    C25     24.938792   17.576743   20.895500 C.3        1 MOL1         0.2972
      86    H41     25.555789   16.746972   20.527380 H          1 MOL1         0.0751
      87    O21     23.764956   17.109480   21.581386 O.3        1 MOL1        -0.3740
      88    C26     25.728635   18.441291   21.909836 C.3        1 MOL1         0.1003
      89    H42     26.629977   18.810006   21.403330 H          1 MOL1         0.0783
      90    O22     26.105969   17.653231   23.051554 O.3        1 MOL1        -0.5519
      91    H43     25.306407   17.133902   23.317473 H          1 MOL1         0.3769
      92    C27     24.890886   19.664224   22.361346 C.3        1 MOL1         0.1053
      93    H44     24.049097   19.297043   22.965245 H          1 MOL1         0.0783
      94    O23     25.705690   20.538760   23.150198 O.3        1 MOL1        -0.5519
      95    H45     26.165662   19.953302   23.791785 H          1 MOL1         0.3769
      96    C28     24.307928   20.433460   21.149888 C.3        1 MOL1         0.1018
      97    H46     25.130640   20.945850   20.634105 H          1 MOL1         0.0783
      98    C29     23.592266   19.476980   20.153821 C.3        1 MOL1         0.1043
      99    H47     22.714436   19.045047   20.650331 H          1 MOL1         0.0783
     100    O24     24.520009   18.422420   19.803520 O.3        1 MOL1        -0.3740
     101    C30     23.086170   20.126271   18.841241 C.3        1 MOL1         0.0138
     102    H48     22.069325   20.502512   19.007803 H          1 MOL1         0.0794
     103    H49     23.001881   19.341726   18.077475 H          1 MOL1         0.0794
     104    O25     23.929392   21.185824   18.372962 O.3        1 MOL1        -0.5486
     105    H50     23.681510   21.988217   18.888174 H          1 MOL1         0.3769
     106    C31     21.355885   13.765439   21.873764 C.3        1 MOL1         0.2972
     107    H51     20.942767   12.750300   21.932270 H          1 MOL1         0.0751
     108    O26     20.318685   14.762489   21.893416 O.3        1 MOL1        -0.3740
     109    C32     22.280377   14.021693   23.087345 C.3        1 MOL1         0.1003
     110    H52     23.093252   13.284906   23.049263 H          1 MOL1         0.0783
     111    O27     21.546477   13.861549   24.311997 O.3        1 MOL1        -0.5519
     112    H53     20.605812   14.088983   24.109696 H          1 MOL1         0.3769
     113    C33     22.906497   15.432942   23.011290 C.3        1 MOL1         0.1053
     114    H54     22.103784   16.170704   23.149874 H          1 MOL1         0.0783
     115    O28     23.885764   15.581827   24.046605 O.3        1 MOL1        -0.5519
     116    H55     23.443028   15.261453   24.863515 H          1 MOL1         0.3769
     117    C34     23.564253   15.688120   21.634384 C.3        1 MOL1         0.1018
     118    H56     24.513748   15.138048   21.594934 H          1 MOL1         0.0783
     119    C35     22.649108   15.273495   20.445912 C.3        1 MOL1         0.1043
     120    H57     21.820025   15.990868   20.398114 H          1 MOL1         0.0783
     121    O29     22.122739   13.938514   20.665576 O.3        1 MOL1        -0.3740
     122    C36     23.346589   15.287151   19.064813 C.3        1 MOL1         0.0138
     123    H58     23.480305   16.330073   18.749938 H          1 MOL1         0.0794
     124    H59     22.678144   14.816103   18.331804 H          1 MOL1         0.0794
     125    O30     24.611403   14.612865   19.090158 O.3        1 MOL1        -0.5486
     126    H60     24.962303   14.605345   18.173159 H          1 MOL1         0.3769
     127    C1      19.973926   18.808749   20.196702 C.2        1 MOL1         0.6021
     128    O1      20.509123   17.988758   19.475859 O.co2      1 MOL1        -0.6904
     129    O2      19.528935   19.868775   19.798902 O.co2      1 MOL1        -0.6904
     130    C2      19.836652   18.462593   21.679585 C.3        1 MOL1        -0.2102
     131    H1      20.427102   17.559937   21.874846 H          1 MOL1         0.0687
     132    H2      18.788515   18.208766   21.869263 H          1 MOL1         0.0687
     133    C3      20.283962   19.591230   22.638985 C.3        1 MOL1        -0.1974
     134    H3      21.331534   19.846440   22.441075 H          1 MOL1         0.0689
     135    H4      19.689756   20.493471   22.443600 H          1 MOL1         0.0689
     136    C4      20.126484   19.179840   24.115460 C.3        1 MOL1        -0.2987
     137    H5      20.447224   19.993773   24.778278 H          1 MOL1         0.0700
     138    H6      19.079221   18.945413   24.346525 H          1 MOL1         0.0700
     139    H7      20.735726   18.295228   24.342514 H          1 MOL1         0.0700
@<TRIPOS>BOND
    1     1     2    1
    2     1     3    1
    3     1     4    1
    4     4     5    1
    5     4     6    1
    6     6     7    1
    7     4     8    1
    8     8     9    1
    9     8    10    1
   10    10    11    1
   11     8    12    1
   12    12    13    1
   13    12    14    1
   14    14    15    1
   15     1    16    1
   16    14    16    1
   17    14    17    1
   18    17    18    1
   19    17    19    1
   20    17    20    1
   21    20    21    1
   22    22    23    1
   23    22    24    1
   24    22    25    1
   25    25    26    1
   26    25    27    1
   27    27    28    1
   28    25    29    1
   29    29    30    1
   30    29    31    1
   31    31    32    1
   32     3    33    1
   33    29    33    1
   34    33    34    1
   35    33    35    1
   36    35    36    1
   37    22    37    1
   38    35    37    1
   39    35    38    1
   40    38    39    1
   41    38    40    1
   42    38    41    1
   43    41    42    1
   44    43    44    1
   45    43    45    1
   46    43    46    1
   47    46    47    1
   48    46    48    1
   49    48    49    1
   50    46    50    1
   51    50    51    1
   52    50    52    1
   53    52    53    1
   54    24    54    1
   55    50    54    1
   56    54    55    1
   57    54    56    1
   58    56    57    1
   59    43    58    1
   60    56    58    1
   61    56    59    1
   62    59    60    1
   63    59    61    1
   64    59    62    1
   65    62    63    1
   66    64    65    1
   67    64    66    1
   68    64    67    1
   69    67    68    1
   70    67    69    1
   71    69    70    1
   72    67    71    1
   73    71    72    1
   74    71    73    1
   75    73    74    1
   76    45    75    1
   77    71    75    1
   78    75    76    1
   79    75    77    1
   80    77    78    1
   81    64    79    1
   82    77    79    1
   83    77    80    1
   84    80    81    1
   85    80    82    1
   86    80    83    1
   87    83    84    1
   88    85    86    1
   89    85    87    1
   90    85    88    1
   91    88    89    1
   92    88    90    1
   93    90    91    1
   94    88    92    1
   95    92    93    1
   96    92    94    1
   97    94    95    1
   98    66    96    1
   99    92    96    1
  100    96    97    1
  101    96    98    1
  102    98    99    1
  103    85   100    1
  104    98   100    1
  105    98   101    1
  106   101   102    1
  107   101   103    1
  108   101   104    1
  109   104   105    1
  110   106   107    1
  111    12   108    1
  112   106   108    1
  113   106   109    1
  114   109   110    1
  115   109   111    1
  116   111   112    1
  117   109   113    1
  118   113   114    1
  119   113   115    1
  120   115   116    1
  121    87   117    1
  122   113   117    1
  123   117   118    1
  124   117   119    1
  125   119   120    1
  126   106   121    1
  127   119   121    1
  128   119   122    1
  129   122   123    1
  130   122   124    1
  131   122   125    1
  132   125   126    1
  133   127   128    1
  134   127   129    2
  135   127   130    1
  136   130   131    1
  137   130   132    1
  138   130   133    1
  139   133   134    1
  140   133   135    1
  141   133   136    1
  142   136   137    1
  143   136   138    1
  144   136   139    1
@<TRIPOS>SUBSTRUCTURE
       1 MOL1            1 RESIDUE      1      MOL     
       2 MOL1          139 RESIDUE      1      MOL     
@<SCITEGIC>MOL_PROPERTY
feprocess Rank
SciTegic.value.IntegerValue
74

@<SCITEGIC>MOL_PROPERTY
Conf_Id
SciTegic.value.IntegerValue
226

@<SCITEGIC>MOL_PROPERTY
Probability
SciTegic.value.DoubleValue
0.00

@<SCITEGIC>MOL_PROPERTY
G
SciTegic.value.DoubleValue
491.748

@<SCITEGIC>MOL_PROPERTY
E
SciTegic.value.DoubleValue
317.442

@<SCITEGIC>MOL_PROPERTY
-TS
SciTegic.value.DoubleValue
174.306

@<SCITEGIC>MOL_PROPERTY
U+W
SciTegic.value.DoubleValue
194.931

@<SCITEGIC>MOL_PROPERTY
U
SciTegic.value.DoubleValue
261.711

@<SCITEGIC>MOL_PROPERTY
W
SciTegic.value.DoubleValue
-66.780

@<SCITEGIC>MOL_PROPERTY
W(PB)
SciTegic.value.DoubleValue
-72.636

@<SCITEGIC>MOL_PROPERTY
W(SA)
SciTegic.value.DoubleValue
5.856

@<SCITEGIC>MOL_PROPERTY
Valence
SciTegic.value.DoubleValue
153.517

@<SCITEGIC>MOL_PROPERTY
Coulomb
SciTegic.value.DoubleValue
135.525

@<SCITEGIC>MOL_PROPERTY
VdW
SciTegic.value.DoubleValue
-27.331

@<SCITEGIC>MOL_PROPERTY
VdW6
SciTegic.value.DoubleValue
-177.469

@<SCITEGIC>MOL_PROPERTY
VdW12
SciTegic.value.DoubleValue
150.137

@<SCITEGIC>MOL_PROPERTY
Bond
SciTegic.value.DoubleValue
4.280

@<SCITEGIC>MOL_PROPERTY
Angle
SciTegic.value.DoubleValue
12.811

@<SCITEGIC>MOL_PROPERTY
Pdih
SciTegic.value.DoubleValue
136.425

@<SCITEGIC>MOL_PROPERTY
Idih
SciTegic.value.DoubleValue
0.001

@<SCITEGIC>MOL_PROPERTY
Tether
SciTegic.value.DoubleValue
0.000

@<TRIPOS>MOLECULE
CD_guest-6_fast_vm2_rndm.mol2 : feprocess host+ligand conformer 75
         139         144           2
SMALL
USER_CHARGES
 
@<TRIPOS>ATOM
       1    C1      16.223866   15.298690   20.680921 C.3        1 MOL1         0.2972
       2    H1      15.192515   15.182268   20.323648 H          1 MOL1         0.0751
       3    O1      16.445024   16.600948   21.255730 O.3        1 MOL1        -0.3740
       4    C2      16.558036   14.236769   21.761328 C.3        1 MOL1         0.1003
       5    H2      16.402846   13.249682   21.306827 H          1 MOL1         0.0783
       6    O2      15.691993   14.371168   22.900110 O.3        1 MOL1        -0.5519
       7    H3      15.666778   15.332246   23.140804 H          1 MOL1         0.3769
       8    C3      18.043098   14.330199   22.197717 C.3        1 MOL1         0.1053
       9    H4      18.183869   15.277838   22.736131 H          1 MOL1         0.0783
      10    O3      18.353915   13.230302   23.060544 O.3        1 MOL1        -0.5519
      11    H5      17.615935   13.196300   23.708775 H          1 MOL1         0.3769
      12    C4      18.994961   14.324742   20.974443 C.3        1 MOL1         0.1018
      13    H6      18.986306   13.318415   20.535646 H          1 MOL1         0.0783
      14    C5      18.543156   15.362686   19.907439 C.3        1 MOL1         0.1043
      15    H7      18.645435   16.363041   20.341907 H          1 MOL1         0.0783
      16    O4      17.150799   15.128713   19.587838 O.3        1 MOL1        -0.3740
      17    C6      19.341871   15.356688   18.579972 C.3        1 MOL1         0.0138
      18    H8      20.211270   16.014728   18.693065 H          1 MOL1         0.0794
      19    H9      18.713738   15.798011   17.794733 H          1 MOL1         0.0794
      20    O5      19.772994   14.050035   18.185025 O.3        1 MOL1        -0.5486
      21    H10     20.638343   13.896591   18.628805 H          1 MOL1         0.3769
      22    C7      14.693308   20.310416   21.754156 C.3        1 MOL1         0.2972
      23    H11     14.018799   21.169263   21.862792 H          1 MOL1         0.0751
      24    O6      16.074913   20.713942   21.731261 O.3        1 MOL1        -0.3740
      25    C8      14.499682   19.334983   22.940012 C.3        1 MOL1         0.1003
      26    H12     13.462534   18.976506   22.909670 H          1 MOL1         0.0783
      27    O7      14.734271   20.003553   24.189743 O.3        1 MOL1        -0.5519
      28    H13     15.372136   20.739147   24.009989 H          1 MOL1         0.3769
      29    C9      15.433374   18.111544   22.796753 C.3        1 MOL1         0.1053
      30    H14     16.467606   18.460119   22.900758 H          1 MOL1         0.0783
      31    O8      15.136946   17.160684   23.825133 O.3        1 MOL1        -0.5519
      32    H15     15.073906   17.693138   24.649422 H          1 MOL1         0.3769
      33    C10     15.288947   17.446879   21.407218 C.3        1 MOL1         0.1018
      34    H16     14.353238   16.872345   21.395038 H          1 MOL1         0.0783
      35    C11     15.301755   18.478883   20.241304 C.3        1 MOL1         0.1043
      36    H17     16.328250   18.852416   20.135490 H          1 MOL1         0.0783
      37    O9      14.418299   19.594958   20.531724 O.3        1 MOL1        -0.3740
      38    C12     14.890849   17.877204   18.876217 C.3        1 MOL1         0.0138
      39    H18     15.697089   17.217588   18.528229 H          1 MOL1         0.0794
      40    H19     14.800356   18.693064   18.146578 H          1 MOL1         0.0794
      41    O10     13.662733   17.142996   18.957605 O.3        1 MOL1        -0.5486
      42    H20     13.430028   16.850516   18.049488 H          1 MOL1         0.3769
      43    C13     18.492889   24.083549   21.261651 C.3        1 MOL1         0.2972
      44    H21     18.858901   25.103208   21.086447 H          1 MOL1         0.0751
      45    O11     19.576705   23.155661   21.453810 O.3        1 MOL1        -0.3740
      46    C14     17.628746   24.049032   22.547012 C.3        1 MOL1         0.1003
      47    H22     16.788599   24.740338   22.401200 H          1 MOL1         0.0783
      48    O12     18.402996   24.474411   23.679846 O.3        1 MOL1        -0.5519
      49    H23     19.333523   24.181781   23.514549 H          1 MOL1         0.3769
      50    C15     17.049201   22.633767   22.786656 C.3        1 MOL1         0.1053
      51    H24     17.880683   21.953496   23.019033 H          1 MOL1         0.0783
      52    O13     16.132763   22.672378   23.885569 O.3        1 MOL1        -0.5519
      53    H25     16.598281   23.182348   24.585670 H          1 MOL1         0.3769
      54    C16     16.332568   22.113029   21.517661 C.3        1 MOL1         0.1018
      55    H26     15.408130   22.688164   21.376311 H          1 MOL1         0.0783
      56    C17     17.222884   22.255070   20.251752 C.3        1 MOL1         0.1043
      57    H27     18.088234   21.592655   20.364572 H          1 MOL1         0.0783
      58    O14     17.690616   23.624764   20.148733 O.3        1 MOL1        -0.3740
      59    C18     16.530095   21.852704   18.924187 C.3        1 MOL1         0.0138
      60    H28     16.674732   20.775255   18.772095 H          1 MOL1         0.0794
      61    H29     17.037644   22.363069   18.094826 H          1 MOL1         0.0794
      62    O15     15.129574   22.150679   18.902732 O.3        1 MOL1        -0.5486
      63    H30     14.677663   21.427306   19.395342 H          1 MOL1         0.3769
      64    C19     23.631795   22.588129   20.599082 C.3        1 MOL1         0.2972
      65    H31     24.662212   22.715418   20.245483 H          1 MOL1         0.0751
      66    O16     23.389216   21.228070   21.017206 O.3        1 MOL1        -0.3740
      67    C20     23.306309   23.589102   21.745080 C.3        1 MOL1         0.1003
      68    H32     23.432528   24.596315   21.327065 H          1 MOL1         0.0783
      69    O17     24.198201   23.447438   22.860267 O.3        1 MOL1        -0.5519
      70    H33     23.995172   22.571502   23.276387 H          1 MOL1         0.3769
      71    C21     21.830172   23.454619   22.197138 C.3        1 MOL1         0.1053
      72    H34     21.692560   22.464123   22.654445 H          1 MOL1         0.0783
      73    O18     21.521995   24.480804   23.147741 O.3        1 MOL1        -0.5519
      74    H35     22.265727   24.470786   23.789805 H          1 MOL1         0.3769
      75    C22     20.873926   23.564697   20.984775 C.3        1 MOL1         0.1018
      76    H36     20.877392   24.603839   20.630583 H          1 MOL1         0.0783
      77    C23     21.307888   22.620312   19.830459 C.3        1 MOL1         0.1043
      78    H37     21.187402   21.587937   20.177988 H          1 MOL1         0.0783
      79    O19     22.705521   22.863564   19.523604 O.3        1 MOL1        -0.3740
      80    C24     20.481986   22.750376   18.525462 C.3        1 MOL1         0.0138
      81    H38     19.613377   22.083938   18.597766 H          1 MOL1         0.0794
      82    H39     21.092635   22.385723   17.688811 H          1 MOL1         0.0794
      83    O20     20.038839   24.086981   18.265705 O.3        1 MOL1        -0.5486
      84    H40     19.212575   24.214778   18.786002 H          1 MOL1         0.3769
      85    C25     24.877196   17.680097   22.451091 C.3        1 MOL1         0.2972
      86    H41     25.438473   16.835940   22.871190 H          1 MOL1         0.0751
      87    O21     23.630059   17.254465   21.868255 O.3        1 MOL1        -0.3740
      88    C26     24.585163   18.730222   23.551381 C.3        1 MOL1         0.1003
      89    H42     25.549249   19.140314   23.877611 H          1 MOL1         0.0783
      90    O22     23.935813   18.125424   24.679416 O.3        1 MOL1        -0.5519
      91    H43     22.990321   17.953444   24.414602 H          1 MOL1         0.3769
      92    C27     23.746547   19.888485   22.959703 C.3        1 MOL1         0.1053
      93    H44     22.790787   19.472219   22.625180 H          1 MOL1         0.0783
      94    O23     23.495491   20.891152   23.949716 O.3        1 MOL1        -0.5519
      95    H45     22.640116   20.601840   24.371206 H          1 MOL1         0.3769
      96    C28     24.428751   20.508824   21.714748 C.3        1 MOL1         0.1018
      97    H46     25.246054   21.162961   22.042047 H          1 MOL1         0.0783
      98    C29     24.958724   19.428480   20.724784 C.3        1 MOL1         0.1043
      99    H47     24.088571   19.015951   20.200492 H          1 MOL1         0.0783
     100    O24     25.638161   18.347681   21.419852 O.3        1 MOL1        -0.3740
     101    C30     25.912620   19.991612   19.643795 C.3        1 MOL1         0.0138
     102    H48     25.349035   20.678312   18.997885 H          1 MOL1         0.0794
     103    H49     26.249137   19.159197   19.011512 H          1 MOL1         0.0794
     104    O25     27.046747   20.664277   20.207118 O.3        1 MOL1        -0.5486
     105    H50     26.734307   21.477233   20.655312 H          1 MOL1         0.3769
     106    C31     21.404023   13.847677   21.066891 C.3        1 MOL1         0.2972
     107    H51     21.058518   12.853870   20.755053 H          1 MOL1         0.0751
     108    O26     20.299918   14.681780   21.477455 O.3        1 MOL1        -0.3740
     109    C32     22.364712   13.704926   22.272016 C.3        1 MOL1         0.1003
     110    H52     23.192791   13.058262   21.953936 H          1 MOL1         0.0783
     111    O27     21.678948   13.088595   23.373657 O.3        1 MOL1        -0.5519
     112    H53     20.759309   13.448954   23.364472 H          1 MOL1         0.3769
     113    C33     22.966256   15.067740   22.700505 C.3        1 MOL1         0.1053
     114    H54     22.169178   15.659853   23.169320 H          1 MOL1         0.0783
     115    O28     24.016414   14.819462   23.641164 O.3        1 MOL1        -0.5519
     116    H55     23.603092   14.286697   24.354604 H          1 MOL1         0.3769
     117    C34     23.514045   15.870273   21.488785 C.3        1 MOL1         0.1018
     118    H56     24.480828   15.449490   21.184457 H          1 MOL1         0.0783
     119    C35     22.537461   15.854789   20.283463 C.3        1 MOL1         0.1043
     120    H57     21.659146   16.442799   20.569845 H          1 MOL1         0.0783
     121    O29     22.119555   14.498556   19.995163 O.3        1 MOL1        -0.3740
     122    C36     23.106272   16.498578   18.992155 C.3        1 MOL1         0.0138
     123    H58     22.906598   17.577098   19.029285 H          1 MOL1         0.0794
     124    H59     22.555284   16.104058   18.128267 H          1 MOL1         0.0794
     125    O30     24.511452   16.274787   18.821567 O.3        1 MOL1        -0.5486
     126    H60     24.972595   16.745236   19.551255 H          1 MOL1         0.3769
     127    C1      20.580030   18.810467   23.859340 C.2        1 MOL1         0.6021
     128    O1      21.246726   17.809895   24.032638 O.co2      1 MOL1        -0.6904
     129    O2      20.872147   19.895366   24.327859 O.co2      1 MOL1        -0.6904
     130    C2      19.322152   18.694189   23.003490 C.3        1 MOL1        -0.2102
     131    H1      18.493204   19.043933   23.627971 H          1 MOL1         0.0687
     132    H2      19.137363   17.634960   22.787615 H          1 MOL1         0.0687
     133    C3      19.347948   19.511771   21.686805 C.3        1 MOL1        -0.1974
     134    H3      18.340977   19.502667   21.255899 H          1 MOL1         0.0689
     135    H4      19.594326   20.555420   21.918520 H          1 MOL1         0.0689
     136    C4      20.332769   18.966771   20.634070 C.3        1 MOL1        -0.2987
     137    H5      20.091210   17.932895   20.380805 H          1 MOL1         0.0700
     138    H6      20.281217   19.555538   19.710549 H          1 MOL1         0.0700
     139    H7      21.364151   18.997158   21.003673 H          1 MOL1         0.0700
@<TRIPOS>BOND
    1     1     2    1
    2     1     3    1
    3     1     4    1
    4     4     5    1
    5     4     6    1
    6     6     7    1
    7     4     8    1
    8     8     9    1
    9     8    10    1
   10    10    11    1
   11     8    12    1
   12    12    13    1
   13    12    14    1
   14    14    15    1
   15     1    16    1
   16    14    16    1
   17    14    17    1
   18    17    18    1
   19    17    19    1
   20    17    20    1
   21    20    21    1
   22    22    23    1
   23    22    24    1
   24    22    25    1
   25    25    26    1
   26    25    27    1
   27    27    28    1
   28    25    29    1
   29    29    30    1
   30    29    31    1
   31    31    32    1
   32     3    33    1
   33    29    33    1
   34    33    34    1
   35    33    35    1
   36    35    36    1
   37    22    37    1
   38    35    37    1
   39    35    38    1
   40    38    39    1
   41    38    40    1
   42    38    41    1
   43    41    42    1
   44    43    44    1
   45    43    45    1
   46    43    46    1
   47    46    47    1
   48    46    48    1
   49    48    49    1
   50    46    50    1
   51    50    51    1
   52    50    52    1
   53    52    53    1
   54    24    54    1
   55    50    54    1
   56    54    55    1
   57    54    56    1
   58    56    57    1
   59    43    58    1
   60    56    58    1
   61    56    59    1
   62    59    60    1
   63    59    61    1
   64    59    62    1
   65    62    63    1
   66    64    65    1
   67    64    66    1
   68    64    67    1
   69    67    68    1
   70    67    69    1
   71    69    70    1
   72    67    71    1
   73    71    72    1
   74    71    73    1
   75    73    74    1
   76    45    75    1
   77    71    75    1
   78    75    76    1
   79    75    77    1
   80    77    78    1
   81    64    79    1
   82    77    79    1
   83    77    80    1
   84    80    81    1
   85    80    82    1
   86    80    83    1
   87    83    84    1
   88    85    86    1
   89    85    87    1
   90    85    88    1
   91    88    89    1
   92    88    90    1
   93    90    91    1
   94    88    92    1
   95    92    93    1
   96    92    94    1
   97    94    95    1
   98    66    96    1
   99    92    96    1
  100    96    97    1
  101    96    98    1
  102    98    99    1
  103    85   100    1
  104    98   100    1
  105    98   101    1
  106   101   102    1
  107   101   103    1
  108   101   104    1
  109   104   105    1
  110   106   107    1
  111    12   108    1
  112   106   108    1
  113   106   109    1
  114   109   110    1
  115   109   111    1
  116   111   112    1
  117   109   113    1
  118   113   114    1
  119   113   115    1
  120   115   116    1
  121    87   117    1
  122   113   117    1
  123   117   118    1
  124   117   119    1
  125   119   120    1
  126   106   121    1
  127   119   121    1
  128   119   122    1
  129   122   123    1
  130   122   124    1
  131   122   125    1
  132   125   126    1
  133   127   128    1
  134   127   129    2
  135   127   130    1
  136   130   131    1
  137   130   132    1
  138   130   133    1
  139   133   134    1
  140   133   135    1
  141   133   136    1
  142   136   137    1
  143   136   138    1
  144   136   139    1
@<TRIPOS>SUBSTRUCTURE
       1 MOL1            1 RESIDUE      1      MOL     
       2 MOL1          139 RESIDUE      1      MOL     
@<SCITEGIC>MOL_PROPERTY
feprocess Rank
SciTegic.value.IntegerValue
75

@<SCITEGIC>MOL_PROPERTY
Conf_Id
SciTegic.value.IntegerValue
32

@<SCITEGIC>MOL_PROPERTY
Probability
SciTegic.value.DoubleValue
0.00

@<SCITEGIC>MOL_PROPERTY
G
SciTegic.value.DoubleValue
491.884

@<SCITEGIC>MOL_PROPERTY
E
SciTegic.value.DoubleValue
315.696

@<SCITEGIC>MOL_PROPERTY
-TS
SciTegic.value.DoubleValue
176.188

@<SCITEGIC>MOL_PROPERTY
U+W
SciTegic.value.DoubleValue
193.184

@<SCITEGIC>MOL_PROPERTY
U
SciTegic.value.DoubleValue
266.657

@<SCITEGIC>MOL_PROPERTY
W
SciTegic.value.DoubleValue
-73.472

@<SCITEGIC>MOL_PROPERTY
W(PB)
SciTegic.value.DoubleValue
-79.420

@<SCITEGIC>MOL_PROPERTY
W(SA)
SciTegic.value.DoubleValue
5.948

@<SCITEGIC>MOL_PROPERTY
Valence
SciTegic.value.DoubleValue
155.364

@<SCITEGIC>MOL_PROPERTY
Coulomb
SciTegic.value.DoubleValue
134.347

@<SCITEGIC>MOL_PROPERTY
VdW
SciTegic.value.DoubleValue
-23.054

@<SCITEGIC>MOL_PROPERTY
VdW6
SciTegic.value.DoubleValue
-176.586

@<SCITEGIC>MOL_PROPERTY
VdW12
SciTegic.value.DoubleValue
153.531

@<SCITEGIC>MOL_PROPERTY
Bond
SciTegic.value.DoubleValue
5.012

@<SCITEGIC>MOL_PROPERTY
Angle
SciTegic.value.DoubleValue
15.163

@<SCITEGIC>MOL_PROPERTY
Pdih
SciTegic.value.DoubleValue
135.189

@<SCITEGIC>MOL_PROPERTY
Idih
SciTegic.value.DoubleValue
0.000

@<SCITEGIC>MOL_PROPERTY
Tether
SciTegic.value.DoubleValue
0.000

@<TRIPOS>MOLECULE
CD_guest-6_fast_vm2_rndm.mol2 : feprocess host+ligand conformer 76
         139         144           2
SMALL
USER_CHARGES
 
@<TRIPOS>ATOM
       1    C1      16.135221   15.246868   20.626486 C.3        1 MOL1         0.2972
       2    H1      15.201996   15.064610   20.078595 H          1 MOL1         0.0751
       3    O1      15.953334   16.259885   21.629222 O.3        1 MOL1        -0.3740
       4    C2      16.587735   13.949365   21.345297 C.3        1 MOL1         0.1003
       5    H2      16.650244   13.162919   20.581966 H          1 MOL1         0.0783
       6    O2      15.619281   13.572541   22.335552 O.3        1 MOL1        -0.5519
       7    H3      15.443362   14.391661   22.854623 H          1 MOL1         0.3769
       8    C3      17.987232   14.084952   22.002584 C.3        1 MOL1         0.1053
       9    H4      17.901195   14.750099   22.873008 H          1 MOL1         0.0783
      10    O3      18.399641   12.778301   22.418176 O.3        1 MOL1        -0.5519
      11    H5      17.651146   12.427922   22.948892 H          1 MOL1         0.3769
      12    C4      19.020238   14.705344   21.021994 C.3        1 MOL1         0.1018
      13    H6      19.241803   13.975196   20.232874 H          1 MOL1         0.0783
      14    C5      18.450038   15.991975   20.368585 C.3        1 MOL1         0.1043
      15    H7      18.286470   16.742915   21.153169 H          1 MOL1         0.0783
      16    O4      17.191933   15.665108   19.734350 O.3        1 MOL1        -0.3740
      17    C6      19.372839   16.629377   19.301212 C.3        1 MOL1         0.0138
      18    H8      20.140800   17.220145   19.815575 H          1 MOL1         0.0794
      19    H9      18.781327   17.332730   18.700474 H          1 MOL1         0.0794
      20    O5      19.991448   15.654796   18.450964 O.3        1 MOL1        -0.5486
      21    H10     20.510099   15.050069   19.025270 H          1 MOL1         0.3769
      22    C7      14.679102   20.205552   21.487964 C.3        1 MOL1         0.2972
      23    H11     14.107956   21.142040   21.442163 H          1 MOL1         0.0751
      24    O6      16.095311   20.459199   21.549557 O.3        1 MOL1        -0.3740
      25    C8      14.238251   19.404477   22.730645 C.3        1 MOL1         0.1003
      26    H12     13.163065   19.208813   22.626703 H          1 MOL1         0.0783
      27    O7      14.464275   20.171896   23.924075 O.3        1 MOL1        -0.5519
      28    H13     15.132820   20.861996   23.693637 H          1 MOL1         0.3769
      29    C9      14.959127   18.041190   22.809687 C.3        1 MOL1         0.1053
      30    H14     16.014741   18.232255   23.051528 H          1 MOL1         0.0783
      31    O8      14.351544   17.271102   23.854098 O.3        1 MOL1        -0.5519
      32    H15     14.396117   17.845339   24.649459 H          1 MOL1         0.3769
      33    C10     14.908469   17.250133   21.472483 C.3        1 MOL1         0.1018
      34    H16     13.926594   16.766835   21.392883 H          1 MOL1         0.0783
      35    C11     15.156919   18.154575   20.217091 C.3        1 MOL1         0.1043
      36    H17     16.231400   18.367568   20.168277 H          1 MOL1         0.0783
      37    O9      14.422992   19.402537   20.324138 O.3        1 MOL1        -0.3740
      38    C12     14.721381   17.544021   18.857525 C.3        1 MOL1         0.0138
      39    H18     15.475819   16.831825   18.507769 H          1 MOL1         0.0794
      40    H19     14.692030   18.349239   18.110921 H          1 MOL1         0.0794
      41    O10     13.442364   16.902937   18.933945 O.3        1 MOL1        -0.5486
      42    H20     13.190762   16.629894   18.024692 H          1 MOL1         0.3769
      43    C13     18.630348   23.735068   20.764138 C.3        1 MOL1         0.2972
      44    H21     19.001362   24.687235   20.363347 H          1 MOL1         0.0751
      45    O11     19.666559   23.005585   21.440982 O.3        1 MOL1        -0.3740
      46    C14     17.491874   23.976479   21.791877 C.3        1 MOL1         0.1003
      47    H22     16.708995   24.554430   21.283950 H          1 MOL1         0.0783
      48    O12     17.975012   24.723516   22.921043 O.3        1 MOL1        -0.5519
      49    H23     18.826652   24.305770   23.206492 H          1 MOL1         0.3769
      50    C15     16.867621   22.638603   22.264831 C.3        1 MOL1         0.1053
      51    H24     17.616121   22.099594   22.859669 H          1 MOL1         0.0783
      52    O13     15.711177   22.907207   23.064623 O.3        1 MOL1        -0.5519
      53    H25     15.989395   23.614316   23.688348 H          1 MOL1         0.3769
      54    C16     16.485808   21.754636   21.053490 C.3        1 MOL1         0.1018
      55    H26     15.668151   22.244756   20.508057 H          1 MOL1         0.0783
      56    C17     17.681971   21.581098   20.083685 C.3        1 MOL1         0.1043
      57    H27     18.488520   21.053324   20.607922 H          1 MOL1         0.0783
      58    O14     18.132471   22.900741   19.693183 O.3        1 MOL1        -0.3740
      59    C18     17.362061   20.770007   18.801733 C.3        1 MOL1         0.0138
      60    H28     17.507905   19.704993   19.019603 H          1 MOL1         0.0794
      61    H29     18.093794   21.037195   18.027765 H          1 MOL1         0.0794
      62    O15     16.031309   20.985082   18.315087 O.3        1 MOL1        -0.5486
      63    H30     15.413301   20.558212   18.953345 H          1 MOL1         0.3769
      64    C19     23.731081   22.822628   21.938279 C.3        1 MOL1         0.2972
      65    H31     24.810329   22.986295   22.054427 H          1 MOL1         0.0751
      66    O16     23.410410   21.417840   21.900851 O.3        1 MOL1        -0.3740
      67    C20     22.975482   23.458180   23.129013 C.3        1 MOL1         0.1003
      68    H32     23.169512   24.538540   23.112515 H          1 MOL1         0.0783
      69    O17     23.449069   22.904328   24.366430 O.3        1 MOL1        -0.5519
      70    H33     23.741711   21.983819   24.166094 H          1 MOL1         0.3769
      71    C21     21.452869   23.238724   22.984838 C.3        1 MOL1         0.1053
      72    H34     21.261579   22.165305   23.103406 H          1 MOL1         0.0783
      73    O18     20.757214   23.968387   24.001849 O.3        1 MOL1        -0.5519
      74    H35     21.210915   23.731434   24.840419 H          1 MOL1         0.3769
      75    C22     20.934138   23.670086   21.591732 C.3        1 MOL1         0.1018
      76    H36     20.832075   24.763419   21.581724 H          1 MOL1         0.0783
      77    C23     21.845022   23.197243   20.422417 C.3        1 MOL1         0.1043
      78    H37     21.677646   22.120431   20.301772 H          1 MOL1         0.0783
      79    O19     23.245748   23.428962   20.723721 O.3        1 MOL1        -0.3740
      80    C24     21.527854   23.867765   19.063828 C.3        1 MOL1         0.0138
      81    H38     20.576087   23.469474   18.688267 H          1 MOL1         0.0794
      82    H39     22.304687   23.582116   18.341820 H          1 MOL1         0.0794
      83    O20     21.450626   25.294340   19.172049 O.3        1 MOL1        -0.5486
      84    H40     21.327196   25.655717   18.267236 H          1 MOL1         0.3769
      85    C25     25.050474   17.696063   21.031945 C.3        1 MOL1         0.2972
      86    H41     25.672872   16.858291   20.691715 H          1 MOL1         0.0751
      87    O21     23.753781   17.257667   21.476488 O.3        1 MOL1        -0.3740
      88    C26     25.722555   18.457107   22.203773 C.3        1 MOL1         0.1003
      89    H42     26.674253   18.858219   21.831678 H          1 MOL1         0.0783
      90    O22     25.983300   17.582337   23.312700 O.3        1 MOL1        -0.5519
      91    H43     25.143630   17.093938   23.509513 H          1 MOL1         0.3769
      92    C27     24.841402   19.651198   22.648843 C.3        1 MOL1         0.1053
      93    H44     23.914827   19.251097   23.083969 H          1 MOL1         0.0783
      94    O23     25.539894   20.424714   23.630050 O.3        1 MOL1        -0.5519
      95    H45     25.914960   19.766419   24.256426 H          1 MOL1         0.3769
      96    C28     24.461586   20.547317   21.442532 C.3        1 MOL1         0.1018
      97    H46     25.354686   21.105217   21.131710 H          1 MOL1         0.0783
      98    C29     23.926942   19.721943   20.235710 C.3        1 MOL1         0.1043
      99    H47     22.948131   19.305846   20.509044 H          1 MOL1         0.0783
     100    O24     24.850047   18.639845   19.958301 O.3        1 MOL1        -0.3740
     101    C30     23.726829   20.522929   18.921652 C.3        1 MOL1         0.0138
     102    H48     22.693502   20.886350   18.884229 H          1 MOL1         0.0794
     103    H49     23.843158   19.834148   18.074179 H          1 MOL1         0.0794
     104    O25     24.632263   21.624151   18.780493 O.3        1 MOL1        -0.5486
     105    H50     24.325622   22.332477   19.394016 H          1 MOL1         0.3769
     106    C31     21.224547   14.039314   21.850108 C.3        1 MOL1         0.2972
     107    H51     20.768095   13.046499   21.937585 H          1 MOL1         0.0751
     108    O26     20.219778   15.070728   21.742016 O.3        1 MOL1        -0.3740
     109    C32     22.120883   14.304097   23.086939 C.3        1 MOL1         0.1003
     110    H52     22.901607   13.532599   23.087291 H          1 MOL1         0.0783
     111    O27     21.375627   14.208529   24.310570 O.3        1 MOL1        -0.5519
     112    H53     20.799052   15.020152   24.368721 H          1 MOL1         0.3769
     113    C33     22.812670   15.679565   22.980125 C.3        1 MOL1         0.1053
     114    H54     22.036691   16.450616   23.027234 H          1 MOL1         0.0783
     115    O28     23.728163   15.847606   24.067744 O.3        1 MOL1        -0.5519
     116    H55     23.203718   15.638624   24.873150 H          1 MOL1         0.3769
     117    C34     23.555821   15.841830   21.634994 C.3        1 MOL1         0.1018
     118    H56     24.503187   15.288678   21.683668 H          1 MOL1         0.0783
     119    C35     22.710125   15.375323   20.417695 C.3        1 MOL1         0.1043
     120    H57     21.940333   16.135831   20.254508 H          1 MOL1         0.0783
     121    O29     22.063630   14.101757   20.674775 O.3        1 MOL1        -0.3740
     122    C36     23.525616   15.259745   19.107595 C.3        1 MOL1         0.0138
     123    H58     23.791158   16.271223   18.771487 H          1 MOL1         0.0794
     124    H59     22.886318   14.817143   18.331986 H          1 MOL1         0.0794
     125    O30     24.713671   14.477602   19.280645 O.3        1 MOL1        -0.5486
     126    H60     25.142613   14.388783   18.401561 H          1 MOL1         0.3769
     127    C1      19.461244   17.345588   23.922082 C.2        1 MOL1         0.6021
     128    O1      20.148522   16.692632   24.684616 O.co2      1 MOL1        -0.6904
     129    O2      18.287964   17.116179   23.709807 O.co2      1 MOL1        -0.6904
     130    C2      20.143793   18.442779   23.104326 C.3        1 MOL1        -0.2102
     131    H1      20.182337   18.094738   22.067411 H          1 MOL1         0.0687
     132    H2      21.181041   18.544187   23.445308 H          1 MOL1         0.0687
     133    C3      19.440716   19.820827   23.162747 C.3        1 MOL1        -0.1974
     134    H3      19.898353   20.483135   22.418696 H          1 MOL1         0.0689
     135    H4      18.384734   19.706685   22.883025 H          1 MOL1         0.0689
     136    C4      19.543793   20.469407   24.558879 C.3        1 MOL1        -0.2987
     137    H5      20.592270   20.581070   24.863841 H          1 MOL1         0.0700
     138    H6      19.082107   21.464578   24.562667 H          1 MOL1         0.0700
     139    H7      19.032546   19.855962   25.312274 H          1 MOL1         0.0700
@<TRIPOS>BOND
    1     1     2    1
    2     1     3    1
    3     1     4    1
    4     4     5    1
    5     4     6    1
    6     6     7    1
    7     4     8    1
    8     8     9    1
    9     8    10    1
   10    10    11    1
   11     8    12    1
   12    12    13    1
   13    12    14    1
   14    14    15    1
   15     1    16    1
   16    14    16    1
   17    14    17    1
   18    17    18    1
   19    17    19    1
   20    17    20    1
   21    20    21    1
   22    22    23    1
   23    22    24    1
   24    22    25    1
   25    25    26    1
   26    25    27    1
   27    27    28    1
   28    25    29    1
   29    29    30    1
   30    29    31    1
   31    31    32    1
   32     3    33    1
   33    29    33    1
   34    33    34    1
   35    33    35    1
   36    35    36    1
   37    22    37    1
   38    35    37    1
   39    35    38    1
   40    38    39    1
   41    38    40    1
   42    38    41    1
   43    41    42    1
   44    43    44    1
   45    43    45    1
   46    43    46    1
   47    46    47    1
   48    46    48    1
   49    48    49    1
   50    46    50    1
   51    50    51    1
   52    50    52    1
   53    52    53    1
   54    24    54    1
   55    50    54    1
   56    54    55    1
   57    54    56    1
   58    56    57    1
   59    43    58    1
   60    56    58    1
   61    56    59    1
   62    59    60    1
   63    59    61    1
   64    59    62    1
   65    62    63    1
   66    64    65    1
   67    64    66    1
   68    64    67    1
   69    67    68    1
   70    67    69    1
   71    69    70    1
   72    67    71    1
   73    71    72    1
   74    71    73    1
   75    73    74    1
   76    45    75    1
   77    71    75    1
   78    75    76    1
   79    75    77    1
   80    77    78    1
   81    64    79    1
   82    77    79    1
   83    77    80    1
   84    80    81    1
   85    80    82    1
   86    80    83    1
   87    83    84    1
   88    85    86    1
   89    85    87    1
   90    85    88    1
   91    88    89    1
   92    88    90    1
   93    90    91    1
   94    88    92    1
   95    92    93    1
   96    92    94    1
   97    94    95    1
   98    66    96    1
   99    92    96    1
  100    96    97    1
  101    96    98    1
  102    98    99    1
  103    85   100    1
  104    98   100    1
  105    98   101    1
  106   101   102    1
  107   101   103    1
  108   101   104    1
  109   104   105    1
  110   106   107    1
  111    12   108    1
  112   106   108    1
  113   106   109    1
  114   109   110    1
  115   109   111    1
  116   111   112    1
  117   109   113    1
  118   113   114    1
  119   113   115    1
  120   115   116    1
  121    87   117    1
  122   113   117    1
  123   117   118    1
  124   117   119    1
  125   119   120    1
  126   106   121    1
  127   119   121    1
  128   119   122    1
  129   122   123    1
  130   122   124    1
  131   122   125    1
  132   125   126    1
  133   127   128    1
  134   127   129    2
  135   127   130    1
  136   130   131    1
  137   130   132    1
  138   130   133    1
  139   133   134    1
  140   133   135    1
  141   133   136    1
  142   136   137    1
  143   136   138    1
  144   136   139    1
@<TRIPOS>SUBSTRUCTURE
       1 MOL1            1 RESIDUE      1      MOL     
       2 MOL1          139 RESIDUE      1      MOL     
@<SCITEGIC>MOL_PROPERTY
feprocess Rank
SciTegic.value.IntegerValue
76

@<SCITEGIC>MOL_PROPERTY
Conf_Id
SciTegic.value.IntegerValue
620

@<SCITEGIC>MOL_PROPERTY
Probability
SciTegic.value.DoubleValue
0.00

@<SCITEGIC>MOL_PROPERTY
G
SciTegic.value.DoubleValue
492.468

@<SCITEGIC>MOL_PROPERTY
E
SciTegic.value.DoubleValue
317.989

@<SCITEGIC>MOL_PROPERTY
-TS
SciTegic.value.DoubleValue
174.480

@<SCITEGIC>MOL_PROPERTY
U+W
SciTegic.value.DoubleValue
195.477

@<SCITEGIC>MOL_PROPERTY
U
SciTegic.value.DoubleValue
275.471

@<SCITEGIC>MOL_PROPERTY
W
SciTegic.value.DoubleValue
-79.993

@<SCITEGIC>MOL_PROPERTY
W(PB)
SciTegic.value.DoubleValue
-85.970

@<SCITEGIC>MOL_PROPERTY
W(SA)
SciTegic.value.DoubleValue
5.977

@<SCITEGIC>MOL_PROPERTY
Valence
SciTegic.value.DoubleValue
149.849

@<SCITEGIC>MOL_PROPERTY
Coulomb
SciTegic.value.DoubleValue
148.310

@<SCITEGIC>MOL_PROPERTY
VdW
SciTegic.value.DoubleValue
-22.688

@<SCITEGIC>MOL_PROPERTY
VdW6
SciTegic.value.DoubleValue
-170.644

@<SCITEGIC>MOL_PROPERTY
VdW12
SciTegic.value.DoubleValue
147.956

@<SCITEGIC>MOL_PROPERTY
Bond
SciTegic.value.DoubleValue
4.772

@<SCITEGIC>MOL_PROPERTY
Angle
SciTegic.value.DoubleValue
14.835

@<SCITEGIC>MOL_PROPERTY
Pdih
SciTegic.value.DoubleValue
130.224

@<SCITEGIC>MOL_PROPERTY
Idih
SciTegic.value.DoubleValue
0.017

@<SCITEGIC>MOL_PROPERTY
Tether
SciTegic.value.DoubleValue
0.000

@<TRIPOS>MOLECULE
CD_guest-6_fast_vm2_rndm.mol2 : feprocess host+ligand conformer 77
         139         144           2
SMALL
USER_CHARGES
 
@<TRIPOS>ATOM
       1    C1      16.080229   15.055195   21.512168 C.3        1 MOL1         0.2972
       2    H1      15.004340   14.877931   21.388045 H          1 MOL1         0.0751
       3    O1      16.354202   16.432806   21.828711 O.3        1 MOL1        -0.3740
       4    C2      16.618063   14.193265   22.679801 C.3        1 MOL1         0.1003
       5    H2      16.402958   13.142805   22.444660 H          1 MOL1         0.0783
       6    O2      15.957565   14.554709   23.903259 O.3        1 MOL1        -0.5519
       7    H3      15.774700   15.524230   23.845216 H          1 MOL1         0.3769
       8    C3      18.150418   14.348224   22.827328 C.3        1 MOL1         0.1053
       9    H4      18.359758   15.371943   23.168462 H          1 MOL1         0.0783
      10    O3      18.633315   13.405503   23.792154 O.3        1 MOL1        -0.5519
      11    H5      18.031072   13.497792   24.563287 H          1 MOL1         0.3769
      12    C4      18.873925   14.135075   21.475185 C.3        1 MOL1         0.1018
      13    H6      18.824571   13.068237   21.220662 H          1 MOL1         0.0783
      14    C5      18.224232   14.982368   20.342938 C.3        1 MOL1         0.1043
      15    H7      18.387115   16.041131   20.580029 H          1 MOL1         0.0783
      16    O4      16.800287   14.706484   20.311932 O.3        1 MOL1        -0.3740
      17    C6      18.781669   14.752009   18.916077 C.3        1 MOL1         0.0138
      18    H8      19.644855   15.413977   18.771979 H          1 MOL1         0.0794
      19    H9      18.022768   15.068928   18.189006 H          1 MOL1         0.0794
      20    O5      19.155621   13.392530   18.666442 O.3        1 MOL1        -0.5486
      21    H10     20.129062   13.347086   18.793017 H          1 MOL1         0.3769
      22    C7      14.798581   20.261246   21.108464 C.3        1 MOL1         0.2972
      23    H11     14.120764   21.078028   20.829092 H          1 MOL1         0.0751
      24    O6      16.088888   20.761387   21.502297 O.3        1 MOL1        -0.3740
      25    C8      14.204866   19.483831   22.308751 C.3        1 MOL1         0.1003
      26    H12     13.213829   19.118829   22.009288 H          1 MOL1         0.0783
      27    O7      14.068463   20.354438   23.443183 O.3        1 MOL1        -0.5519
      28    H13     14.772888   21.041762   23.354486 H          1 MOL1         0.3769
      29    C9      15.076870   18.257831   22.668307 C.3        1 MOL1         0.1053
      30    H14     16.036431   18.620994   23.062025 H          1 MOL1         0.0783
      31    O8      14.407988   17.473683   23.663003 O.3        1 MOL1        -0.5519
      32    H15     14.115939   18.120095   24.343330 H          1 MOL1         0.3769
      33    C10     15.363444   17.393322   21.416950 C.3        1 MOL1         0.1018
      34    H16     14.427076   16.910649   21.107670 H          1 MOL1         0.0783
      35    C11     15.913146   18.260433   20.246947 C.3        1 MOL1         0.1043
      36    H17     16.889477   18.662128   20.547928 H          1 MOL1         0.0783
      37    O9      14.986203   19.350493   20.005599 O.3        1 MOL1        -0.3740
      38    C12     16.127134   17.525255   18.900753 C.3        1 MOL1         0.0138
      39    H18     17.136704   17.097950   18.897217 H          1 MOL1         0.0794
      40    H19     16.101768   18.265581   18.090362 H          1 MOL1         0.0794
      41    O10     15.157740   16.500379   18.656296 O.3        1 MOL1        -0.5486
      42    H20     15.494651   15.690353   19.104222 H          1 MOL1         0.3769
      43    C13     18.606779   24.036777   20.801783 C.3        1 MOL1         0.2972
      44    H21     19.018932   24.988450   20.442338 H          1 MOL1         0.0751
      45    O11     19.578239   23.278090   21.541455 O.3        1 MOL1        -0.3740
      46    C14     17.415625   24.284103   21.761376 C.3        1 MOL1         0.1003
      47    H22     16.665361   24.871964   21.216893 H          1 MOL1         0.0783
      48    O12     17.852522   25.015239   22.919479 O.3        1 MOL1        -0.5519
      49    H23     18.703225   24.602893   23.211357 H          1 MOL1         0.3769
      50    C15     16.763703   22.945609   22.191936 C.3        1 MOL1         0.1053
      51    H24     17.476485   22.408180   22.833129 H          1 MOL1         0.0783
      52    O13     15.561062   23.212116   22.922493 O.3        1 MOL1        -0.5519
      53    H25     15.803671   23.907488   23.573297 H          1 MOL1         0.3769
      54    C16     16.452234   22.048339   20.968811 C.3        1 MOL1         0.1018
      55    H26     15.630728   22.506787   20.402700 H          1 MOL1         0.0783
      56    C17     17.691480   21.901451   20.041120 C.3        1 MOL1         0.1043
      57    H27     18.481136   21.370599   20.588065 H          1 MOL1         0.0783
      58    O14     18.145464   23.231853   19.696787 O.3        1 MOL1        -0.3740
      59    C18     17.458648   21.122964   18.722246 C.3        1 MOL1         0.0138
      60    H28     17.621270   20.055380   18.913897 H          1 MOL1         0.0794
      61    H29     18.230139   21.425803   18.001740 H          1 MOL1         0.0794
      62    O15     16.153725   21.329516   18.167581 O.3        1 MOL1        -0.5486
      63    H30     15.544122   20.728093   18.654821 H          1 MOL1         0.3769
      64    C19     23.673646   22.847808   21.904274 C.3        1 MOL1         0.2972
      65    H31     24.759343   22.992577   21.974161 H          1 MOL1         0.0751
      66    O16     23.317213   21.455231   21.964531 O.3        1 MOL1        -0.3740
      67    C20     22.976268   23.566773   23.082752 C.3        1 MOL1         0.1003
      68    H32     23.213394   24.636060   23.008748 H          1 MOL1         0.0783
      69    O17     23.461284   23.055033   24.334645 O.3        1 MOL1        -0.5519
      70    H33     23.745705   22.122258   24.169398 H          1 MOL1         0.3769
      71    C21     21.441969   23.406994   22.989271 C.3        1 MOL1         0.1053
      72    H34     21.197696   22.349037   23.159737 H          1 MOL1         0.0783
      73    O18     20.812602   24.217249   23.989487 O.3        1 MOL1        -0.5519
      74    H35     21.300852   24.021193   24.819685 H          1 MOL1         0.3769
      75    C22     20.914554   23.804680   21.589967 C.3        1 MOL1         0.1018
      76    H36     20.925438   24.900005   21.514208 H          1 MOL1         0.0783
      77    C23     21.746321   23.175385   20.433376 C.3        1 MOL1         0.1043
      78    H37     21.534253   22.098781   20.416257 H          1 MOL1         0.0783
      79    O19     23.163273   23.386486   20.669004 O.3        1 MOL1        -0.3740
      80    C24     21.417136   23.729864   19.026824 C.3        1 MOL1         0.0138
      81    H38     20.457171   23.311203   18.699605 H          1 MOL1         0.0794
      82    H39     22.177784   23.366893   18.322768 H          1 MOL1         0.0794
      83    O20     21.364912   25.162403   19.007349 O.3        1 MOL1        -0.5486
      84    H40     21.211308   25.441060   18.078488 H          1 MOL1         0.3769
      85    C25     24.962918   17.681404   21.311598 C.3        1 MOL1         0.2972
      86    H41     25.646630   16.857782   21.069444 H          1 MOL1         0.0751
      87    O21     23.639286   17.205149   21.618217 O.3        1 MOL1        -0.3740
      88    C26     25.487435   18.446785   22.551383 C.3        1 MOL1         0.1003
      89    H42     26.483501   18.836251   22.303853 H          1 MOL1         0.0783
      90    O22     25.590456   17.568195   23.683395 O.3        1 MOL1        -0.5519
      91    H43     24.923114   16.848450   23.552987 H          1 MOL1         0.3769
      92    C27     24.571855   19.648247   22.878312 C.3        1 MOL1         0.1053
      93    H44     23.593256   19.261927   23.196062 H          1 MOL1         0.0783
      94    O23     25.153880   20.423506   23.932303 O.3        1 MOL1        -0.5519
      95    H45     25.434660   19.764423   24.605855 H          1 MOL1         0.3769
      96    C28     24.362704   20.529689   21.625013 C.3        1 MOL1         0.1018
      97    H46     25.308850   21.037927   21.397054 H          1 MOL1         0.0783
      98    C29     23.920785   19.694071   20.389656 C.3        1 MOL1         0.1043
      99    H47     22.922511   19.287133   20.588892 H          1 MOL1         0.0783
     100    O24     24.858621   18.601960   20.203098 O.3        1 MOL1        -0.3740
     101    C30     23.822749   20.486919   19.060992 C.3        1 MOL1         0.0138
     102    H48     22.817653   20.919794   18.986566 H          1 MOL1         0.0794
     103    H49     23.921978   19.781818   18.225176 H          1 MOL1         0.0794
     104    O25     24.802179   21.526243   18.949389 O.3        1 MOL1        -0.5486
     105    H50     24.455179   22.294518   19.459647 H          1 MOL1         0.3769
     106    C31     21.272180   13.798635   21.082330 C.3        1 MOL1         0.2972
     107    H51     20.920841   12.798906   20.797450 H          1 MOL1         0.0751
     108    O26     20.226976   14.570799   21.700761 O.3        1 MOL1        -0.3740
     109    C32     22.411158   13.678155   22.124975 C.3        1 MOL1         0.1003
     110    H52     23.214691   13.080677   21.675068 H          1 MOL1         0.0783
     111    O27     21.929327   13.021618   23.308730 O.3        1 MOL1        -0.5519
     112    H53     21.014129   13.361518   23.463908 H          1 MOL1         0.3769
     113    C33     22.984968   15.070983   22.480660 C.3        1 MOL1         0.1053
     114    H54     22.213513   15.634308   23.024127 H          1 MOL1         0.0783
     115    O28     24.144602   14.914192   23.305665 O.3        1 MOL1        -0.5519
     116    H55     23.885460   14.257186   23.989685 H          1 MOL1         0.3769
     117    C34     23.346443   15.860987   21.200949 C.3        1 MOL1         0.1018
     118    H56     24.210323   15.377234   20.726329 H          1 MOL1         0.0783
     119    C35     22.165378   15.889426   20.192667 C.3        1 MOL1         0.1043
     120    H57     21.326923   16.431749   20.647494 H          1 MOL1         0.0783
     121    O29     21.766496   14.519838   19.931173 O.3        1 MOL1        -0.3740
     122    C36     22.471909   16.593110   18.845363 C.3        1 MOL1         0.0138
     123    H58     22.272603   17.666693   18.961020 H          1 MOL1         0.0794
     124    H59     21.767155   16.223838   18.089123 H          1 MOL1         0.0794
     125    O30     23.820184   16.399658   18.401283 O.3        1 MOL1        -0.5486
     126    H60     24.370540   17.064935   18.875227 H          1 MOL1         0.3769
     127    C1      20.070293   19.054620   20.148798 C.2        1 MOL1         0.6021
     128    O1      20.494313   19.969585   19.470148 O.co2      1 MOL1        -0.6904
     129    O2      19.471978   18.098087   19.693820 O.co2      1 MOL1        -0.6904
     130    C2      20.330746   19.110917   21.654429 C.3        1 MOL1        -0.2102
     131    H1      20.750098   20.096016   21.892064 H          1 MOL1         0.0687
     132    H2      21.100975   18.369512   21.889730 H          1 MOL1         0.0687
     133    C3      19.077063   18.856279   22.525198 C.3        1 MOL1        -0.1974
     134    H3      18.310701   19.603674   22.289157 H          1 MOL1         0.0689
     135    H4      18.654710   17.872266   22.282328 H          1 MOL1         0.0689
     136    C4      19.406132   18.917048   24.029104 C.3        1 MOL1        -0.2987
     137    H5      19.803689   19.902982   24.303273 H          1 MOL1         0.0700
     138    H6      18.504781   18.734391   24.628210 H          1 MOL1         0.0700
     139    H7      20.152555   18.157969   24.297065 H          1 MOL1         0.0700
@<TRIPOS>BOND
    1     1     2    1
    2     1     3    1
    3     1     4    1
    4     4     5    1
    5     4     6    1
    6     6     7    1
    7     4     8    1
    8     8     9    1
    9     8    10    1
   10    10    11    1
   11     8    12    1
   12    12    13    1
   13    12    14    1
   14    14    15    1
   15     1    16    1
   16    14    16    1
   17    14    17    1
   18    17    18    1
   19    17    19    1
   20    17    20    1
   21    20    21    1
   22    22    23    1
   23    22    24    1
   24    22    25    1
   25    25    26    1
   26    25    27    1
   27    27    28    1
   28    25    29    1
   29    29    30    1
   30    29    31    1
   31    31    32    1
   32     3    33    1
   33    29    33    1
   34    33    34    1
   35    33    35    1
   36    35    36    1
   37    22    37    1
   38    35    37    1
   39    35    38    1
   40    38    39    1
   41    38    40    1
   42    38    41    1
   43    41    42    1
   44    43    44    1
   45    43    45    1
   46    43    46    1
   47    46    47    1
   48    46    48    1
   49    48    49    1
   50    46    50    1
   51    50    51    1
   52    50    52    1
   53    52    53    1
   54    24    54    1
   55    50    54    1
   56    54    55    1
   57    54    56    1
   58    56    57    1
   59    43    58    1
   60    56    58    1
   61    56    59    1
   62    59    60    1
   63    59    61    1
   64    59    62    1
   65    62    63    1
   66    64    65    1
   67    64    66    1
   68    64    67    1
   69    67    68    1
   70    67    69    1
   71    69    70    1
   72    67    71    1
   73    71    72    1
   74    71    73    1
   75    73    74    1
   76    45    75    1
   77    71    75    1
   78    75    76    1
   79    75    77    1
   80    77    78    1
   81    64    79    1
   82    77    79    1
   83    77    80    1
   84    80    81    1
   85    80    82    1
   86    80    83    1
   87    83    84    1
   88    85    86    1
   89    85    87    1
   90    85    88    1
   91    88    89    1
   92    88    90    1
   93    90    91    1
   94    88    92    1
   95    92    93    1
   96    92    94    1
   97    94    95    1
   98    66    96    1
   99    92    96    1
  100    96    97    1
  101    96    98    1
  102    98    99    1
  103    85   100    1
  104    98   100    1
  105    98   101    1
  106   101   102    1
  107   101   103    1
  108   101   104    1
  109   104   105    1
  110   106   107    1
  111    12   108    1
  112   106   108    1
  113   106   109    1
  114   109   110    1
  115   109   111    1
  116   111   112    1
  117   109   113    1
  118   113   114    1
  119   113   115    1
  120   115   116    1
  121    87   117    1
  122   113   117    1
  123   117   118    1
  124   117   119    1
  125   119   120    1
  126   106   121    1
  127   119   121    1
  128   119   122    1
  129   122   123    1
  130   122   124    1
  131   122   125    1
  132   125   126    1
  133   127   128    1
  134   127   129    2
  135   127   130    1
  136   130   131    1
  137   130   132    1
  138   130   133    1
  139   133   134    1
  140   133   135    1
  141   133   136    1
  142   136   137    1
  143   136   138    1
  144   136   139    1
@<TRIPOS>SUBSTRUCTURE
       1 MOL1            1 RESIDUE      1      MOL     
       2 MOL1          139 RESIDUE      1      MOL     
@<SCITEGIC>MOL_PROPERTY
feprocess Rank
SciTegic.value.IntegerValue
77

@<SCITEGIC>MOL_PROPERTY
Conf_Id
SciTegic.value.IntegerValue
301

@<SCITEGIC>MOL_PROPERTY
Probability
SciTegic.value.DoubleValue
0.00

@<SCITEGIC>MOL_PROPERTY
G
SciTegic.value.DoubleValue
492.638

@<SCITEGIC>MOL_PROPERTY
E
SciTegic.value.DoubleValue
318.211

@<SCITEGIC>MOL_PROPERTY
-TS
SciTegic.value.DoubleValue
174.427

@<SCITEGIC>MOL_PROPERTY
U+W
SciTegic.value.DoubleValue
195.700

@<SCITEGIC>MOL_PROPERTY
U
SciTegic.value.DoubleValue
262.019

@<SCITEGIC>MOL_PROPERTY
W
SciTegic.value.DoubleValue
-66.319

@<SCITEGIC>MOL_PROPERTY
W(PB)
SciTegic.value.DoubleValue
-72.127

@<SCITEGIC>MOL_PROPERTY
W(SA)
SciTegic.value.DoubleValue
5.808

@<SCITEGIC>MOL_PROPERTY
Valence
SciTegic.value.DoubleValue
155.387

@<SCITEGIC>MOL_PROPERTY
Coulomb
SciTegic.value.DoubleValue
133.885

@<SCITEGIC>MOL_PROPERTY
VdW
SciTegic.value.DoubleValue
-27.253

@<SCITEGIC>MOL_PROPERTY
VdW6
SciTegic.value.DoubleValue
-178.590

@<SCITEGIC>MOL_PROPERTY
VdW12
SciTegic.value.DoubleValue
151.337

@<SCITEGIC>MOL_PROPERTY
Bond
SciTegic.value.DoubleValue
4.329

@<SCITEGIC>MOL_PROPERTY
Angle
SciTegic.value.DoubleValue
13.199

@<SCITEGIC>MOL_PROPERTY
Pdih
SciTegic.value.DoubleValue
137.859

@<SCITEGIC>MOL_PROPERTY
Idih
SciTegic.value.DoubleValue
0.001

@<SCITEGIC>MOL_PROPERTY
Tether
SciTegic.value.DoubleValue
0.000

@<TRIPOS>MOLECULE
CD_guest-6_fast_vm2_rndm.mol2 : feprocess host+ligand conformer 78
         139         144           2
SMALL
USER_CHARGES
 
@<TRIPOS>ATOM
       1    C1      16.148954   15.593063   19.928288 C.3        1 MOL1         0.2972
       2    H1      15.194753   15.468915   19.400716 H          1 MOL1         0.0751
       3    O1      16.226720   16.875123   20.577104 O.3        1 MOL1        -0.3740
       4    C2      16.383332   14.448295   20.955170 C.3        1 MOL1         0.1003
       5    H2      16.418724   13.513322   20.380956 H          1 MOL1         0.0783
       6    O2      15.321242   14.349932   21.915466 O.3        1 MOL1        -0.5519
       7    H3      15.355970   15.171344   22.467494 H          1 MOL1         0.3769
       8    C3      17.751663   14.613270   21.663533 C.3        1 MOL1         0.1053
       9    H4      17.721633   15.521134   22.282636 H          1 MOL1         0.0783
      10    O3      18.004833   13.467980   22.484655 O.3        1 MOL1        -0.5519
      11    H5      17.180265   13.331326   23.000915 H          1 MOL1         0.3769
      12    C4      18.888853   14.770024   20.624854 C.3        1 MOL1         0.1018
      13    H6      19.029154   13.802748   20.124638 H          1 MOL1         0.0783
      14    C5      18.556939   15.844494   19.552841 C.3        1 MOL1         0.1043
      15    H7      18.539164   16.826072   20.044494 H          1 MOL1         0.0783
      16    O4      17.249383   15.552527   18.991153 O.3        1 MOL1        -0.3740
      17    C6      19.577936   15.948943   18.391143 C.3        1 MOL1         0.0138
      18    H8      20.380078   16.632783   18.694533 H          1 MOL1         0.0794
      19    H9      19.078156   16.409856   17.528744 H          1 MOL1         0.0794
      20    O5      20.140685   14.686752   18.015639 O.3        1 MOL1        -0.5486
      21    H10     20.846976   14.483275   18.672358 H          1 MOL1         0.3769
      22    C7      14.615321   20.177601   22.157459 C.3        1 MOL1         0.2972
      23    H11     14.090433   21.041312   22.585557 H          1 MOL1         0.0751
      24    O6      15.966333   20.505579   21.770139 O.3        1 MOL1        -0.3740
      25    C8      14.646051   19.008533   23.171058 C.3        1 MOL1         0.1003
      26    H12     13.619665   18.633910   23.274137 H          1 MOL1         0.0783
      27    O7      15.107021   19.448750   24.456989 O.3        1 MOL1        -0.5519
      28    H13     16.097990   19.538575   24.404662 H          1 MOL1         0.3769
      29    C9      15.518626   17.868652   22.597644 C.3        1 MOL1         0.1053
      30    H14     16.534046   18.260399   22.474968 H          1 MOL1         0.0783
      31    O8      15.564846   16.747564   23.487430 O.3        1 MOL1        -0.5519
      32    H15     16.370999   16.908486   24.049714 H          1 MOL1         0.3769
      33    C10     15.045981   17.429996   21.187917 C.3        1 MOL1         0.1018
      34    H16     14.234662   16.697324   21.285903 H          1 MOL1         0.0783
      35    C11     14.613060   18.612567   20.264705 C.3        1 MOL1         0.1043
      36    H17     15.529434   19.026809   19.831770 H          1 MOL1         0.0783
      37    O9      13.934646   19.677213   20.987060 O.3        1 MOL1        -0.3740
      38    C12     13.721556   18.174018   19.079652 C.3        1 MOL1         0.0138
      39    H18     14.327250   17.568206   18.392400 H          1 MOL1         0.0794
      40    H19     13.402594   19.069904   18.529980 H          1 MOL1         0.0794
      41    O10     12.581076   17.424120   19.514422 O.3        1 MOL1        -0.5486
      42    H20     12.025159   17.241414   18.725401 H          1 MOL1         0.3769
      43    C13     18.581515   23.712438   21.339278 C.3        1 MOL1         0.2972
      44    H21     19.001604   24.705321   21.132181 H          1 MOL1         0.0751
      45    O11     19.629455   22.764159   21.633848 O.3        1 MOL1        -0.3740
      46    C14     17.620371   23.807193   22.551566 C.3        1 MOL1         0.1003
      47    H22     16.864861   24.564580   22.305370 H          1 MOL1         0.0783
      48    O12     18.337576   24.223920   23.722201 O.3        1 MOL1        -0.5519
      49    H23     19.217164   23.787613   23.667480 H          1 MOL1         0.3769
      50    C15     16.878541   22.476192   22.821692 C.3        1 MOL1         0.1053
      51    H24     17.601153   21.749511   23.220199 H          1 MOL1         0.0783
      52    O13     15.843607   22.722164   23.779057 O.3        1 MOL1        -0.5519
      53    H25     16.299497   23.101944   24.560896 H          1 MOL1         0.3769
      54    C16     16.265897   21.889908   21.524876 C.3        1 MOL1         0.1018
      55    H26     15.369969   22.463608   21.254154 H          1 MOL1         0.0783
      56    C17     17.272506   21.904645   20.344131 C.3        1 MOL1         0.1043
      57    H27     18.068266   21.192916   20.590193 H          1 MOL1         0.0783
      58    O14     17.844172   23.227144   20.195620 O.3        1 MOL1        -0.3740
      59    C18     16.675288   21.466610   18.979887 C.3        1 MOL1         0.0138
      60    H28     16.846531   20.390051   18.857117 H          1 MOL1         0.0794
      61    H29     17.231548   21.962944   18.173558 H          1 MOL1         0.0794
      62    O15     15.276128   21.753504   18.854454 O.3        1 MOL1        -0.5486
      63    H30     14.802956   21.216408   19.530329 H          1 MOL1         0.3769
      64    C19     23.784249   22.505757   20.846439 C.3        1 MOL1         0.2972
      65    H31     24.751453   22.652478   20.349200 H          1 MOL1         0.0751
      66    O16     23.908470   21.600666   21.958642 O.3        1 MOL1        -0.3740
      67    C20     23.262740   23.863419   21.387298 C.3        1 MOL1         0.1003
      68    H32     23.234641   24.562643   20.541432 H          1 MOL1         0.0783
      69    O17     24.152355   24.370084   22.393079 O.3        1 MOL1        -0.5519
      70    H33     24.341453   23.610547   22.990563 H          1 MOL1         0.3769
      71    C21     21.827529   23.751270   21.960874 C.3        1 MOL1         0.1053
      72    H34     21.872251   23.158131   22.884251 H          1 MOL1         0.0783
      73    O18     21.341628   25.066324   22.246401 O.3        1 MOL1        -0.5519
      74    H35     22.060469   25.505600   22.752055 H          1 MOL1         0.3769
      75    C22     20.883115   23.029313   20.966983 C.3        1 MOL1         0.1018
      76    H36     20.739728   23.669742   20.086307 H          1 MOL1         0.0783
      77    C23     21.502474   21.685373   20.503225 C.3        1 MOL1         0.1043
      78    H37     21.613627   21.029214   21.374877 H          1 MOL1         0.0783
      79    O19     22.802396   21.965826   19.932407 O.3        1 MOL1        -0.3740
      80    C24     20.668134   20.915890   19.450027 C.3        1 MOL1         0.0138
      81    H38     19.910895   20.320540   19.974425 H          1 MOL1         0.0794
      82    H39     21.326136   20.204368   18.933917 H          1 MOL1         0.0794
      83    O20     20.039024   21.782662   18.497941 O.3        1 MOL1        -0.5486
      84    H40     19.408663   22.356054   18.990582 H          1 MOL1         0.3769
      85    C25     25.209184   17.680296   22.181312 C.3        1 MOL1         0.2972
      86    H41     25.762617   16.734668   22.242448 H          1 MOL1         0.0751
      87    O21     23.784614   17.465723   22.143928 O.3        1 MOL1        -0.3740
      88    C26     25.558264   18.556182   23.401828 C.3        1 MOL1         0.1003
      89    H42     26.639428   18.744671   23.374888 H          1 MOL1         0.0783
      90    O22     25.224226   17.869801   24.619196 O.3        1 MOL1        -0.5519
      91    H43     24.439328   17.299016   24.423149 H          1 MOL1         0.3769
      92    C27     24.835683   19.918296   23.331981 C.3        1 MOL1         0.1053
      93    H44     23.769363   19.727973   23.500039 H          1 MOL1         0.0783
      94    O23     25.341499   20.760053   24.373835 O.3        1 MOL1        -0.5519
      95    H45     25.306811   20.208641   25.186239 H          1 MOL1         0.3769
      96    C28     24.981206   20.624022   21.954215 C.3        1 MOL1         0.1018
      97    H46     25.957102   21.124916   21.926036 H          1 MOL1         0.0783
      98    C29     24.861417   19.636759   20.739882 C.3        1 MOL1         0.1043
      99    H47     23.798318   19.406655   20.593573 H          1 MOL1         0.0783
     100    O24     25.584829   18.406596   21.001250 O.3        1 MOL1        -0.3740
     101    C30     25.428891   20.160353   19.392709 C.3        1 MOL1         0.0138
     102    H48     24.707706   20.835754   18.920095 H          1 MOL1         0.0794
     103    H49     25.541090   19.306101   18.711226 H          1 MOL1         0.0794
     104    O25     26.688015   20.824539   19.553342 O.3        1 MOL1        -0.5486
     105    H50     27.031181   21.034684   18.657404 H          1 MOL1         0.3769
     106    C31     21.174990   14.266240   21.279985 C.3        1 MOL1         0.2972
     107    H51     20.840853   13.251259   21.029193 H          1 MOL1         0.0751
     108    O26     20.064292   15.179276   21.351102 O.3        1 MOL1        -0.3740
     109    C32     21.880440   14.245762   22.661389 C.3        1 MOL1         0.1003
     110    H52     22.699376   13.517291   22.600601 H          1 MOL1         0.0783
     111    O27     20.962010   13.836806   23.686397 O.3        1 MOL1        -0.5519
     112    H53     20.066353   14.140885   23.400258 H          1 MOL1         0.3769
     113    C33     22.496064   15.622422   23.003629 C.3        1 MOL1         0.1053
     114    H54     21.675941   16.336690   23.152688 H          1 MOL1         0.0783
     115    O28     23.279907   15.514089   24.197172 O.3        1 MOL1        -0.5519
     116    H55     22.706563   15.032020   24.833762 H          1 MOL1         0.3769
     117    C34     23.376868   16.118851   21.834665 C.3        1 MOL1         0.1018
     118    H56     24.235558   15.441189   21.738980 H          1 MOL1         0.0783
     119    C35     22.582470   16.111008   20.502143 C.3        1 MOL1         0.1043
     120    H57     21.736914   16.804043   20.603519 H          1 MOL1         0.0783
     121    O29     22.088148   14.765722   20.276723 O.3        1 MOL1        -0.3740
     122    C36     23.389464   16.549335   19.253246 C.3        1 MOL1         0.0138
     123    H58     23.364019   17.644137   19.187311 H          1 MOL1         0.0794
     124    H59     22.883728   16.165002   18.357441 H          1 MOL1         0.0794
     125    O30     24.749294   16.102406   19.276825 O.3        1 MOL1        -0.5486
     126    H60     25.251372   16.750689   19.822819 H          1 MOL1         0.3769
     127    C1      18.540498   18.468661   24.033292 C.2        1 MOL1         0.6021
     128    O1      18.254153   17.312827   24.283699 O.co2      1 MOL1        -0.6904
     129    O2      17.881684   19.411790   24.425087 O.co2      1 MOL1        -0.6904
     130    C2      19.598146   18.732449   22.963499 C.3        1 MOL1        -0.2102
     131    H1      19.224539   19.526234   22.306268 H          1 MOL1         0.0687
     132    H2      19.687561   17.826800   22.352158 H          1 MOL1         0.0687
     133    C3      20.990222   19.118142   23.524026 C.3        1 MOL1        -0.1974
     134    H3      21.338025   18.343070   24.219955 H          1 MOL1         0.0689
     135    H4      21.707729   19.145227   22.695160 H          1 MOL1         0.0689
     136    C4      20.984304   20.484275   24.241695 C.3        1 MOL1        -0.2987
     137    H5      20.357848   20.448480   25.142441 H          1 MOL1         0.0700
     138    H6      21.996964   20.774627   24.547606 H          1 MOL1         0.0700
     139    H7      20.584722   21.268179   23.589851 H          1 MOL1         0.0700
@<TRIPOS>BOND
    1     1     2    1
    2     1     3    1
    3     1     4    1
    4     4     5    1
    5     4     6    1
    6     6     7    1
    7     4     8    1
    8     8     9    1
    9     8    10    1
   10    10    11    1
   11     8    12    1
   12    12    13    1
   13    12    14    1
   14    14    15    1
   15     1    16    1
   16    14    16    1
   17    14    17    1
   18    17    18    1
   19    17    19    1
   20    17    20    1
   21    20    21    1
   22    22    23    1
   23    22    24    1
   24    22    25    1
   25    25    26    1
   26    25    27    1
   27    27    28    1
   28    25    29    1
   29    29    30    1
   30    29    31    1
   31    31    32    1
   32     3    33    1
   33    29    33    1
   34    33    34    1
   35    33    35    1
   36    35    36    1
   37    22    37    1
   38    35    37    1
   39    35    38    1
   40    38    39    1
   41    38    40    1
   42    38    41    1
   43    41    42    1
   44    43    44    1
   45    43    45    1
   46    43    46    1
   47    46    47    1
   48    46    48    1
   49    48    49    1
   50    46    50    1
   51    50    51    1
   52    50    52    1
   53    52    53    1
   54    24    54    1
   55    50    54    1
   56    54    55    1
   57    54    56    1
   58    56    57    1
   59    43    58    1
   60    56    58    1
   61    56    59    1
   62    59    60    1
   63    59    61    1
   64    59    62    1
   65    62    63    1
   66    64    65    1
   67    64    66    1
   68    64    67    1
   69    67    68    1
   70    67    69    1
   71    69    70    1
   72    67    71    1
   73    71    72    1
   74    71    73    1
   75    73    74    1
   76    45    75    1
   77    71    75    1
   78    75    76    1
   79    75    77    1
   80    77    78    1
   81    64    79    1
   82    77    79    1
   83    77    80    1
   84    80    81    1
   85    80    82    1
   86    80    83    1
   87    83    84    1
   88    85    86    1
   89    85    87    1
   90    85    88    1
   91    88    89    1
   92    88    90    1
   93    90    91    1
   94    88    92    1
   95    92    93    1
   96    92    94    1
   97    94    95    1
   98    66    96    1
   99    92    96    1
  100    96    97    1
  101    96    98    1
  102    98    99    1
  103    85   100    1
  104    98   100    1
  105    98   101    1
  106   101   102    1
  107   101   103    1
  108   101   104    1
  109   104   105    1
  110   106   107    1
  111    12   108    1
  112   106   108    1
  113   106   109    1
  114   109   110    1
  115   109   111    1
  116   111   112    1
  117   109   113    1
  118   113   114    1
  119   113   115    1
  120   115   116    1
  121    87   117    1
  122   113   117    1
  123   117   118    1
  124   117   119    1
  125   119   120    1
  126   106   121    1
  127   119   121    1
  128   119   122    1
  129   122   123    1
  130   122   124    1
  131   122   125    1
  132   125   126    1
  133   127   128    1
  134   127   129    2
  135   127   130    1
  136   130   131    1
  137   130   132    1
  138   130   133    1
  139   133   134    1
  140   133   135    1
  141   133   136    1
  142   136   137    1
  143   136   138    1
  144   136   139    1
@<TRIPOS>SUBSTRUCTURE
       1 MOL1            1 RESIDUE      1      MOL     
       2 MOL1          139 RESIDUE      1      MOL     
@<SCITEGIC>MOL_PROPERTY
feprocess Rank
SciTegic.value.IntegerValue
78

@<SCITEGIC>MOL_PROPERTY
Conf_Id
SciTegic.value.IntegerValue
135

@<SCITEGIC>MOL_PROPERTY
Probability
SciTegic.value.DoubleValue
0.00

@<SCITEGIC>MOL_PROPERTY
G
SciTegic.value.DoubleValue
492.963

@<SCITEGIC>MOL_PROPERTY
E
SciTegic.value.DoubleValue
317.003

@<SCITEGIC>MOL_PROPERTY
-TS
SciTegic.value.DoubleValue
175.960

@<SCITEGIC>MOL_PROPERTY
U+W
SciTegic.value.DoubleValue
194.492

@<SCITEGIC>MOL_PROPERTY
U
SciTegic.value.DoubleValue
270.139

@<SCITEGIC>MOL_PROPERTY
W
SciTegic.value.DoubleValue
-75.647

@<SCITEGIC>MOL_PROPERTY
W(PB)
SciTegic.value.DoubleValue
-81.534

@<SCITEGIC>MOL_PROPERTY
W(SA)
SciTegic.value.DoubleValue
5.887

@<SCITEGIC>MOL_PROPERTY
Valence
SciTegic.value.DoubleValue
154.067

@<SCITEGIC>MOL_PROPERTY
Coulomb
SciTegic.value.DoubleValue
138.235

@<SCITEGIC>MOL_PROPERTY
VdW
SciTegic.value.DoubleValue
-22.163

@<SCITEGIC>MOL_PROPERTY
VdW6
SciTegic.value.DoubleValue
-175.567

@<SCITEGIC>MOL_PROPERTY
VdW12
SciTegic.value.DoubleValue
153.404

@<SCITEGIC>MOL_PROPERTY
Bond
SciTegic.value.DoubleValue
5.080

@<SCITEGIC>MOL_PROPERTY
Angle
SciTegic.value.DoubleValue
16.682

@<SCITEGIC>MOL_PROPERTY
Pdih
SciTegic.value.DoubleValue
132.203

@<SCITEGIC>MOL_PROPERTY
Idih
SciTegic.value.DoubleValue
0.102

@<SCITEGIC>MOL_PROPERTY
Tether
SciTegic.value.DoubleValue
0.000

@<TRIPOS>MOLECULE
CD_guest-6_fast_vm2_rndm.mol2 : feprocess host+ligand conformer 79
         139         144           2
SMALL
USER_CHARGES
 
@<TRIPOS>ATOM
       1    C1      15.978244   15.213132   20.924880 C.3        1 MOL1         0.2972
       2    H1      14.959148   15.023693   20.563891 H          1 MOL1         0.0751
       3    O1      15.991683   16.264669   21.908177 O.3        1 MOL1        -0.3740
       4    C2      16.547794   13.935397   21.599114 C.3        1 MOL1         0.1003
       5    H2      16.491572   13.121322   20.864764 H          1 MOL1         0.0783
       6    O2      15.765642   13.592159   22.752520 O.3        1 MOL1        -0.5519
       7    H3      15.637371   14.432099   23.250662 H          1 MOL1         0.3769
       8    C3      18.032651   14.116523   22.003081 C.3        1 MOL1         0.1053
       9    H4      18.083243   14.861957   22.808999 H          1 MOL1         0.0783
      10    O3      18.562700   12.867570   22.460424 O.3        1 MOL1        -0.5519
      11    H5      17.881192   12.505919   23.069893 H          1 MOL1         0.3769
      12    C4      18.863334   14.641338   20.810082 C.3        1 MOL1         0.1018
      13    H6      18.907710   13.862634   20.036963 H          1 MOL1         0.0783
      14    C5      18.217285   15.914108   20.205031 C.3        1 MOL1         0.1043
      15    H7      18.216515   16.703784   20.967023 H          1 MOL1         0.0783
      16    O4      16.854327   15.592711   19.836957 O.3        1 MOL1        -0.3740
      17    C6      18.945691   16.476399   18.957275 C.3        1 MOL1         0.0138
      18    H8      19.738015   17.155306   19.293927 H          1 MOL1         0.0794
      19    H9      18.233870   17.079826   18.378429 H          1 MOL1         0.0794
      20    O5      19.512656   15.455666   18.127294 O.3        1 MOL1        -0.5486
      21    H10     20.303152   15.102960   18.598275 H          1 MOL1         0.3769
      22    C7      14.732291   20.191355   21.964598 C.3        1 MOL1         0.2972
      23    H11     14.194304   21.147122   22.001677 H          1 MOL1         0.0751
      24    O6      16.147558   20.401479   21.796845 O.3        1 MOL1        -0.3740
      25    C8      14.442412   19.389145   23.255227 C.3        1 MOL1         0.1003
      26    H12     13.359393   19.213084   23.284592 H          1 MOL1         0.0783
      27    O7      14.825750   20.124623   24.426846 O.3        1 MOL1        -0.5519
      28    H13     15.819077   20.217875   24.398349 H          1 MOL1         0.3769
      29    C9      15.143415   18.015668   23.235657 C.3        1 MOL1         0.1053
      30    H14     16.219878   18.198376   23.324396 H          1 MOL1         0.0783
      31    O8      14.696380   17.248871   24.359375 O.3        1 MOL1        -0.5519
      32    H15     14.795001   17.849083   25.131337 H          1 MOL1         0.3769
      33    C10     14.902597   17.221442   21.924617 C.3        1 MOL1         0.1018
      34    H16     13.934697   16.710374   22.003737 H          1 MOL1         0.0783
      35    C11     14.931330   18.117425   20.640686 C.3        1 MOL1         0.1043
      36    H17     15.982907   18.292769   20.396775 H          1 MOL1         0.0783
      37    O9      14.273342   19.395438   20.855495 O.3        1 MOL1        -0.3740
      38    C12     14.248762   17.499578   19.391110 C.3        1 MOL1         0.0138
      39    H18     14.909260   16.752935   18.937300 H          1 MOL1         0.0794
      40    H19     14.117535   18.291104   18.640898 H          1 MOL1         0.0794
      41    O10     12.982350   16.906634   19.702109 O.3        1 MOL1        -0.5486
      42    H20     12.568892   16.625254   18.856734 H          1 MOL1         0.3769
      43    C13     18.620820   23.557198   20.427183 C.3        1 MOL1         0.2972
      44    H21     18.952222   24.423734   19.840850 H          1 MOL1         0.0751
      45    O11     19.686102   23.039864   21.240745 O.3        1 MOL1        -0.3740
      46    C14     17.461913   23.964080   21.375772 C.3        1 MOL1         0.1003
      47    H22     16.696201   24.449181   20.756692 H          1 MOL1         0.0783
      48    O12     17.936046   24.898093   22.359707 O.3        1 MOL1        -0.5519
      49    H23     18.789151   24.530955   22.700136 H          1 MOL1         0.3769
      50    C15     16.799833   22.745211   22.075345 C.3        1 MOL1         0.1053
      51    H24     17.492967   22.362501   22.837760 H          1 MOL1         0.0783
      52    O13     15.585371   23.191288   22.688464 O.3        1 MOL1        -0.5519
      53    H25     15.846311   23.941596   23.265248 H          1 MOL1         0.3769
      54    C16     16.505541   21.598913   21.070729 C.3        1 MOL1         0.1018
      55    H26     15.695719   21.914200   20.399570 H          1 MOL1         0.0783
      56    C17     17.759186   21.285674   20.218495 C.3        1 MOL1         0.1043
      57    H27     18.553908   20.942187   20.891576 H          1 MOL1         0.0783
      58    O14     18.166803   22.502127   19.553947 O.3        1 MOL1        -0.3740
      59    C18     17.553880   20.194293   19.140190 C.3        1 MOL1         0.0138
      60    H28     17.697301   19.215430   19.612518 H          1 MOL1         0.0794
      61    H29     18.341768   20.296886   18.382252 H          1 MOL1         0.0794
      62    O15     16.262373   20.258426   18.521332 O.3        1 MOL1        -0.5486
      63    H30     15.589990   20.135909   19.229112 H          1 MOL1         0.3769
      64    C19     23.816646   22.830323   21.273933 C.3        1 MOL1         0.2972
      65    H31     24.899541   22.991569   21.196067 H          1 MOL1         0.0751
      66    O16     23.500999   21.455647   21.561827 O.3        1 MOL1        -0.3740
      67    C20     23.199313   23.720875   22.381060 C.3        1 MOL1         0.1003
      68    H32     23.375486   24.765176   22.092289 H          1 MOL1         0.0783
      69    O17     23.821537   23.478325   23.652554 O.3        1 MOL1        -0.5519
      70    H33     23.800791   22.499885   23.809392 H          1 MOL1         0.3769
      71    C21     21.667300   23.507759   22.469045 C.3        1 MOL1         0.1053
      72    H34     21.478299   22.492209   22.847595 H          1 MOL1         0.0783
      73    O18     21.108774   24.475290   23.367066 O.3        1 MOL1        -0.5519
      74    H35     21.629923   24.386874   24.194603 H          1 MOL1         0.3769
      75    C22     20.985400   23.643646   21.083080 C.3        1 MOL1         0.1018
      76    H36     20.904358   24.713438   20.850283 H          1 MOL1         0.0783
      77    C23     21.755816   22.906317   19.943971 C.3        1 MOL1         0.1043
      78    H37     21.595163   21.827530   20.061554 H          1 MOL1         0.0783
      79    O19     23.175177   23.186446   20.033740 O.3        1 MOL1        -0.3740
      80    C24     21.303695   23.285158   18.511961 C.3        1 MOL1         0.0138
      81    H38     20.340275   22.803856   18.304000 H          1 MOL1         0.0794
      82    H39     22.027455   22.868788   17.798568 H          1 MOL1         0.0794
      83    O20     21.192585   24.703059   18.332698 O.3        1 MOL1        -0.5486
      84    H40     20.978738   24.867435   17.388450 H          1 MOL1         0.3769
      85    C25     25.018390   17.692996   22.162313 C.3        1 MOL1         0.2972
      86    H41     25.601986   16.781902   22.347622 H          1 MOL1         0.0751
      87    O21     23.677992   17.390247   21.733588 O.3        1 MOL1        -0.3740
      88    C26     24.937686   18.547959   23.449798 C.3        1 MOL1         0.1003
      89    H42     25.960441   18.854668   23.704762 H          1 MOL1         0.0783
      90    O22     24.387255   17.790083   24.539279 O.3        1 MOL1        -0.5519
      91    H43     24.049901   16.942544   24.157990 H          1 MOL1         0.3769
      92    C27     24.102502   19.825310   23.203404 C.3        1 MOL1         0.1053
      93    H44     23.061601   19.524610   23.031745 H          1 MOL1         0.0783
      94    O23     24.174830   20.662088   24.361797 O.3        1 MOL1        -0.5519
      95    H45     23.982517   20.059701   25.114913 H          1 MOL1         0.3769
      96    C28     24.592855   20.602083   21.955302 C.3        1 MOL1         0.1018
      97    H46     25.487141   21.175086   22.233550 H          1 MOL1         0.0783
      98    C29     24.901733   19.683605   20.735935 C.3        1 MOL1         0.1043
      99    H47     23.943720   19.372798   20.302455 H          1 MOL1         0.0783
     100    O24     25.638600   18.499127   21.139073 O.3        1 MOL1        -0.3740
     101    C30     25.693054   20.397954   19.614616 C.3        1 MOL1         0.0138
     102    H48     25.034280   21.139092   19.141908 H          1 MOL1         0.0794
     103    H49     25.957060   19.659061   18.846161 H          1 MOL1         0.0794
     104    O25     26.872002   21.043386   20.112165 O.3        1 MOL1        -0.5486
     105    H50     27.353786   21.417666   19.342515 H          1 MOL1         0.3769
     106    C31     21.243723   14.117192   20.879604 C.3        1 MOL1         0.2972
     107    H51     20.867385   13.140527   20.548606 H          1 MOL1         0.0751
     108    O26     20.170217   14.977736   21.308955 O.3        1 MOL1        -0.3740
     109    C32     22.212409   13.924754   22.073841 C.3        1 MOL1         0.1003
     110    H52     23.035421   13.285234   21.729161 H          1 MOL1         0.0783
     111    O27     21.541306   13.281205   23.168854 O.3        1 MOL1        -0.5519
     112    H53     20.570649   13.385316   23.009043 H          1 MOL1         0.3769
     113    C33     22.815814   15.275492   22.527221 C.3        1 MOL1         0.1053
     114    H54     22.008252   15.886232   22.952008 H          1 MOL1         0.0783
     115    O28     23.814381   15.036183   23.523640 O.3        1 MOL1        -0.5519
     116    H55     23.414586   14.366153   24.123328 H          1 MOL1         0.3769
     117    C34     23.423542   16.036992   21.322540 C.3        1 MOL1         0.1018
     118    H56     24.341163   15.528649   20.998729 H          1 MOL1         0.0783
     119    C35     22.434061   16.114304   20.129077 C.3        1 MOL1         0.1043
     120    H57     21.587806   16.738110   20.435534 H          1 MOL1         0.0783
     121    O29     21.950852   14.784821   19.809266 O.3        1 MOL1        -0.3740
     122    C36     23.025523   16.767410   18.853322 C.3        1 MOL1         0.0138
     123    H58     22.898130   17.854778   18.932826 H          1 MOL1         0.0794
     124    H59     22.438561   16.440594   17.984587 H          1 MOL1         0.0794
     125    O30     24.411970   16.463731   18.657167 O.3        1 MOL1        -0.5486
     126    H60     24.914707   16.940577   19.355320 H          1 MOL1         0.3769
     127    C1      18.645744   19.980583   23.861925 C.2        1 MOL1         0.6021
     128    O1      17.621758   20.020718   24.517960 O.co2      1 MOL1        -0.6904
     129    O2      19.464605   20.877972   23.852588 O.co2      1 MOL1        -0.6904
     130    C2      18.875785   18.716261   23.024130 C.3        1 MOL1        -0.2102
     131    H1      18.197361   18.751747   22.166699 H          1 MOL1         0.0687
     132    H2      18.555129   17.869639   23.642570 H          1 MOL1         0.0687
     133    C3      20.323880   18.445958   22.541551 C.3        1 MOL1        -0.1974
     134    H3      21.021961   18.603264   23.374278 H          1 MOL1         0.0689
     135    H4      20.404338   17.390933   22.263153 H          1 MOL1         0.0689
     136    C4      20.729669   19.313218   21.332017 C.3        1 MOL1        -0.2987
     137    H5      20.702721   20.376178   21.600231 H          1 MOL1         0.0700
     138    H6      21.749465   19.080891   21.010070 H          1 MOL1         0.0700
     139    H7      20.058798   19.151561   20.481918 H          1 MOL1         0.0700
@<TRIPOS>BOND
    1     1     2    1
    2     1     3    1
    3     1     4    1
    4     4     5    1
    5     4     6    1
    6     6     7    1
    7     4     8    1
    8     8     9    1
    9     8    10    1
   10    10    11    1
   11     8    12    1
   12    12    13    1
   13    12    14    1
   14    14    15    1
   15     1    16    1
   16    14    16    1
   17    14    17    1
   18    17    18    1
   19    17    19    1
   20    17    20    1
   21    20    21    1
   22    22    23    1
   23    22    24    1
   24    22    25    1
   25    25    26    1
   26    25    27    1
   27    27    28    1
   28    25    29    1
   29    29    30    1
   30    29    31    1
   31    31    32    1
   32     3    33    1
   33    29    33    1
   34    33    34    1
   35    33    35    1
   36    35    36    1
   37    22    37    1
   38    35    37    1
   39    35    38    1
   40    38    39    1
   41    38    40    1
   42    38    41    1
   43    41    42    1
   44    43    44    1
   45    43    45    1
   46    43    46    1
   47    46    47    1
   48    46    48    1
   49    48    49    1
   50    46    50    1
   51    50    51    1
   52    50    52    1
   53    52    53    1
   54    24    54    1
   55    50    54    1
   56    54    55    1
   57    54    56    1
   58    56    57    1
   59    43    58    1
   60    56    58    1
   61    56    59    1
   62    59    60    1
   63    59    61    1
   64    59    62    1
   65    62    63    1
   66    64    65    1
   67    64    66    1
   68    64    67    1
   69    67    68    1
   70    67    69    1
   71    69    70    1
   72    67    71    1
   73    71    72    1
   74    71    73    1
   75    73    74    1
   76    45    75    1
   77    71    75    1
   78    75    76    1
   79    75    77    1
   80    77    78    1
   81    64    79    1
   82    77    79    1
   83    77    80    1
   84    80    81    1
   85    80    82    1
   86    80    83    1
   87    83    84    1
   88    85    86    1
   89    85    87    1
   90    85    88    1
   91    88    89    1
   92    88    90    1
   93    90    91    1
   94    88    92    1
   95    92    93    1
   96    92    94    1
   97    94    95    1
   98    66    96    1
   99    92    96    1
  100    96    97    1
  101    96    98    1
  102    98    99    1
  103    85   100    1
  104    98   100    1
  105    98   101    1
  106   101   102    1
  107   101   103    1
  108   101   104    1
  109   104   105    1
  110   106   107    1
  111    12   108    1
  112   106   108    1
  113   106   109    1
  114   109   110    1
  115   109   111    1
  116   111   112    1
  117   109   113    1
  118   113   114    1
  119   113   115    1
  120   115   116    1
  121    87   117    1
  122   113   117    1
  123   117   118    1
  124   117   119    1
  125   119   120    1
  126   106   121    1
  127   119   121    1
  128   119   122    1
  129   122   123    1
  130   122   124    1
  131   122   125    1
  132   125   126    1
  133   127   128    1
  134   127   129    2
  135   127   130    1
  136   130   131    1
  137   130   132    1
  138   130   133    1
  139   133   134    1
  140   133   135    1
  141   133   136    1
  142   136   137    1
  143   136   138    1
  144   136   139    1
@<TRIPOS>SUBSTRUCTURE
       1 MOL1            1 RESIDUE      1      MOL     
       2 MOL1          139 RESIDUE      1      MOL     
@<SCITEGIC>MOL_PROPERTY
feprocess Rank
SciTegic.value.IntegerValue
79

@<SCITEGIC>MOL_PROPERTY
Conf_Id
SciTegic.value.IntegerValue
55

@<SCITEGIC>MOL_PROPERTY
Probability
SciTegic.value.DoubleValue
0.00

@<SCITEGIC>MOL_PROPERTY
G
SciTegic.value.DoubleValue
493.050

@<SCITEGIC>MOL_PROPERTY
E
SciTegic.value.DoubleValue
316.657

@<SCITEGIC>MOL_PROPERTY
-TS
SciTegic.value.DoubleValue
176.393

@<SCITEGIC>MOL_PROPERTY
U+W
SciTegic.value.DoubleValue
194.146

@<SCITEGIC>MOL_PROPERTY
U
SciTegic.value.DoubleValue
276.312

@<SCITEGIC>MOL_PROPERTY
W
SciTegic.value.DoubleValue
-82.166

@<SCITEGIC>MOL_PROPERTY
W(PB)
SciTegic.value.DoubleValue
-88.136

@<SCITEGIC>MOL_PROPERTY
W(SA)
SciTegic.value.DoubleValue
5.970

@<SCITEGIC>MOL_PROPERTY
Valence
SciTegic.value.DoubleValue
151.776

@<SCITEGIC>MOL_PROPERTY
Coulomb
SciTegic.value.DoubleValue
150.160

@<SCITEGIC>MOL_PROPERTY
VdW
SciTegic.value.DoubleValue
-25.624

@<SCITEGIC>MOL_PROPERTY
VdW6
SciTegic.value.DoubleValue
-177.500

@<SCITEGIC>MOL_PROPERTY
VdW12
SciTegic.value.DoubleValue
151.877

@<SCITEGIC>MOL_PROPERTY
Bond
SciTegic.value.DoubleValue
4.881

@<SCITEGIC>MOL_PROPERTY
Angle
SciTegic.value.DoubleValue
15.290

@<SCITEGIC>MOL_PROPERTY
Pdih
SciTegic.value.DoubleValue
131.606

@<SCITEGIC>MOL_PROPERTY
Idih
SciTegic.value.DoubleValue
0.000

@<SCITEGIC>MOL_PROPERTY
Tether
SciTegic.value.DoubleValue
0.000

@<TRIPOS>MOLECULE
CD_guest-6_fast_vm2_rndm.mol2 : feprocess host+ligand conformer 80
         139         144           2
SMALL
USER_CHARGES
 
@<TRIPOS>ATOM
       1    C1      16.122475   15.217860   20.812452 C.3        1 MOL1         0.2972
       2    H1      15.099780   15.036192   20.458808 H          1 MOL1         0.0751
       3    O1      16.231466   16.482745   21.488368 O.3        1 MOL1        -0.3740
       4    C2      16.525284   14.130396   21.839206 C.3        1 MOL1         0.1003
       5    H2      16.434230   13.154105   21.345667 H          1 MOL1         0.0783
       6    O2      15.649006   14.177341   22.976979 O.3        1 MOL1        -0.5519
       7    H3      15.480996   15.134047   23.160785 H          1 MOL1         0.3769
       8    C3      17.995632   14.310461   22.287819 C.3        1 MOL1         0.1053
       9    H4      18.068139   15.239440   22.870732 H          1 MOL1         0.0783
      10    O3      18.389819   13.196630   23.097086 O.3        1 MOL1        -0.5519
      11    H5      17.655528   13.073441   23.738938 H          1 MOL1         0.3769
      12    C4      18.933567   14.435519   21.064353 C.3        1 MOL1         0.1018
      13    H6      18.967486   13.464725   20.552512 H          1 MOL1         0.0783
      14    C5      18.430574   15.515706   20.065866 C.3        1 MOL1         0.1043
      15    H7      18.461920   16.495782   20.557205 H          1 MOL1         0.0783
      16    O4      17.060533   15.194884   19.713316 O.3        1 MOL1        -0.3740
      17    C6      19.261970   15.649059   18.764678 C.3        1 MOL1         0.0138
      18    H8      20.089960   16.345228   18.951722 H          1 MOL1         0.0794
      19    H9      18.633213   16.113218   17.993855 H          1 MOL1         0.0794
      20    O5      19.777358   14.397698   18.294586 O.3        1 MOL1        -0.5486
      21    H10     20.593325   14.216896   18.816451 H          1 MOL1         0.3769
      22    C7      14.603892   20.324106   21.371876 C.3        1 MOL1         0.2972
      23    H11     13.927626   21.179873   21.250977 H          1 MOL1         0.0751
      24    O6      15.924113   20.744680   21.764639 O.3        1 MOL1        -0.3740
      25    C8      14.065065   19.387747   22.480068 C.3        1 MOL1         0.1003
      26    H12     13.057238   19.068023   22.184957 H          1 MOL1         0.0783
      27    O7      13.996996   20.092624   23.730161 O.3        1 MOL1        -0.5519
      28    H13     14.760617   20.720469   23.739704 H          1 MOL1         0.3769
      29    C9      14.947956   18.124912   22.619756 C.3        1 MOL1         0.1053
      30    H14     15.923029   18.433205   23.022483 H          1 MOL1         0.0783
      31    O8      14.320947   17.202258   23.518796 O.3        1 MOL1        -0.5519
      32    H15     14.068640   17.739463   24.302030 H          1 MOL1         0.3769
      33    C10     15.187412   17.444144   21.249615 C.3        1 MOL1         0.1018
      34    H16     14.252419   16.963411   20.933401 H          1 MOL1         0.0783
      35    C11     15.648305   18.471126   20.174661 C.3        1 MOL1         0.1043
      36    H17     16.635924   18.844586   20.470520 H          1 MOL1         0.0783
      37    O9      14.705809   19.573423   20.144674 O.3        1 MOL1        -0.3740
      38    C12     15.789884   17.926886   18.731489 C.3        1 MOL1         0.0138
      39    H18     16.796527   17.504692   18.619160 H          1 MOL1         0.0794
      40    H19     15.727882   18.770877   18.032400 H          1 MOL1         0.0794
      41    O10     14.802522   16.944840   18.397626 O.3        1 MOL1        -0.5486
      42    H20     15.239523   16.070114   18.493037 H          1 MOL1         0.3769
      43    C13     18.505104   24.016245   21.319275 C.3        1 MOL1         0.2972
      44    H21     18.889337   25.024720   21.119640 H          1 MOL1         0.0751
      45    O11     19.565068   23.102390   21.656580 O.3        1 MOL1        -0.3740
      46    C14     17.517827   24.066812   22.511060 C.3        1 MOL1         0.1003
      47    H22     16.715794   24.767695   22.245374 H          1 MOL1         0.0783
      48    O12     18.183889   24.536067   23.694564 O.3        1 MOL1        -0.5519
      49    H23     19.142912   24.315454   23.590334 H          1 MOL1         0.3769
      50    C15     16.876436   22.682472   22.761683 C.3        1 MOL1         0.1053
      51    H24     17.660378   21.997236   23.113609 H          1 MOL1         0.0783
      52    O13     15.852936   22.805217   23.756386 O.3        1 MOL1        -0.5519
      53    H25     16.262715   23.331200   24.478686 H          1 MOL1         0.3769
      54    C16     16.279169   22.105397   21.456135 C.3        1 MOL1         0.1018
      55    H26     15.402192   22.706667   21.182670 H          1 MOL1         0.0783
      56    C17     17.316468   22.139056   20.295345 C.3        1 MOL1         0.1043
      57    H27     18.140588   21.463474   20.553933 H          1 MOL1         0.0783
      58    O14     17.819864   23.493673   20.161904 O.3        1 MOL1        -0.3740
      59    C18     16.793781   21.692019   18.908028 C.3        1 MOL1         0.0138
      60    H28     16.906987   20.604119   18.830994 H          1 MOL1         0.0794
      61    H29     17.440029   22.127527   18.134566 H          1 MOL1         0.0794
      62    O15     15.429995   22.059152   18.673031 O.3        1 MOL1        -0.5486
      63    H30     14.882440   21.325477   19.035634 H          1 MOL1         0.3769
      64    C19     23.706467   22.726787   21.192903 C.3        1 MOL1         0.2972
      65    H31     24.755333   22.912734   20.929587 H          1 MOL1         0.0751
      66    O16     23.532580   21.434598   21.802114 O.3        1 MOL1        -0.3740
      67    C20     23.229021   23.774558   22.229059 C.3        1 MOL1         0.1003
      68    H32     23.360563   24.769278   21.783757 H          1 MOL1         0.0783
      69    O17     24.014778   23.677515   23.428257 O.3        1 MOL1        -0.5519
      70    H33     24.172847   22.713977   23.584434 H          1 MOL1         0.3769
      71    C21     21.727524   23.585268   22.554896 C.3        1 MOL1         0.1053
      72    H34     21.608246   22.634811   23.093531 H          1 MOL1         0.0783
      73    O18     21.273649   24.668030   23.374644 O.3        1 MOL1        -0.5519
      74    H35     21.957180   24.763852   24.074737 H          1 MOL1         0.3769
      75    C22     20.885640   23.513078   21.259205 C.3        1 MOL1         0.1018
      76    H36     20.886681   24.505714   20.789833 H          1 MOL1         0.0783
      77    C23     21.466078   22.479335   20.254683 C.3        1 MOL1         0.1043
      78    H37     21.398522   21.481311   20.701563 H          1 MOL1         0.0783
      79    O19     22.859766   22.806057   20.024522 O.3        1 MOL1        -0.3740
      80    C24     20.736071   22.403502   18.889508 C.3        1 MOL1         0.0138
      81    H38     19.894433   21.704674   18.983477 H          1 MOL1         0.0794
      82    H39     21.421733   21.969743   18.149942 H          1 MOL1         0.0794
      83    O20     20.259245   23.675334   18.434829 O.3        1 MOL1        -0.5486
      84    H40     19.400056   23.832866   18.890548 H          1 MOL1         0.3769
      85    C25     25.179351   17.605266   21.726348 C.3        1 MOL1         0.2972
      86    H41     25.862851   16.751053   21.639966 H          1 MOL1         0.0751
      87    O21     23.831710   17.179531   22.004508 O.3        1 MOL1        -0.3740
      88    C26     25.627831   18.514950   22.895399 C.3        1 MOL1         0.1003
      89    H42     26.654005   18.844524   22.687055 H          1 MOL1         0.0783
      90    O22     25.601761   17.780145   24.129772 O.3        1 MOL1        -0.5519
      91    H43     24.845979   17.146112   24.063414 H          1 MOL1         0.3769
      92    C27     24.730039   19.770902   22.995861 C.3        1 MOL1         0.1053
      93    H44     23.726945   19.449300   23.309393 H          1 MOL1         0.0783
      94    O23     25.275787   20.673087   23.965740 O.3        1 MOL1        -0.5519
      95    H45     25.474730   20.115609   24.750392 H          1 MOL1         0.3769
      96    C28     24.599703   20.485158   21.628586 C.3        1 MOL1         0.1018
      97    H46     25.554884   20.977058   21.402610 H          1 MOL1         0.0783
      98    C29     24.233126   19.487150   20.492399 C.3        1 MOL1         0.1043
      99    H47     23.224846   19.106225   20.693312 H          1 MOL1         0.0783
     100    O24     25.175382   18.384419   20.512171 O.3        1 MOL1        -0.3740
     101    C30     24.210557   20.075145   19.059695 C.3        1 MOL1         0.0138
     102    H48     23.221079   20.515668   18.882617 H          1 MOL1         0.0794
     103    H49     24.316841   19.251020   18.342366 H          1 MOL1         0.0794
     104    O25     25.232542   21.052878   18.834686 O.3        1 MOL1        -0.5486
     105    H50     24.798125   21.931217   18.904162 H          1 MOL1         0.3769
     106    C31     21.301306   13.914023   21.297098 C.3        1 MOL1         0.2972
     107    H51     20.933311   12.911049   21.045798 H          1 MOL1         0.0751
     108    O26     20.219985   14.819381   21.580203 O.3        1 MOL1        -0.3740
     109    C32     22.199532   13.836521   22.556115 C.3        1 MOL1         0.1003
     110    H52     23.021863   13.144385   22.333043 H          1 MOL1         0.0783
     111    O27     21.450176   13.337133   23.675644 O.3        1 MOL1        -0.5519
     112    H53     20.501499   13.562363   23.507040 H          1 MOL1         0.3769
     113    C33     22.814230   15.216565   22.886474 C.3        1 MOL1         0.1053
     114    H54     22.003390   15.890835   23.196260 H          1 MOL1         0.0783
     115    O28     23.763210   15.073432   23.950001 O.3        1 MOL1        -0.5519
     116    H55     23.304074   14.529560   24.628048 H          1 MOL1         0.3769
     117    C34     23.502624   15.825724   21.641893 C.3        1 MOL1         0.1018
     118    H56     24.398198   15.231324   21.418259 H          1 MOL1         0.0783
     119    C35     22.552594   15.819467   20.408809 C.3        1 MOL1         0.1043
     120    H57     21.708757   16.488555   20.623844 H          1 MOL1         0.0783
     121    O29     22.066716   14.466751   20.206090 O.3        1 MOL1        -0.3740
     122    C36     23.179560   16.296366   19.075144 C.3        1 MOL1         0.0138
     123    H58     23.082800   17.386623   19.016941 H          1 MOL1         0.0794
     124    H59     22.588320   15.887090   18.245408 H          1 MOL1         0.0794
     125    O30     24.554339   15.922398   18.931681 O.3        1 MOL1        -0.5486
     126    H60     25.079443   16.643507   19.348311 H          1 MOL1         0.3769
     127    C1      19.997364   19.046600   20.185647 C.2        1 MOL1         0.6021
     128    O1      18.917602   19.119945   19.632196 O.co2      1 MOL1        -0.6904
     129    O2      21.037121   18.806380   19.604230 O.co2      1 MOL1        -0.6904
     130    C2      20.064177   19.327500   21.686621 C.3        1 MOL1        -0.2102
     131    H1      19.608343   20.306578   21.866045 H          1 MOL1         0.0687
     132    H2      21.118612   19.404399   21.978150 H          1 MOL1         0.0687
     133    C3      19.359658   18.259636   22.554951 C.3        1 MOL1        -0.1974
     134    H3      18.311957   18.165798   22.240928 H          1 MOL1         0.0689
     135    H4      19.836941   17.285747   22.392806 H          1 MOL1         0.0689
     136    C4      19.415074   18.615792   24.052850 C.3        1 MOL1        -0.2987
     137    H5      18.916712   19.574904   24.245363 H          1 MOL1         0.0700
     138    H6      18.911851   17.845074   24.650732 H          1 MOL1         0.0700
     139    H7      20.454071   18.691423   24.399161 H          1 MOL1         0.0700
@<TRIPOS>BOND
    1     1     2    1
    2     1     3    1
    3     1     4    1
    4     4     5    1
    5     4     6    1
    6     6     7    1
    7     4     8    1
    8     8     9    1
    9     8    10    1
   10    10    11    1
   11     8    12    1
   12    12    13    1
   13    12    14    1
   14    14    15    1
   15     1    16    1
   16    14    16    1
   17    14    17    1
   18    17    18    1
   19    17    19    1
   20    17    20    1
   21    20    21    1
   22    22    23    1
   23    22    24    1
   24    22    25    1
   25    25    26    1
   26    25    27    1
   27    27    28    1
   28    25    29    1
   29    29    30    1
   30    29    31    1
   31    31    32    1
   32     3    33    1
   33    29    33    1
   34    33    34    1
   35    33    35    1
   36    35    36    1
   37    22    37    1
   38    35    37    1
   39    35    38    1
   40    38    39    1
   41    38    40    1
   42    38    41    1
   43    41    42    1
   44    43    44    1
   45    43    45    1
   46    43    46    1
   47    46    47    1
   48    46    48    1
   49    48    49    1
   50    46    50    1
   51    50    51    1
   52    50    52    1
   53    52    53    1
   54    24    54    1
   55    50    54    1
   56    54    55    1
   57    54    56    1
   58    56    57    1
   59    43    58    1
   60    56    58    1
   61    56    59    1
   62    59    60    1
   63    59    61    1
   64    59    62    1
   65    62    63    1
   66    64    65    1
   67    64    66    1
   68    64    67    1
   69    67    68    1
   70    67    69    1
   71    69    70    1
   72    67    71    1
   73    71    72    1
   74    71    73    1
   75    73    74    1
   76    45    75    1
   77    71    75    1
   78    75    76    1
   79    75    77    1
   80    77    78    1
   81    64    79    1
   82    77    79    1
   83    77    80    1
   84    80    81    1
   85    80    82    1
   86    80    83    1
   87    83    84    1
   88    85    86    1
   89    85    87    1
   90    85    88    1
   91    88    89    1
   92    88    90    1
   93    90    91    1
   94    88    92    1
   95    92    93    1
   96    92    94    1
   97    94    95    1
   98    66    96    1
   99    92    96    1
  100    96    97    1
  101    96    98    1
  102    98    99    1
  103    85   100    1
  104    98   100    1
  105    98   101    1
  106   101   102    1
  107   101   103    1
  108   101   104    1
  109   104   105    1
  110   106   107    1
  111    12   108    1
  112   106   108    1
  113   106   109    1
  114   109   110    1
  115   109   111    1
  116   111   112    1
  117   109   113    1
  118   113   114    1
  119   113   115    1
  120   115   116    1
  121    87   117    1
  122   113   117    1
  123   117   118    1
  124   117   119    1
  125   119   120    1
  126   106   121    1
  127   119   121    1
  128   119   122    1
  129   122   123    1
  130   122   124    1
  131   122   125    1
  132   125   126    1
  133   127   128    1
  134   127   129    2
  135   127   130    1
  136   130   131    1
  137   130   132    1
  138   130   133    1
  139   133   134    1
  140   133   135    1
  141   133   136    1
  142   136   137    1
  143   136   138    1
  144   136   139    1
@<TRIPOS>SUBSTRUCTURE
       1 MOL1            1 RESIDUE      1      MOL     
       2 MOL1          139 RESIDUE      1      MOL     
@<SCITEGIC>MOL_PROPERTY
feprocess Rank
SciTegic.value.IntegerValue
80

@<SCITEGIC>MOL_PROPERTY
Conf_Id
SciTegic.value.IntegerValue
73

@<SCITEGIC>MOL_PROPERTY
Probability
SciTegic.value.DoubleValue
0.00

@<SCITEGIC>MOL_PROPERTY
G
SciTegic.value.DoubleValue
493.320

@<SCITEGIC>MOL_PROPERTY
E
SciTegic.value.DoubleValue
319.791

@<SCITEGIC>MOL_PROPERTY
-TS
SciTegic.value.DoubleValue
173.529

@<SCITEGIC>MOL_PROPERTY
U+W
SciTegic.value.DoubleValue
197.279

@<SCITEGIC>MOL_PROPERTY
U
SciTegic.value.DoubleValue
262.471

@<SCITEGIC>MOL_PROPERTY
W
SciTegic.value.DoubleValue
-65.192

@<SCITEGIC>MOL_PROPERTY
W(PB)
SciTegic.value.DoubleValue
-71.037

@<SCITEGIC>MOL_PROPERTY
W(SA)
SciTegic.value.DoubleValue
5.845

@<SCITEGIC>MOL_PROPERTY
Valence
SciTegic.value.DoubleValue
157.140

@<SCITEGIC>MOL_PROPERTY
Coulomb
SciTegic.value.DoubleValue
132.630

@<SCITEGIC>MOL_PROPERTY
VdW
SciTegic.value.DoubleValue
-27.298

@<SCITEGIC>MOL_PROPERTY
VdW6
SciTegic.value.DoubleValue
-179.011

@<SCITEGIC>MOL_PROPERTY
VdW12
SciTegic.value.DoubleValue
151.713

@<SCITEGIC>MOL_PROPERTY
Bond
SciTegic.value.DoubleValue
4.361

@<SCITEGIC>MOL_PROPERTY
Angle
SciTegic.value.DoubleValue
13.454

@<SCITEGIC>MOL_PROPERTY
Pdih
SciTegic.value.DoubleValue
139.320

@<SCITEGIC>MOL_PROPERTY
Idih
SciTegic.value.DoubleValue
0.005

@<SCITEGIC>MOL_PROPERTY
Tether
SciTegic.value.DoubleValue
0.000

@<TRIPOS>MOLECULE
CD_guest-6_fast_vm2_rndm.mol2 : feprocess host+ligand conformer 81
         139         144           2
SMALL
USER_CHARGES
 
@<TRIPOS>ATOM
       1    C1      16.236398   15.125977   22.025505 C.3        1 MOL1         0.2972
       2    H1      15.139257   15.145702   22.044551 H          1 MOL1         0.0751
       3    O1      16.773569   16.445809   21.813680 O.3        1 MOL1        -0.3740
       4    C2      16.762050   14.520767   23.348470 C.3        1 MOL1         0.1003
       5    H2      16.372481   13.496282   23.407412 H          1 MOL1         0.0783
       6    O2      16.295311   15.261110   24.486108 O.3        1 MOL1        -0.5519
       7    H3      16.707249   16.168597   24.430106 H          1 MOL1         0.3769
       8    C3      18.302051   14.441101   23.358210 C.3        1 MOL1         0.1053
       9    H4      18.681118   15.467645   23.412922 H          1 MOL1         0.0783
      10    O3      18.723087   13.715296   24.518575 O.3        1 MOL1        -0.5519
      11    H5      18.238138   14.129585   25.266327 H          1 MOL1         0.3769
      12    C4      18.889940   13.783714   22.081314 C.3        1 MOL1         0.1018
      13    H6      18.847097   12.694010   22.203646 H          1 MOL1         0.0783
      14    C5      18.148521   14.203561   20.767077 C.3        1 MOL1         0.1043
      15    H7      18.528818   15.190000   20.487208 H          1 MOL1         0.0783
      16    O4      16.709658   14.285174   20.956434 O.3        1 MOL1        -0.3740
      17    C6      18.358541   13.251474   19.559320 C.3        1 MOL1         0.0138
      18    H8      19.342715   13.428661   19.112393 H          1 MOL1         0.0794
      19    H9      17.619669   13.503543   18.786611 H          1 MOL1         0.0794
      20    O5      18.230059   11.872829   19.926581 O.3        1 MOL1        -0.5486
      21    H10     18.277841   11.338961   19.103482 H          1 MOL1         0.3769
      22    C7      15.343634   20.126564   20.295139 C.3        1 MOL1         0.2972
      23    H11     14.779592   20.841342   19.682422 H          1 MOL1         0.0751
      24    O6      16.343753   20.788367   21.085329 O.3        1 MOL1        -0.3740
      25    C8      14.392721   19.381288   21.268880 C.3        1 MOL1         0.1003
      26    H12     13.586288   18.950229   20.661652 H          1 MOL1         0.0783
      27    O7      13.828813   20.304252   22.215764 O.3        1 MOL1        -0.5519
      28    H13     14.579164   20.854620   22.554212 H          1 MOL1         0.3769
      29    C9      15.095334   18.214329   22.015546 C.3        1 MOL1         0.1053
      30    H14     15.778628   18.641322   22.763282 H          1 MOL1         0.0783
      31    O8      14.087058   17.426378   22.657606 O.3        1 MOL1        -0.5519
      32    H15     13.578085   18.057521   23.211041 H          1 MOL1         0.3769
      33    C10     15.928375   17.332377   21.046630 C.3        1 MOL1         0.1018
      34    H16     15.241651   16.769131   20.400989 H          1 MOL1         0.0783
      35    C11     16.840224   18.207596   20.152373 C.3        1 MOL1         0.1043
      36    H17     17.550127   18.734358   20.800941 H          1 MOL1         0.0783
      37    O9      16.008052   19.160843   19.454138 O.3        1 MOL1        -0.3740
      38    C12     17.663331   17.425634   19.100221 C.3        1 MOL1         0.0138
      39    H18     18.585453   17.075899   19.578779 H          1 MOL1         0.0794
      40    H19     17.965554   18.119433   18.304534 H          1 MOL1         0.0794
      41    O10     16.946111   16.317109   18.541754 O.3        1 MOL1        -0.5486
      42    H20     16.724827   15.706265   19.280974 H          1 MOL1         0.3769
      43    C13     18.495109   24.309730   21.210386 C.3        1 MOL1         0.2972
      44    H21     18.869042   25.339575   21.159625 H          1 MOL1         0.0751
      45    O11     19.549262   23.369042   21.487969 O.3        1 MOL1        -0.3740
      46    C14     17.407541   24.173733   22.305361 C.3        1 MOL1         0.1003
      47    H22     16.577362   24.833360   22.021264 H          1 MOL1         0.0783
      48    O12     17.908982   24.583221   23.587130 O.3        1 MOL1        -0.5519
      49    H23     18.773732   24.120325   23.728514 H          1 MOL1         0.3769
      50    C15     16.859540   22.726188   22.362896 C.3        1 MOL1         0.1053
      51    H24     17.655860   22.067493   22.739461 H          1 MOL1         0.0783
      52    O13     15.730310   22.681051   23.244561 O.3        1 MOL1        -0.5519
      53    H25     16.052909   23.057058   24.092320 H          1 MOL1         0.3769
      54    C16     16.430348   22.220309   20.962388 C.3        1 MOL1         0.1018
      55    H26     15.454835   22.664963   20.725479 H          1 MOL1         0.0783
      56    C17     17.459326   22.560533   19.841692 C.3        1 MOL1         0.1043
      57    H27     18.328475   21.901774   19.962647 H          1 MOL1         0.0783
      58    O14     17.890303   23.940291   19.955809 O.3        1 MOL1        -0.3740
      59    C18     16.925657   22.352699   18.403246 C.3        1 MOL1         0.0138
      60    H28     16.871941   21.275702   18.198928 H          1 MOL1         0.0794
      61    H29     17.652877   22.776887   17.698060 H          1 MOL1         0.0794
      62    O15     15.638379   22.952549   18.208725 O.3        1 MOL1        -0.5486
      63    H30     15.402009   22.848752   17.261233 H          1 MOL1         0.3769
      64    C19     23.572932   22.794963   22.053762 C.3        1 MOL1         0.2972
      65    H31     24.656514   22.849942   22.220831 H          1 MOL1         0.0751
      66    O16     23.153116   21.461887   21.710888 O.3        1 MOL1        -0.3740
      67    C20     22.814120   23.231610   23.329322 C.3        1 MOL1         0.1003
      68    H32     23.072277   24.280924   23.522623 H          1 MOL1         0.0783
      69    O17     23.204998   22.434018   24.458519 O.3        1 MOL1        -0.5519
      70    H33     23.730128   21.674353   24.105090 H          1 MOL1         0.3769
      71    C21     21.286384   23.146849   23.109431 C.3        1 MOL1         0.1053
      72    H34     21.015163   22.088833   22.999685 H          1 MOL1         0.0783
      73    O18     20.619453   23.698012   24.248606 O.3        1 MOL1        -0.5519
      74    H35     21.057996   23.275886   25.021082 H          1 MOL1         0.3769
      75    C22     20.847079   23.894999   21.824989 C.3        1 MOL1         0.1018
      76    H36     20.817336   24.970164   22.042329 H          1 MOL1         0.0783
      77    C23     21.773377   23.616267   20.604045 C.3        1 MOL1         0.1043
      78    H37     21.546395   22.607284   20.240437 H          1 MOL1         0.0783
      79    O19     23.174293   23.672980   20.980728 O.3        1 MOL1        -0.3740
      80    C24     21.546216   24.581306   19.415242 C.3        1 MOL1         0.0138
      81    H38     20.540696   24.410321   19.007166 H          1 MOL1         0.0794
      82    H39     22.262776   24.327011   18.622928 H          1 MOL1         0.0794
      83    O20     21.699273   25.957624   19.786057 O.3        1 MOL1        -0.5486
      84    H40     20.917368   26.221630   20.313135 H          1 MOL1         0.3769
      85    C25     24.758362   17.690599   20.951770 C.3        1 MOL1         0.2972
      86    H41     25.415334   16.867829   20.641190 H          1 MOL1         0.0751
      87    O21     23.477192   17.203134   21.397445 O.3        1 MOL1        -0.3740
      88    C26     25.412220   18.464708   22.124489 C.3        1 MOL1         0.1003
      89    H42     26.377032   18.847958   21.767576 H          1 MOL1         0.0783
      90    O22     25.635820   17.591903   23.243321 O.3        1 MOL1        -0.5519
      91    H43     25.055197   16.802056   23.109770 H          1 MOL1         0.3769
      92    C27     24.545205   19.674610   22.546422 C.3        1 MOL1         0.1053
      93    H44     23.612617   19.292953   22.982582 H          1 MOL1         0.0783
      94    O23     25.252100   20.448023   23.520849 O.3        1 MOL1        -0.5519
      95    H45     25.629400   19.784744   24.142057 H          1 MOL1         0.3769
      96    C28     24.189694   20.547856   21.317678 C.3        1 MOL1         0.1018
      97    H46     25.091199   21.073129   20.975841 H          1 MOL1         0.0783
      98    C29     23.621591   19.698897   20.149143 C.3        1 MOL1         0.1043
      99    H47     22.659626   19.285991   20.470299 H          1 MOL1         0.0783
     100    O24     24.531117   18.607724   19.856543 O.3        1 MOL1        -0.3740
     101    C30     23.346810   20.502735   18.851730 C.3        1 MOL1         0.0138
     102    H48     22.330915   20.914155   18.910815 H          1 MOL1         0.0794
     103    H49     23.360845   19.811656   17.998346 H          1 MOL1         0.0794
     104    O25     24.280200   21.569378   18.640707 O.3        1 MOL1        -0.5486
     105    H50     24.096590   22.255299   19.322273 H          1 MOL1         0.3769
     106    C31     21.179439   13.678543   21.113623 C.3        1 MOL1         0.2972
     107    H51     20.839338   12.688886   20.782512 H          1 MOL1         0.0751
     108    O26     20.263666   14.247297   22.067879 O.3        1 MOL1        -0.3740
     109    C32     22.563561   13.557635   21.807231 C.3        1 MOL1         0.1003
     110    H52     23.248190   13.076844   21.096402 H          1 MOL1         0.0783
     111    O27     22.457952   12.749398   22.988532 O.3        1 MOL1        -0.5519
     112    H53     21.661291   13.075141   23.467333 H          1 MOL1         0.3769
     113    C33     23.144853   14.947535   22.168803 C.3        1 MOL1         0.1053
     114    H54     22.516681   15.391830   22.953490 H          1 MOL1         0.0783
     115    O28     24.486957   14.798253   22.644655 O.3        1 MOL1        -0.5519
     116    H55     24.453224   14.049162   23.280605 H          1 MOL1         0.3769
     117    C34     23.117665   15.886653   20.941720 C.3        1 MOL1         0.1018
     118    H56     23.820706   15.507566   20.188012 H          1 MOL1         0.0783
     119    C35     21.698110   15.942901   20.321286 C.3        1 MOL1         0.1043
     120    H57     21.006602   16.362740   21.063002 H          1 MOL1         0.0783
     121    O29     21.298674   14.589810   19.995192 O.3        1 MOL1        -0.3740
     122    C36     21.587711   16.811707   19.041911 C.3        1 MOL1         0.0138
     123    H58     21.393914   17.848462   19.341466 H          1 MOL1         0.0794
     124    H59     20.714590   16.477590   18.465927 H          1 MOL1         0.0794
     125    O30     22.762509   16.763292   18.223664 O.3        1 MOL1        -0.5486
     126    H60     23.456865   17.293189   18.679938 H          1 MOL1         0.3769
     127    C1      18.360315   18.492538   23.882208 C.2        1 MOL1         0.6021
     128    O1      18.040133   19.664590   23.885164 O.co2      1 MOL1        -0.6904
     129    O2      17.765371   17.638458   24.512104 O.co2      1 MOL1        -0.6904
     130    C2      19.579117   18.025929   23.076231 C.3        1 MOL1        -0.2102
     131    H1      19.217870   17.424735   22.236442 H          1 MOL1         0.0687
     132    H2      20.142421   17.347834   23.728012 H          1 MOL1         0.0687
     133    C3      20.544137   19.124490   22.561493 C.3        1 MOL1        -0.1974
     134    H3      20.749601   19.839964   23.368761 H          1 MOL1         0.0689
     135    H4      21.500266   18.655415   22.310224 H          1 MOL1         0.0689
     136    C4      20.006999   19.862742   21.318438 C.3        1 MOL1        -0.2987
     137    H5      19.063781   20.369349   21.554889 H          1 MOL1         0.0700
     138    H6      20.715953   20.625555   20.983345 H          1 MOL1         0.0700
     139    H7      19.831585   19.170487   20.488102 H          1 MOL1         0.0700
@<TRIPOS>BOND
    1     1     2    1
    2     1     3    1
    3     1     4    1
    4     4     5    1
    5     4     6    1
    6     6     7    1
    7     4     8    1
    8     8     9    1
    9     8    10    1
   10    10    11    1
   11     8    12    1
   12    12    13    1
   13    12    14    1
   14    14    15    1
   15     1    16    1
   16    14    16    1
   17    14    17    1
   18    17    18    1
   19    17    19    1
   20    17    20    1
   21    20    21    1
   22    22    23    1
   23    22    24    1
   24    22    25    1
   25    25    26    1
   26    25    27    1
   27    27    28    1
   28    25    29    1
   29    29    30    1
   30    29    31    1
   31    31    32    1
   32     3    33    1
   33    29    33    1
   34    33    34    1
   35    33    35    1
   36    35    36    1
   37    22    37    1
   38    35    37    1
   39    35    38    1
   40    38    39    1
   41    38    40    1
   42    38    41    1
   43    41    42    1
   44    43    44    1
   45    43    45    1
   46    43    46    1
   47    46    47    1
   48    46    48    1
   49    48    49    1
   50    46    50    1
   51    50    51    1
   52    50    52    1
   53    52    53    1
   54    24    54    1
   55    50    54    1
   56    54    55    1
   57    54    56    1
   58    56    57    1
   59    43    58    1
   60    56    58    1
   61    56    59    1
   62    59    60    1
   63    59    61    1
   64    59    62    1
   65    62    63    1
   66    64    65    1
   67    64    66    1
   68    64    67    1
   69    67    68    1
   70    67    69    1
   71    69    70    1
   72    67    71    1
   73    71    72    1
   74    71    73    1
   75    73    74    1
   76    45    75    1
   77    71    75    1
   78    75    76    1
   79    75    77    1
   80    77    78    1
   81    64    79    1
   82    77    79    1
   83    77    80    1
   84    80    81    1
   85    80    82    1
   86    80    83    1
   87    83    84    1
   88    85    86    1
   89    85    87    1
   90    85    88    1
   91    88    89    1
   92    88    90    1
   93    90    91    1
   94    88    92    1
   95    92    93    1
   96    92    94    1
   97    94    95    1
   98    66    96    1
   99    92    96    1
  100    96    97    1
  101    96    98    1
  102    98    99    1
  103    85   100    1
  104    98   100    1
  105    98   101    1
  106   101   102    1
  107   101   103    1
  108   101   104    1
  109   104   105    1
  110   106   107    1
  111    12   108    1
  112   106   108    1
  113   106   109    1
  114   109   110    1
  115   109   111    1
  116   111   112    1
  117   109   113    1
  118   113   114    1
  119   113   115    1
  120   115   116    1
  121    87   117    1
  122   113   117    1
  123   117   118    1
  124   117   119    1
  125   119   120    1
  126   106   121    1
  127   119   121    1
  128   119   122    1
  129   122   123    1
  130   122   124    1
  131   122   125    1
  132   125   126    1
  133   127   128    1
  134   127   129    2
  135   127   130    1
  136   130   131    1
  137   130   132    1
  138   130   133    1
  139   133   134    1
  140   133   135    1
  141   133   136    1
  142   136   137    1
  143   136   138    1
  144   136   139    1
@<TRIPOS>SUBSTRUCTURE
       1 MOL1            1 RESIDUE      1      MOL     
       2 MOL1          139 RESIDUE      1      MOL     
@<SCITEGIC>MOL_PROPERTY
feprocess Rank
SciTegic.value.IntegerValue
81

@<SCITEGIC>MOL_PROPERTY
Conf_Id
SciTegic.value.IntegerValue
991

@<SCITEGIC>MOL_PROPERTY
Probability
SciTegic.value.DoubleValue
0.00

@<SCITEGIC>MOL_PROPERTY
G
SciTegic.value.DoubleValue
493.376

@<SCITEGIC>MOL_PROPERTY
E
SciTegic.value.DoubleValue
318.024

@<SCITEGIC>MOL_PROPERTY
-TS
SciTegic.value.DoubleValue
175.352

@<SCITEGIC>MOL_PROPERTY
U+W
SciTegic.value.DoubleValue
195.513

@<SCITEGIC>MOL_PROPERTY
U
SciTegic.value.DoubleValue
276.966

@<SCITEGIC>MOL_PROPERTY
W
SciTegic.value.DoubleValue
-81.454

@<SCITEGIC>MOL_PROPERTY
W(PB)
SciTegic.value.DoubleValue
-87.341

@<SCITEGIC>MOL_PROPERTY
W(SA)
SciTegic.value.DoubleValue
5.887

@<SCITEGIC>MOL_PROPERTY
Valence
SciTegic.value.DoubleValue
152.876

@<SCITEGIC>MOL_PROPERTY
Coulomb
SciTegic.value.DoubleValue
150.041

@<SCITEGIC>MOL_PROPERTY
VdW
SciTegic.value.DoubleValue
-25.950

@<SCITEGIC>MOL_PROPERTY
VdW6
SciTegic.value.DoubleValue
-177.157

@<SCITEGIC>MOL_PROPERTY
VdW12
SciTegic.value.DoubleValue
151.207

@<SCITEGIC>MOL_PROPERTY
Bond
SciTegic.value.DoubleValue
4.861

@<SCITEGIC>MOL_PROPERTY
Angle
SciTegic.value.DoubleValue
15.376

@<SCITEGIC>MOL_PROPERTY
Pdih
SciTegic.value.DoubleValue
132.638

@<SCITEGIC>MOL_PROPERTY
Idih
SciTegic.value.DoubleValue
0.001

@<SCITEGIC>MOL_PROPERTY
Tether
SciTegic.value.DoubleValue
0.000

@<TRIPOS>MOLECULE
CD_guest-6_fast_vm2_rndm.mol2 : feprocess host+ligand conformer 82
         139         144           2
SMALL
USER_CHARGES
 
@<TRIPOS>ATOM
       1    C1      16.185445   15.446692   20.409116 C.3        1 MOL1         0.2972
       2    H1      15.259739   15.301844   19.837790 H          1 MOL1         0.0751
       3    O1      15.988447   16.380104   21.482286 O.3        1 MOL1        -0.3740
       4    C2      16.632010   14.102804   21.041405 C.3        1 MOL1         0.1003
       5    H2      16.703297   13.369975   20.227191 H          1 MOL1         0.0783
       6    O2      15.654551   13.658758   21.994679 O.3        1 MOL1        -0.5519
       7    H3      15.460448   14.443920   22.558110 H          1 MOL1         0.3769
       8    C3      18.024790   14.197413   21.718771 C.3        1 MOL1         0.1053
       9    H4      17.936304   14.811806   22.626955 H          1 MOL1         0.0783
      10    O3      18.439664   12.868400   22.053274 O.3        1 MOL1        -0.5519
      11    H5      17.695413   12.485862   22.566965 H          1 MOL1         0.3769
      12    C4      19.058039   14.874248   20.780607 C.3        1 MOL1         0.1018
      13    H6      19.255652   14.204805   19.933066 H          1 MOL1         0.0783
      14    C5      18.502574   16.213960   20.231954 C.3        1 MOL1         0.1043
      15    H7      18.333665   16.900749   21.071773 H          1 MOL1         0.0783
      16    O4      17.249310   15.938822   19.562770 O.3        1 MOL1        -0.3740
      17    C6      19.439833   16.929695   19.228250 C.3        1 MOL1         0.0138
      18    H8      20.181057   17.505049   19.796257 H          1 MOL1         0.0794
      19    H9      18.849837   17.654982   18.652589 H          1 MOL1         0.0794
      20    O5      20.103194   16.018689   18.342224 O.3        1 MOL1        -0.5486
      21    H10     20.642064   15.410012   18.895855 H          1 MOL1         0.3769
      22    C7      14.512454   20.233445   21.725603 C.3        1 MOL1         0.2972
      23    H11     13.908279   21.148736   21.764880 H          1 MOL1         0.0751
      24    O6      15.918787   20.517471   21.847786 O.3        1 MOL1        -0.3740
      25    C8      14.087630   19.291943   22.871467 C.3        1 MOL1         0.1003
      26    H12     13.025049   19.057238   22.726821 H          1 MOL1         0.0783
      27    O7      14.260620   19.943955   24.140206 O.3        1 MOL1        -0.5519
      28    H13     15.039577   20.547063   24.047515 H          1 MOL1         0.3769
      29    C9      14.876079   17.964585   22.825504 C.3        1 MOL1         0.1053
      30    H14     15.916142   18.182311   23.107818 H          1 MOL1         0.0783
      31    O8      14.294863   17.058097   23.770977 O.3        1 MOL1        -0.5519
      32    H15     14.281582   17.551379   24.620056 H          1 MOL1         0.3769
      33    C10     14.888913   17.316803   21.412804 C.3        1 MOL1         0.1018
      34    H16     13.937674   16.789835   21.265820 H          1 MOL1         0.0783
      35    C11     15.104811   18.356125   20.260522 C.3        1 MOL1         0.1043
      36    H17     16.167100   18.632647   20.251604 H          1 MOL1         0.0783
      37    O9      14.300388   19.543214   20.483574 O.3        1 MOL1        -0.3740
      38    C12     14.725872   17.863196   18.838610 C.3        1 MOL1         0.0138
      39    H18     15.525205   17.229442   18.439935 H          1 MOL1         0.0794
      40    H19     14.665836   18.736992   18.175645 H          1 MOL1         0.0794
      41    O10     13.482490   17.151406   18.822256 O.3        1 MOL1        -0.5486
      42    H20     13.261506   16.958454   17.884979 H          1 MOL1         0.3769
      43    C13     18.498243   23.803845   21.372501 C.3        1 MOL1         0.2972
      44    H21     18.843579   24.828104   21.182721 H          1 MOL1         0.0751
      45    O11     19.605765   22.907545   21.578860 O.3        1 MOL1        -0.3740
      46    C14     17.622210   23.787779   22.651649 C.3        1 MOL1         0.1003
      47    H22     16.807194   24.507121   22.499069 H          1 MOL1         0.0783
      48    O12     18.399064   24.189762   23.791004 O.3        1 MOL1        -0.5519
      49    H23     19.332592   23.923185   23.604483 H          1 MOL1         0.3769
      50    C15     16.986800   22.397236   22.891248 C.3        1 MOL1         0.1053
      51    H24     17.783456   21.689941   23.152490 H          1 MOL1         0.0783
      52    O13     16.040642   22.483832   23.962475 O.3        1 MOL1        -0.5519
      53    H25     16.513137   22.961187   24.680158 H          1 MOL1         0.3769
      54    C16     16.290620   21.887870   21.608917 C.3        1 MOL1         0.1018
      55    H26     15.418334   22.525315   21.412895 H          1 MOL1         0.0783
      56    C17     17.244778   21.950673   20.386849 C.3        1 MOL1         0.1043
      57    H27     18.090603   21.276243   20.575703 H          1 MOL1         0.0783
      58    O14     17.726756   23.311844   20.254339 O.3        1 MOL1        -0.3740
      59    C18     16.610440   21.524513   19.037643 C.3        1 MOL1         0.0138
      60    H28     16.692421   20.434697   18.942381 H          1 MOL1         0.0794
      61    H29     17.200516   21.960180   18.220492 H          1 MOL1         0.0794
      62    O15     15.238697   21.914461   18.910556 O.3        1 MOL1        -0.5486
      63    H30     14.705712   21.235920   19.386238 H          1 MOL1         0.3769
      64    C19     23.655068   22.515424   20.589222 C.3        1 MOL1         0.2972
      65    H31     24.667744   22.674038   20.196899 H          1 MOL1         0.0751
      66    O16     23.484023   21.169542   21.073002 O.3        1 MOL1        -0.3740
      67    C20     23.322377   23.530391   21.719660 C.3        1 MOL1         0.1003
      68    H32     23.383944   24.532606   21.275949 H          1 MOL1         0.0783
      69    O17     24.254103   23.453639   22.808852 O.3        1 MOL1        -0.5519
      70    H33     24.165918   22.549111   23.203176 H          1 MOL1         0.3769
      71    C21     21.873745   23.329168   22.228731 C.3        1 MOL1         0.1053
      72    H34     21.813221   22.348699   22.720684 H          1 MOL1         0.0783
      73    O18     21.543094   24.363711   23.162070 O.3        1 MOL1        -0.5519
      74    H35     22.313369   24.419581   23.769532 H          1 MOL1         0.3769
      75    C22     20.870706   23.350158   21.049524 C.3        1 MOL1         0.1018
      76    H36     20.819897   24.377813   20.666505 H          1 MOL1         0.0783
      77    C23     21.307694   22.400496   19.898495 C.3        1 MOL1         0.1043
      78    H37     21.243945   21.366443   20.260380 H          1 MOL1         0.0783
      79    O19     22.680111   22.706082   19.539862 O.3        1 MOL1        -0.3740
      80    C24     20.443052   22.475007   18.614652 C.3        1 MOL1         0.0138
      81    H38     19.593470   21.790889   18.728979 H          1 MOL1         0.0794
      82    H39     21.039097   22.101470   17.771367 H          1 MOL1         0.0794
      83    O20     19.962734   23.793413   18.330188 O.3        1 MOL1        -0.5486
      84    H40     19.144366   23.914705   18.865146 H          1 MOL1         0.3769
      85    C25     25.218479   17.675905   22.228039 C.3        1 MOL1         0.2972
      86    H41     25.820313   16.816628   22.550820 H          1 MOL1         0.0751
      87    O21     23.930744   17.273664   21.717739 O.3        1 MOL1        -0.3740
      88    C26     25.017398   18.676140   23.394725 C.3        1 MOL1         0.1003
      89    H42     26.004912   19.083389   23.648374 H          1 MOL1         0.0783
      90    O22     24.462166   18.046381   24.559162 O.3        1 MOL1        -0.5519
      91    H43     24.175536   17.138408   24.295291 H          1 MOL1         0.3769
      92    C27     24.122103   19.851364   22.945580 C.3        1 MOL1         0.1053
      93    H44     23.116711   19.455870   22.755102 H          1 MOL1         0.0783
      94    O23     24.062495   20.822673   23.994515 O.3        1 MOL1        -0.5519
      95    H45     23.877238   20.297465   24.805245 H          1 MOL1         0.3769
      96    C28     24.631657   20.506092   21.636025 C.3        1 MOL1         0.1018
      97    H46     25.438593   21.208155   21.883435 H          1 MOL1         0.0783
      98    C29     25.121052   19.478610   20.570059 C.3        1 MOL1         0.1043
      99    H47     24.232683   19.047341   20.090605 H          1 MOL1         0.0783
     100    O24     25.888470   18.406107   21.179768 O.3        1 MOL1        -0.3740
     101    C30     25.971871   20.113648   19.444462 C.3        1 MOL1         0.0138
     102    H48     25.314524   20.729486   18.816015 H          1 MOL1         0.0794
     103    H49     26.368852   19.309632   18.810258 H          1 MOL1         0.0794
     104    O25     27.041826   20.915044   19.960373 O.3        1 MOL1        -0.5486
     105    H50     27.582599   21.217300   19.198062 H          1 MOL1         0.3769
     106    C31     21.271966   14.115668   21.449354 C.3        1 MOL1         0.2972
     107    H51     20.808968   13.128531   21.328727 H          1 MOL1         0.0751
     108    O26     20.270300   15.150384   21.516362 O.3        1 MOL1        -0.3740
     109    C32     22.134395   14.121136   22.739027 C.3        1 MOL1         0.1003
     110    H52     22.855879   13.299959   22.639862 H          1 MOL1         0.0783
     111    O27     21.330088   13.899158   23.907700 O.3        1 MOL1        -0.5519
     112    H53     20.737079   14.695808   24.006089 H          1 MOL1         0.3769
     113    C33     22.930628   15.432946   22.907235 C.3        1 MOL1         0.1053
     114    H54     22.213910   16.217233   23.164463 H          1 MOL1         0.0783
     115    O28     23.870682   15.269612   23.972849 O.3        1 MOL1        -0.5519
     116    H55     23.365903   14.818530   24.687621 H          1 MOL1         0.3769
     117    C34     23.659187   15.863443   21.610762 C.3        1 MOL1         0.1018
     118    H56     24.576477   15.273607   21.488782 H          1 MOL1         0.0783
     119    C35     22.768868   15.710032   20.349684 C.3        1 MOL1         0.1043
     120    H57     21.998296   16.487169   20.400220 H          1 MOL1         0.0783
     121    O29     22.129947   14.409301   20.324249 O.3        1 MOL1        -0.3740
     122    C36     23.535245   15.918878   19.019256 C.3        1 MOL1         0.0138
     123    H58     23.768530   16.986623   18.913289 H          1 MOL1         0.0794
     124    H59     22.872364   15.650517   18.186176 H          1 MOL1         0.0794
     125    O30     24.742946   15.151597   18.949134 O.3        1 MOL1        -0.5486
     126    H60     25.410914   15.599470   19.511335 H          1 MOL1         0.3769
     127    C1      19.526478   17.296104   23.764591 C.2        1 MOL1         0.6021
     128    O1      19.997081   16.366023   24.394249 O.co2      1 MOL1        -0.6904
     129    O2      18.338199   17.428942   23.549987 O.co2      1 MOL1        -0.6904
     130    C2      20.510155   18.261625   23.097264 C.3        1 MOL1        -0.2102
     131    H1      20.713285   17.866944   22.097234 H          1 MOL1         0.0687
     132    H2      21.451452   18.219920   23.655865 H          1 MOL1         0.0687
     133    C3      20.053970   19.738664   22.982332 C.3        1 MOL1        -0.1974
     134    H3      20.721818   20.261425   22.287038 H          1 MOL1         0.0689
     135    H4      19.045626   19.786128   22.549275 H          1 MOL1         0.0689
     136    C4      20.086694   20.464521   24.342844 C.3        1 MOL1        -0.2987
     137    H5      21.088996   20.417685   24.787653 H          1 MOL1         0.0700
     138    H6      19.821152   21.522417   24.227418 H          1 MOL1         0.0700
     139    H7      19.376568   20.007980   25.044669 H          1 MOL1         0.0700
@<TRIPOS>BOND
    1     1     2    1
    2     1     3    1
    3     1     4    1
    4     4     5    1
    5     4     6    1
    6     6     7    1
    7     4     8    1
    8     8     9    1
    9     8    10    1
   10    10    11    1
   11     8    12    1
   12    12    13    1
   13    12    14    1
   14    14    15    1
   15     1    16    1
   16    14    16    1
   17    14    17    1
   18    17    18    1
   19    17    19    1
   20    17    20    1
   21    20    21    1
   22    22    23    1
   23    22    24    1
   24    22    25    1
   25    25    26    1
   26    25    27    1
   27    27    28    1
   28    25    29    1
   29    29    30    1
   30    29    31    1
   31    31    32    1
   32     3    33    1
   33    29    33    1
   34    33    34    1
   35    33    35    1
   36    35    36    1
   37    22    37    1
   38    35    37    1
   39    35    38    1
   40    38    39    1
   41    38    40    1
   42    38    41    1
   43    41    42    1
   44    43    44    1
   45    43    45    1
   46    43    46    1
   47    46    47    1
   48    46    48    1
   49    48    49    1
   50    46    50    1
   51    50    51    1
   52    50    52    1
   53    52    53    1
   54    24    54    1
   55    50    54    1
   56    54    55    1
   57    54    56    1
   58    56    57    1
   59    43    58    1
   60    56    58    1
   61    56    59    1
   62    59    60    1
   63    59    61    1
   64    59    62    1
   65    62    63    1
   66    64    65    1
   67    64    66    1
   68    64    67    1
   69    67    68    1
   70    67    69    1
   71    69    70    1
   72    67    71    1
   73    71    72    1
   74    71    73    1
   75    73    74    1
   76    45    75    1
   77    71    75    1
   78    75    76    1
   79    75    77    1
   80    77    78    1
   81    64    79    1
   82    77    79    1
   83    77    80    1
   84    80    81    1
   85    80    82    1
   86    80    83    1
   87    83    84    1
   88    85    86    1
   89    85    87    1
   90    85    88    1
   91    88    89    1
   92    88    90    1
   93    90    91    1
   94    88    92    1
   95    92    93    1
   96    92    94    1
   97    94    95    1
   98    66    96    1
   99    92    96    1
  100    96    97    1
  101    96    98    1
  102    98    99    1
  103    85   100    1
  104    98   100    1
  105    98   101    1
  106   101   102    1
  107   101   103    1
  108   101   104    1
  109   104   105    1
  110   106   107    1
  111    12   108    1
  112   106   108    1
  113   106   109    1
  114   109   110    1
  115   109   111    1
  116   111   112    1
  117   109   113    1
  118   113   114    1
  119   113   115    1
  120   115   116    1
  121    87   117    1
  122   113   117    1
  123   117   118    1
  124   117   119    1
  125   119   120    1
  126   106   121    1
  127   119   121    1
  128   119   122    1
  129   122   123    1
  130   122   124    1
  131   122   125    1
  132   125   126    1
  133   127   128    1
  134   127   129    2
  135   127   130    1
  136   130   131    1
  137   130   132    1
  138   130   133    1
  139   133   134    1
  140   133   135    1
  141   133   136    1
  142   136   137    1
  143   136   138    1
  144   136   139    1
@<TRIPOS>SUBSTRUCTURE
       1 MOL1            1 RESIDUE      1      MOL     
       2 MOL1          139 RESIDUE      1      MOL     
@<SCITEGIC>MOL_PROPERTY
feprocess Rank
SciTegic.value.IntegerValue
82

@<SCITEGIC>MOL_PROPERTY
Conf_Id
SciTegic.value.IntegerValue
824

@<SCITEGIC>MOL_PROPERTY
Probability
SciTegic.value.DoubleValue
0.00

@<SCITEGIC>MOL_PROPERTY
G
SciTegic.value.DoubleValue
495.265

@<SCITEGIC>MOL_PROPERTY
E
SciTegic.value.DoubleValue
320.374

@<SCITEGIC>MOL_PROPERTY
-TS
SciTegic.value.DoubleValue
174.891

@<SCITEGIC>MOL_PROPERTY
U+W
SciTegic.value.DoubleValue
197.863

@<SCITEGIC>MOL_PROPERTY
U
SciTegic.value.DoubleValue
277.275

@<SCITEGIC>MOL_PROPERTY
W
SciTegic.value.DoubleValue
-79.412

@<SCITEGIC>MOL_PROPERTY
W(PB)
SciTegic.value.DoubleValue
-85.353

@<SCITEGIC>MOL_PROPERTY
W(SA)
SciTegic.value.DoubleValue
5.941

@<SCITEGIC>MOL_PROPERTY
Valence
SciTegic.value.DoubleValue
152.745

@<SCITEGIC>MOL_PROPERTY
Coulomb
SciTegic.value.DoubleValue
147.762

@<SCITEGIC>MOL_PROPERTY
VdW
SciTegic.value.DoubleValue
-23.232

@<SCITEGIC>MOL_PROPERTY
VdW6
SciTegic.value.DoubleValue
-173.100

@<SCITEGIC>MOL_PROPERTY
VdW12
SciTegic.value.DoubleValue
149.868

@<SCITEGIC>MOL_PROPERTY
Bond
SciTegic.value.DoubleValue
4.817

@<SCITEGIC>MOL_PROPERTY
Angle
SciTegic.value.DoubleValue
15.716

@<SCITEGIC>MOL_PROPERTY
Pdih
SciTegic.value.DoubleValue
132.185

@<SCITEGIC>MOL_PROPERTY
Idih
SciTegic.value.DoubleValue
0.026

@<SCITEGIC>MOL_PROPERTY
Tether
SciTegic.value.DoubleValue
0.000

@<TRIPOS>MOLECULE
CD_guest-6_fast_vm2_rndm.mol2 : feprocess host+ligand conformer 83
         139         144           2
SMALL
USER_CHARGES
 
@<TRIPOS>ATOM
       1    C1      16.213992   15.196010   21.671945 C.3        1 MOL1         0.2972
       2    H1      15.140498   15.052176   21.851063 H          1 MOL1         0.0751
       3    O1      16.549086   16.588174   21.533566 O.3        1 MOL1        -0.3740
       4    C2      17.030055   14.621059   22.853064 C.3        1 MOL1         0.1003
       5    H2      16.833256   13.541887   22.896247 H          1 MOL1         0.0783
       6    O2      16.628359   15.225801   24.092991 O.3        1 MOL1        -0.5519
       7    H3      16.090768   16.023355   23.862276 H          1 MOL1         0.3769
       8    C3      18.544285   14.823896   22.618343 C.3        1 MOL1         0.1053
       9    H4      18.753443   15.900686   22.657265 H          1 MOL1         0.0783
      10    O3      19.265765   14.161075   23.660591 O.3        1 MOL1        -0.5519
      11    H5      18.806910   14.429199   24.488587 H          1 MOL1         0.3769
      12    C4      18.982457   14.287013   21.229783 C.3        1 MOL1         0.1018
      13    H6      19.049037   13.192206   21.282912 H          1 MOL1         0.0783
      14    C5      18.016812   14.708992   20.082784 C.3        1 MOL1         0.1043
      15    H7      18.185432   15.773394   19.879399 H          1 MOL1         0.0783
      16    O4      16.629768   14.518082   20.467922 O.3        1 MOL1        -0.3740
      17    C6      18.266388   13.953254   18.756067 C.3        1 MOL1         0.0138
      18    H8      19.218986   14.299461   18.332420 H          1 MOL1         0.0794
      19    H9      17.475520   14.224274   18.043676 H          1 MOL1         0.0794
      20    O5      18.304936   12.532973   18.942849 O.3        1 MOL1        -0.5486
      21    H10     18.385678   12.117843   18.056425 H          1 MOL1         0.3769
      22    C7      14.673595   20.303344   21.187193 C.3        1 MOL1         0.2972
      23    H11     13.953708   21.105025   20.979332 H          1 MOL1         0.0751
      24    O6      15.928783   20.827498   21.657543 O.3        1 MOL1        -0.3740
      25    C8      14.131775   19.384661   22.311391 C.3        1 MOL1         0.1003
      26    H12     13.173497   18.970352   21.972161 H          1 MOL1         0.0783
      27    O7      13.927049   20.143962   23.513788 O.3        1 MOL1        -0.5519
      28    H13     14.659685   20.806713   23.554369 H          1 MOL1         0.3769
      29    C9      15.100685   18.206244   22.578755 C.3        1 MOL1         0.1053
      30    H14     16.028446   18.613146   23.004146 H          1 MOL1         0.0783
      31    O8      14.501636   17.294810   23.505688 O.3        1 MOL1        -0.5519
      32    H15     14.119156   17.863849   24.210905 H          1 MOL1         0.3769
      33    C10     15.454540   17.477773   21.259794 C.3        1 MOL1         0.1018
      34    H16     14.568675   16.939100   20.898167 H          1 MOL1         0.0783
      35    C11     15.922339   18.472180   20.164597 C.3        1 MOL1         0.1043
      36    H17     16.859930   18.933197   20.497175 H          1 MOL1         0.0783
      37    O9      14.911505   19.501273   20.007661 O.3        1 MOL1        -0.3740
      38    C12     16.212054   17.819132   18.787909 C.3        1 MOL1         0.0138
      39    H18     17.269937   17.525914   18.765247 H          1 MOL1         0.0794
      40    H19     16.080267   18.576536   18.004240 H          1 MOL1         0.0794
      41    O10     15.388783   16.676357   18.517273 O.3        1 MOL1        -0.5486
      42    H20     15.676495   15.960403   19.129461 H          1 MOL1         0.3769
      43    C13     18.435860   24.150176   21.275999 C.3        1 MOL1         0.2972
      44    H21     18.820329   25.161004   21.089349 H          1 MOL1         0.0751
      45    O11     19.490823   23.248302   21.660594 O.3        1 MOL1        -0.3740
      46    C14     17.409493   24.192177   22.433902 C.3        1 MOL1         0.1003
      47    H22     16.607465   24.882794   22.142664 H          1 MOL1         0.0783
      48    O12     18.037683   24.669600   23.634473 O.3        1 MOL1        -0.5519
      49    H23     18.983392   24.386390   23.587259 H          1 MOL1         0.3769
      50    C15     16.780375   22.798846   22.668821 C.3        1 MOL1         0.1053
      51    H24     17.564241   22.129105   23.049627 H          1 MOL1         0.0783
      52    O13     15.724472   22.907953   23.630843 O.3        1 MOL1        -0.5519
      53    H25     16.103724   23.438686   24.366030 H          1 MOL1         0.3769
      54    C16     16.233297   22.200132   21.350189 C.3        1 MOL1         0.1018
      55    H26     15.337817   22.763866   21.057932 H          1 MOL1         0.0783
      56    C17     17.295816   22.262640   20.213646 C.3        1 MOL1         0.1043
      57    H27     18.126886   21.599891   20.487082 H          1 MOL1         0.0783
      58    O14     17.785564   23.624356   20.099380 O.3        1 MOL1        -0.3740
      59    C18     16.802267   21.815747   18.814609 C.3        1 MOL1         0.0138
      60    H28     16.917201   20.727892   18.737103 H          1 MOL1         0.0794
      61    H29     17.463000   22.253510   18.054912 H          1 MOL1         0.0794
      62    O15     15.441814   22.178150   18.552736 O.3        1 MOL1        -0.5486
      63    H30     14.894013   21.417174   18.848877 H          1 MOL1         0.3769
      64    C19     23.610349   22.685342   21.181231 C.3        1 MOL1         0.2972
      65    H31     24.667523   22.804224   20.911416 H          1 MOL1         0.0751
      66    O16     23.348530   21.394200   21.757993 O.3        1 MOL1        -0.3740
      67    C20     23.190404   23.739903   22.236482 C.3        1 MOL1         0.1003
      68    H32     23.389034   24.732219   21.811377 H          1 MOL1         0.0783
      69    O17     23.953945   23.572333   23.443064 O.3        1 MOL1        -0.5519
      70    H33     23.951151   22.604228   23.651055 H          1 MOL1         0.3769
      71    C21     21.675199   23.642003   22.549034 C.3        1 MOL1         0.1053
      72    H34     21.500560   22.701215   23.087579 H          1 MOL1         0.0783
      73    O18     21.283969   24.746233   23.372916 O.3        1 MOL1        -0.5519
      74    H35     21.960890   24.789426   24.084083 H          1 MOL1         0.3769
      75    C22     20.822331   23.621120   21.255362 C.3        1 MOL1         0.1018
      76    H36     20.851421   24.623249   20.808057 H          1 MOL1         0.0783
      77    C23     21.360369   22.586333   20.226770 C.3        1 MOL1         0.1043
      78    H37     21.231491   21.580215   20.641338 H          1 MOL1         0.0783
      79    O19     22.769507   22.847888   20.018605 O.3        1 MOL1        -0.3740
      80    C24     20.658690   22.586886   18.845776 C.3        1 MOL1         0.0138
      81    H38     19.794488   21.913413   18.896533 H          1 MOL1         0.0794
      82    H39     21.346117   22.152840   18.107782 H          1 MOL1         0.0794
      83    O20     20.235729   23.889907   18.425677 O.3        1 MOL1        -0.5486
      84    H40     19.363479   24.048739   18.854966 H          1 MOL1         0.3769
      85    C25     25.007544   17.595683   22.009912 C.3        1 MOL1         0.2972
      86    H41     25.690411   16.740195   22.092143 H          1 MOL1         0.0751
      87    O21     23.642489   17.158248   21.863043 O.3        1 MOL1        -0.3740
      88    C26     25.104286   18.459155   23.291692 C.3        1 MOL1         0.1003
      89    H42     26.144189   18.797657   23.386966 H          1 MOL1         0.0783
      90    O22     24.750421   17.676578   24.442277 O.3        1 MOL1        -0.5519
      91    H43     24.092710   17.011818   24.129814 H          1 MOL1         0.3769
      92    C27     24.201204   19.709963   23.189850 C.3        1 MOL1         0.1053
      93    H44     23.154817   19.375449   23.185095 H          1 MOL1         0.0783
      94    O23     24.436693   20.566642   24.314355 O.3        1 MOL1        -0.5519
      95    H45     24.397578   19.974685   25.097747 H          1 MOL1         0.3769
      96    C28     24.460489   20.489755   21.880527 C.3        1 MOL1         0.1018
      97    H46     25.415470   21.023755   21.972363 H          1 MOL1         0.0783
      98    C29     24.479259   19.554934   20.638425 C.3        1 MOL1         0.1043
      99    H47     23.455207   19.198200   20.484796 H          1 MOL1         0.0783
     100    O24     25.350840   18.417518   20.874872 O.3        1 MOL1        -0.3740
     101    C30     24.933703   20.243266   19.329449 C.3        1 MOL1         0.0138
     102    H48     24.129214   20.906649   18.986278 H          1 MOL1         0.0794
     103    H49     25.065309   19.474256   18.556742 H          1 MOL1         0.0794
     104    O25     26.146912   20.987081   19.503065 O.3        1 MOL1        -0.5486
     105    H50     26.405560   21.342242   18.625018 H          1 MOL1         0.3769
     106    C31     21.305544   14.027197   20.452914 C.3        1 MOL1         0.2972
     107    H51     20.898724   13.125619   19.977026 H          1 MOL1         0.0751
     108    O26     20.257113   14.892504   20.936634 O.3        1 MOL1        -0.3740
     109    C32     22.250358   13.667038   21.628710 C.3        1 MOL1         0.1003
     110    H52     23.097020   13.111579   21.204641 H          1 MOL1         0.0783
     111    O27     21.600211   12.841205   22.606079 O.3        1 MOL1        -0.5519
     112    H53     20.816349   13.346132   22.940653 H          1 MOL1         0.3769
     113    C33     22.807110   14.956584   22.279741 C.3        1 MOL1         0.1053
     114    H54     21.969772   15.499695   22.740084 H          1 MOL1         0.0783
     115    O28     23.768602   14.608803   23.281815 O.3        1 MOL1        -0.5519
     116    H55     23.356428   13.876346   23.791433 H          1 MOL1         0.3769
     117    C34     23.461251   15.880347   21.220109 C.3        1 MOL1         0.1018
     118    H56     24.417913   15.430889   20.923819 H          1 MOL1         0.0783
     119    C35     22.571734   16.067958   19.952758 C.3        1 MOL1         0.1043
     120    H57     21.711667   16.690829   20.219517 H          1 MOL1         0.0783
     121    O29     22.095049   14.774099   19.502114 O.3        1 MOL1        -0.3740
     122    C36     23.267591   16.764142   18.753773 C.3        1 MOL1         0.0138
     123    H58     23.095782   17.844248   18.828373 H          1 MOL1         0.0794
     124    H59     22.774757   16.437336   17.828656 H          1 MOL1         0.0794
     125    O30     24.674466   16.501510   18.679290 O.3        1 MOL1        -0.5486
     126    H60     25.103641   17.064008   19.365948 H          1 MOL1         0.3769
     127    C1      19.983438   19.099175   20.081171 C.2        1 MOL1         0.6021
     128    O1      19.047155   19.485339   19.407626 O.co2      1 MOL1        -0.6904
     129    O2      21.145161   19.213506   19.744004 O.co2      1 MOL1        -0.6904
     130    C2      19.670269   18.331368   21.364970 C.3        1 MOL1        -0.2102
     131    H1      20.575112   17.821192   21.712824 H          1 MOL1         0.0687
     132    H2      18.954419   17.554837   21.087407 H          1 MOL1         0.0687
     133    C3      19.076916   19.186408   22.512643 C.3        1 MOL1        -0.1974
     134    H3      18.325806   19.874024   22.108402 H          1 MOL1         0.0689
     135    H4      18.556002   18.529133   23.221517 H          1 MOL1         0.0689
     136    C4      20.157585   19.980406   23.270378 C.3        1 MOL1        -0.2987
     137    H5      20.744296   20.593631   22.578688 H          1 MOL1         0.0700
     138    H6      19.702280   20.644191   24.016190 H          1 MOL1         0.0700
     139    H7      20.845611   19.302358   23.790690 H          1 MOL1         0.0700
@<TRIPOS>BOND
    1     1     2    1
    2     1     3    1
    3     1     4    1
    4     4     5    1
    5     4     6    1
    6     6     7    1
    7     4     8    1
    8     8     9    1
    9     8    10    1
   10    10    11    1
   11     8    12    1
   12    12    13    1
   13    12    14    1
   14    14    15    1
   15     1    16    1
   16    14    16    1
   17    14    17    1
   18    17    18    1
   19    17    19    1
   20    17    20    1
   21    20    21    1
   22    22    23    1
   23    22    24    1
   24    22    25    1
   25    25    26    1
   26    25    27    1
   27    27    28    1
   28    25    29    1
   29    29    30    1
   30    29    31    1
   31    31    32    1
   32     3    33    1
   33    29    33    1
   34    33    34    1
   35    33    35    1
   36    35    36    1
   37    22    37    1
   38    35    37    1
   39    35    38    1
   40    38    39    1
   41    38    40    1
   42    38    41    1
   43    41    42    1
   44    43    44    1
   45    43    45    1
   46    43    46    1
   47    46    47    1
   48    46    48    1
   49    48    49    1
   50    46    50    1
   51    50    51    1
   52    50    52    1
   53    52    53    1
   54    24    54    1
   55    50    54    1
   56    54    55    1
   57    54    56    1
   58    56    57    1
   59    43    58    1
   60    56    58    1
   61    56    59    1
   62    59    60    1
   63    59    61    1
   64    59    62    1
   65    62    63    1
   66    64    65    1
   67    64    66    1
   68    64    67    1
   69    67    68    1
   70    67    69    1
   71    69    70    1
   72    67    71    1
   73    71    72    1
   74    71    73    1
   75    73    74    1
   76    45    75    1
   77    71    75    1
   78    75    76    1
   79    75    77    1
   80    77    78    1
   81    64    79    1
   82    77    79    1
   83    77    80    1
   84    80    81    1
   85    80    82    1
   86    80    83    1
   87    83    84    1
   88    85    86    1
   89    85    87    1
   90    85    88    1
   91    88    89    1
   92    88    90    1
   93    90    91    1
   94    88    92    1
   95    92    93    1
   96    92    94    1
   97    94    95    1
   98    66    96    1
   99    92    96    1
  100    96    97    1
  101    96    98    1
  102    98    99    1
  103    85   100    1
  104    98   100    1
  105    98   101    1
  106   101   102    1
  107   101   103    1
  108   101   104    1
  109   104   105    1
  110   106   107    1
  111    12   108    1
  112   106   108    1
  113   106   109    1
  114   109   110    1
  115   109   111    1
  116   111   112    1
  117   109   113    1
  118   113   114    1
  119   113   115    1
  120   115   116    1
  121    87   117    1
  122   113   117    1
  123   117   118    1
  124   117   119    1
  125   119   120    1
  126   106   121    1
  127   119   121    1
  128   119   122    1
  129   122   123    1
  130   122   124    1
  131   122   125    1
  132   125   126    1
  133   127   128    1
  134   127   129    2
  135   127   130    1
  136   130   131    1
  137   130   132    1
  138   130   133    1
  139   133   134    1
  140   133   135    1
  141   133   136    1
  142   136   137    1
  143   136   138    1
  144   136   139    1
@<TRIPOS>SUBSTRUCTURE
       1 MOL1            1 RESIDUE      1      MOL     
       2 MOL1          139 RESIDUE      1      MOL     
@<SCITEGIC>MOL_PROPERTY
feprocess Rank
SciTegic.value.IntegerValue
83

@<SCITEGIC>MOL_PROPERTY
Conf_Id
SciTegic.value.IntegerValue
415

@<SCITEGIC>MOL_PROPERTY
Probability
SciTegic.value.DoubleValue
0.00

@<SCITEGIC>MOL_PROPERTY
G
SciTegic.value.DoubleValue
495.385

@<SCITEGIC>MOL_PROPERTY
E
SciTegic.value.DoubleValue
319.162

@<SCITEGIC>MOL_PROPERTY
-TS
SciTegic.value.DoubleValue
176.223

@<SCITEGIC>MOL_PROPERTY
U+W
SciTegic.value.DoubleValue
196.650

@<SCITEGIC>MOL_PROPERTY
U
SciTegic.value.DoubleValue
266.034

@<SCITEGIC>MOL_PROPERTY
W
SciTegic.value.DoubleValue
-69.383

@<SCITEGIC>MOL_PROPERTY
W(PB)
SciTegic.value.DoubleValue
-75.263

@<SCITEGIC>MOL_PROPERTY
W(SA)
SciTegic.value.DoubleValue
5.880

@<SCITEGIC>MOL_PROPERTY
Valence
SciTegic.value.DoubleValue
154.611

@<SCITEGIC>MOL_PROPERTY
Coulomb
SciTegic.value.DoubleValue
137.997

@<SCITEGIC>MOL_PROPERTY
VdW
SciTegic.value.DoubleValue
-26.574

@<SCITEGIC>MOL_PROPERTY
VdW6
SciTegic.value.DoubleValue
-179.740

@<SCITEGIC>MOL_PROPERTY
VdW12
SciTegic.value.DoubleValue
153.166

@<SCITEGIC>MOL_PROPERTY
Bond
SciTegic.value.DoubleValue
4.604

@<SCITEGIC>MOL_PROPERTY
Angle
SciTegic.value.DoubleValue
13.701

@<SCITEGIC>MOL_PROPERTY
Pdih
SciTegic.value.DoubleValue
136.289

@<SCITEGIC>MOL_PROPERTY
Idih
SciTegic.value.DoubleValue
0.017

@<SCITEGIC>MOL_PROPERTY
Tether
SciTegic.value.DoubleValue
0.000

@<TRIPOS>MOLECULE
CD_guest-6_fast_vm2_rndm.mol2 : feprocess host+ligand conformer 84
         139         144           2
SMALL
USER_CHARGES
 
@<TRIPOS>ATOM
       1    C1      16.096793   15.008544   21.105773 C.3        1 MOL1         0.2972
       2    H1      15.050680   14.842015   20.818892 H          1 MOL1         0.0751
       3    O1      16.322428   16.367001   21.527925 O.3        1 MOL1        -0.3740
       4    C2      16.469352   14.092271   22.295432 C.3        1 MOL1         0.1003
       5    H2      16.334565   13.051905   21.972214 H          1 MOL1         0.0783
       6    O2      15.608917   14.363564   23.413381 O.3        1 MOL1        -0.5519
       7    H3      15.407383   15.331002   23.382478 H          1 MOL1         0.3769
       8    C3      17.951619   14.285993   22.696077 C.3        1 MOL1         0.1053
       9    H4      18.054991   15.290268   23.126624 H          1 MOL1         0.0783
      10    O3      18.314526   13.307589   23.675685 O.3        1 MOL1        -0.5519
      11    H5      17.588083   13.325769   24.337376 H          1 MOL1         0.3769
      12    C4      18.897295   14.187503   21.471796 C.3        1 MOL1         0.1018
      13    H6      18.990306   13.132023   21.184801 H          1 MOL1         0.0783
      14    C5      18.385718   15.012483   20.255887 C.3        1 MOL1         0.1043
      15    H7      18.481364   16.073066   20.511624 H          1 MOL1         0.0783
      16    O4      16.988525   14.706471   20.012303 O.3        1 MOL1        -0.3740
      17    C6      19.167031   14.802040   18.932890 C.3        1 MOL1         0.0138
      18    H8      19.968990   15.548500   18.881517 H          1 MOL1         0.0794
      19    H9      18.493397   15.014303   18.092259 H          1 MOL1         0.0794
      20    O5      19.716909   13.485745   18.799260 O.3        1 MOL1        -0.5486
      21    H10     20.506887   13.447828   19.388075 H          1 MOL1         0.3769
      22    C7      14.842558   20.248630   20.900929 C.3        1 MOL1         0.2972
      23    H11     14.192806   21.070669   20.574985 H          1 MOL1         0.0751
      24    O6      16.030528   20.744689   21.546538 O.3        1 MOL1        -0.3740
      25    C8      14.083756   19.366774   21.923779 C.3        1 MOL1         0.1003
      26    H12     13.155899   19.028134   21.444804 H          1 MOL1         0.0783
      27    O7      13.762992   20.134616   23.095067 O.3        1 MOL1        -0.5519
      28    H13     14.514341   20.762176   23.233189 H          1 MOL1         0.3769
      29    C9      14.906829   18.114477   22.308495 C.3        1 MOL1         0.1053
      30    H14     15.785594   18.444714   22.879389 H          1 MOL1         0.0783
      31    O8      14.102293   17.242847   23.111892 O.3        1 MOL1        -0.5519
      32    H15     13.693110   17.825149   23.789676 H          1 MOL1         0.3769
      33    C10     15.405328   17.366255   21.048940 C.3        1 MOL1         0.1018
      34    H16     14.540880   16.919318   20.540669 H          1 MOL1         0.0783
      35    C11     16.136890   18.339141   20.078898 C.3        1 MOL1         0.1043
      36    H17     17.034711   18.726174   20.581018 H          1 MOL1         0.0783
      37    O9      15.233933   19.433560   19.775460 O.3        1 MOL1        -0.3740
      38    C12     16.600844   17.723467   18.734183 C.3        1 MOL1         0.0138
      39    H18     17.609955   17.314757   18.866573 H          1 MOL1         0.0794
      40    H19     16.688679   18.528538   17.993171 H          1 MOL1         0.0794
      41    O10     15.720119   16.705350   18.245485 O.3        1 MOL1        -0.5486
      42    H20     15.972638   15.874010   18.709727 H          1 MOL1         0.3769
      43    C13     18.525473   24.134242   21.386424 C.3        1 MOL1         0.2972
      44    H21     18.894618   25.150628   21.198405 H          1 MOL1         0.0751
      45    O11     19.561144   23.282908   21.912383 O.3        1 MOL1        -0.3740
      46    C14     17.386413   24.160262   22.437734 C.3        1 MOL1         0.1003
      47    H22     16.606120   24.835644   22.063621 H          1 MOL1         0.0783
      48    O12     17.883232   24.651623   23.693708 O.3        1 MOL1        -0.5519
      49    H23     18.778440   24.250397   23.818221 H          1 MOL1         0.3769
      50    C15     16.756766   22.755323   22.624436 C.3        1 MOL1         0.1053
      51    H24     17.500118   22.109864   23.112249 H          1 MOL1         0.0783
      52    O13     15.590415   22.862329   23.449122 O.3        1 MOL1        -0.5519
      53    H25     15.868164   23.407166   24.218363 H          1 MOL1         0.3769
      54    C16     16.382991   22.114962   21.264322 C.3        1 MOL1         0.1018
      55    H26     15.538134   22.674982   20.842438 H          1 MOL1         0.0783
      56    C17     17.583491   22.170464   20.278703 C.3        1 MOL1         0.1043
      57    H27     18.398725   21.565864   20.692303 H          1 MOL1         0.0783
      58    O14     18.009110   23.549000   20.173536 O.3        1 MOL1        -0.3740
      59    C18     17.317038   21.646484   18.846740 C.3        1 MOL1         0.0138
      60    H28     17.479669   20.561614   18.841913 H          1 MOL1         0.0794
      61    H29     18.072541   22.075279   18.175315 H          1 MOL1         0.0794
      62    O15     16.000936   21.948269   18.368919 O.3        1 MOL1        -0.5486
      63    H30     15.438073   21.180153   18.617235 H          1 MOL1         0.3769
      64    C19     23.693892   22.817800   21.782571 C.3        1 MOL1         0.2972
      65    H31     24.779312   22.976575   21.743757 H          1 MOL1         0.0751
      66    O16     23.367722   21.417071   21.778882 O.3        1 MOL1        -0.3740
      67    C20     23.124311   23.435986   23.081355 C.3        1 MOL1         0.1003
      68    H32     23.352515   24.509691   23.067193 H          1 MOL1         0.0783
      69    O17     23.741904   22.831660   24.228834 O.3        1 MOL1        -0.5519
      70    H33     24.014268   21.923407   23.953457 H          1 MOL1         0.3769
      71    C21     21.588164   23.272492   23.143524 C.3        1 MOL1         0.1053
      72    H34     21.361826   22.203010   23.251194 H          1 MOL1         0.0783
      73    O18     21.077099   23.990488   24.273009 O.3        1 MOL1        -0.5519
      74    H35     21.657589   23.731922   25.022808 H          1 MOL1         0.3769
      75    C22     20.910869   23.783910   21.849074 C.3        1 MOL1         0.1018
      76    H36     20.937811   24.881404   21.859869 H          1 MOL1         0.0783
      77    C23     21.606918   23.244807   20.562788 C.3        1 MOL1         0.1043
      78    H37     21.383866   22.173863   20.482920 H          1 MOL1         0.0783
      79    O19     23.044140   23.436049   20.654125 O.3        1 MOL1        -0.3740
      80    C24     21.139716   23.912417   19.247340 C.3        1 MOL1         0.0138
      81    H38     20.154033   23.513970   18.979700 H          1 MOL1         0.0794
      82    H39     21.827225   23.617168   18.443458 H          1 MOL1         0.0794
      83    O20     21.086070   25.341086   19.353500 O.3        1 MOL1        -0.5486
      84    H40     20.814953   25.693497   18.478215 H          1 MOL1         0.3769
      85    C25     24.804132   17.694484   20.636185 C.3        1 MOL1         0.2972
      86    H41     25.359764   16.848066   20.212542 H          1 MOL1         0.0751
      87    O21     23.542821   17.280044   21.199920 O.3        1 MOL1        -0.3740
      88    C26     25.620556   18.402858   21.747923 C.3        1 MOL1         0.1003
      89    H42     26.535317   18.793790   21.283759 H          1 MOL1         0.0783
      90    O22     25.980799   17.492836   22.798396 O.3        1 MOL1        -0.5519
      91    H43     25.143385   17.071842   23.120760 H          1 MOL1         0.3769
      92    C27     24.821883   19.601622   22.316447 C.3        1 MOL1         0.1053
      93    H44     23.933767   19.209011   22.831388 H          1 MOL1         0.0783
      94    O23     25.635749   20.327549   23.244091 O.3        1 MOL1        -0.5519
      95    H45     26.059074   19.641228   23.806358 H          1 MOL1         0.3769
      96    C28     24.345355   20.544773   21.183065 C.3        1 MOL1         0.1018
      97    H46     25.216220   21.096169   20.805153 H          1 MOL1         0.0783
      98    C29     23.678088   19.773417   20.006457 C.3        1 MOL1         0.1043
      99    H47     22.724893   19.365082   20.354853 H          1 MOL1         0.0783
     100    O24     24.538833   18.677345   19.610800 O.3        1 MOL1        -0.3740
     101    C30     23.358639   20.626909   18.751772 C.3        1 MOL1         0.0138
     102    H48     22.343499   21.029895   18.853850 H          1 MOL1         0.0794
     103    H49     23.342714   19.965044   17.875800 H          1 MOL1         0.0794
     104    O25     24.285453   21.699528   18.542275 O.3        1 MOL1        -0.5486
     105    H50     24.041113   22.413026   19.176949 H          1 MOL1         0.3769
     106    C31     21.274700   13.852438   21.924037 C.3        1 MOL1         0.2972
     107    H51     20.952328   12.815964   22.087401 H          1 MOL1         0.0751
     108    O26     20.151614   14.749657   21.900495 O.3        1 MOL1        -0.3740
     109    C32     22.203276   14.299326   23.079438 C.3        1 MOL1         0.1003
     110    H52     23.066479   13.621281   23.094260 H          1 MOL1         0.0783
     111    O27     21.508415   14.213673   24.333203 O.3        1 MOL1        -0.5519
     112    H53     20.557774   14.379933   24.130569 H          1 MOL1         0.3769
     113    C33     22.725730   15.737087   22.848962 C.3        1 MOL1         0.1053
     114    H54     21.873601   16.428545   22.906280 H          1 MOL1         0.0783
     115    O28     23.682571   16.054397   23.865282 O.3        1 MOL1        -0.5519
     116    H55     23.257179   15.775372   24.706876 H          1 MOL1         0.3769
     117    C34     23.366941   15.872717   21.446938 C.3        1 MOL1         0.1018
     118    H56     24.322103   15.330862   21.439460 H          1 MOL1         0.0783
     119    C35     22.429659   15.322680   20.338275 C.3        1 MOL1         0.1043
     120    H57     21.560525   15.990989   20.282046 H          1 MOL1         0.0783
     121    O29     21.988036   13.980268   20.674949 O.3        1 MOL1        -0.3740
     122    C36     23.080596   15.286928   18.935227 C.3        1 MOL1         0.0138
     123    H58     23.191834   16.319976   18.578268 H          1 MOL1         0.0794
     124    H59     22.397473   14.776044   18.243618 H          1 MOL1         0.0794
     125    O30     24.357154   14.634820   18.949761 O.3        1 MOL1        -0.5486
     126    H60     24.676570   14.585709   18.022591 H          1 MOL1         0.3769
     127    C1      20.068880   19.121827   20.343481 C.2        1 MOL1         0.6021
     128    O1      19.909732   17.973781   19.977425 O.co2      1 MOL1        -0.6904
     129    O2      20.028964   20.076782   19.590762 O.co2      1 MOL1        -0.6904
     130    C2      20.468127   19.385612   21.797596 C.3        1 MOL1        -0.2102
     131    H1      20.969069   20.356901   21.822126 H          1 MOL1         0.0687
     132    H2      21.214218   18.640207   22.094530 H          1 MOL1         0.0687
     133    C3      19.299072   19.412383   22.813081 C.3        1 MOL1        -0.1974
     134    H3      19.616590   19.952680   23.714911 H          1 MOL1         0.0689
     135    H4      18.455026   19.969957   22.391164 H          1 MOL1         0.0689
     136    C4      18.845644   17.997758   23.215188 C.3        1 MOL1        -0.2987
     137    H5      19.658324   17.448669   23.707469 H          1 MOL1         0.0700
     138    H6      17.992618   18.039438   23.903777 H          1 MOL1         0.0700
     139    H7      18.545029   17.432021   22.328034 H          1 MOL1         0.0700
@<TRIPOS>BOND
    1     1     2    1
    2     1     3    1
    3     1     4    1
    4     4     5    1
    5     4     6    1
    6     6     7    1
    7     4     8    1
    8     8     9    1
    9     8    10    1
   10    10    11    1
   11     8    12    1
   12    12    13    1
   13    12    14    1
   14    14    15    1
   15     1    16    1
   16    14    16    1
   17    14    17    1
   18    17    18    1
   19    17    19    1
   20    17    20    1
   21    20    21    1
   22    22    23    1
   23    22    24    1
   24    22    25    1
   25    25    26    1
   26    25    27    1
   27    27    28    1
   28    25    29    1
   29    29    30    1
   30    29    31    1
   31    31    32    1
   32     3    33    1
   33    29    33    1
   34    33    34    1
   35    33    35    1
   36    35    36    1
   37    22    37    1
   38    35    37    1
   39    35    38    1
   40    38    39    1
   41    38    40    1
   42    38    41    1
   43    41    42    1
   44    43    44    1
   45    43    45    1
   46    43    46    1
   47    46    47    1
   48    46    48    1
   49    48    49    1
   50    46    50    1
   51    50    51    1
   52    50    52    1
   53    52    53    1
   54    24    54    1
   55    50    54    1
   56    54    55    1
   57    54    56    1
   58    56    57    1
   59    43    58    1
   60    56    58    1
   61    56    59    1
   62    59    60    1
   63    59    61    1
   64    59    62    1
   65    62    63    1
   66    64    65    1
   67    64    66    1
   68    64    67    1
   69    67    68    1
   70    67    69    1
   71    69    70    1
   72    67    71    1
   73    71    72    1
   74    71    73    1
   75    73    74    1
   76    45    75    1
   77    71    75    1
   78    75    76    1
   79    75    77    1
   80    77    78    1
   81    64    79    1
   82    77    79    1
   83    77    80    1
   84    80    81    1
   85    80    82    1
   86    80    83    1
   87    83    84    1
   88    85    86    1
   89    85    87    1
   90    85    88    1
   91    88    89    1
   92    88    90    1
   93    90    91    1
   94    88    92    1
   95    92    93    1
   96    92    94    1
   97    94    95    1
   98    66    96    1
   99    92    96    1
  100    96    97    1
  101    96    98    1
  102    98    99    1
  103    85   100    1
  104    98   100    1
  105    98   101    1
  106   101   102    1
  107   101   103    1
  108   101   104    1
  109   104   105    1
  110   106   107    1
  111    12   108    1
  112   106   108    1
  113   106   109    1
  114   109   110    1
  115   109   111    1
  116   111   112    1
  117   109   113    1
  118   113   114    1
  119   113   115    1
  120   115   116    1
  121    87   117    1
  122   113   117    1
  123   117   118    1
  124   117   119    1
  125   119   120    1
  126   106   121    1
  127   119   121    1
  128   119   122    1
  129   122   123    1
  130   122   124    1
  131   122   125    1
  132   125   126    1
  133   127   128    1
  134   127   129    2
  135   127   130    1
  136   130   131    1
  137   130   132    1
  138   130   133    1
  139   133   134    1
  140   133   135    1
  141   133   136    1
  142   136   137    1
  143   136   138    1
  144   136   139    1
@<TRIPOS>SUBSTRUCTURE
       1 MOL1            1 RESIDUE      1      MOL     
       2 MOL1          139 RESIDUE      1      MOL     
@<SCITEGIC>MOL_PROPERTY
feprocess Rank
SciTegic.value.IntegerValue
84

@<SCITEGIC>MOL_PROPERTY
Conf_Id
SciTegic.value.IntegerValue
868

@<SCITEGIC>MOL_PROPERTY
Probability
SciTegic.value.DoubleValue
0.00

@<SCITEGIC>MOL_PROPERTY
G
SciTegic.value.DoubleValue
495.759

@<SCITEGIC>MOL_PROPERTY
E
SciTegic.value.DoubleValue
320.114

@<SCITEGIC>MOL_PROPERTY
-TS
SciTegic.value.DoubleValue
175.645

@<SCITEGIC>MOL_PROPERTY
U+W
SciTegic.value.DoubleValue
197.603

@<SCITEGIC>MOL_PROPERTY
U
SciTegic.value.DoubleValue
265.667

@<SCITEGIC>MOL_PROPERTY
W
SciTegic.value.DoubleValue
-68.064

@<SCITEGIC>MOL_PROPERTY
W(PB)
SciTegic.value.DoubleValue
-73.923

@<SCITEGIC>MOL_PROPERTY
W(SA)
SciTegic.value.DoubleValue
5.859

@<SCITEGIC>MOL_PROPERTY
Valence
SciTegic.value.DoubleValue
154.953

@<SCITEGIC>MOL_PROPERTY
Coulomb
SciTegic.value.DoubleValue
138.021

@<SCITEGIC>MOL_PROPERTY
VdW
SciTegic.value.DoubleValue
-27.307

@<SCITEGIC>MOL_PROPERTY
VdW6
SciTegic.value.DoubleValue
-179.753

@<SCITEGIC>MOL_PROPERTY
VdW12
SciTegic.value.DoubleValue
152.446

@<SCITEGIC>MOL_PROPERTY
Bond
SciTegic.value.DoubleValue
4.484

@<SCITEGIC>MOL_PROPERTY
Angle
SciTegic.value.DoubleValue
13.730

@<SCITEGIC>MOL_PROPERTY
Pdih
SciTegic.value.DoubleValue
136.717

@<SCITEGIC>MOL_PROPERTY
Idih
SciTegic.value.DoubleValue
0.023

@<SCITEGIC>MOL_PROPERTY
Tether
SciTegic.value.DoubleValue
0.000

@<TRIPOS>MOLECULE
CD_guest-6_fast_vm2_rndm.mol2 : feprocess host+ligand conformer 85
         139         144           2
SMALL
USER_CHARGES
 
@<TRIPOS>ATOM
       1    C1      16.099692   15.027489   21.544877 C.3        1 MOL1         0.2972
       2    H1      15.010001   14.925258   21.465446 H          1 MOL1         0.0751
       3    O1      16.486183   16.389857   21.811501 O.3        1 MOL1        -0.3740
       4    C2      16.615962   14.140014   22.699857 C.3        1 MOL1         0.1003
       5    H2      16.335731   13.103052   22.473561 H          1 MOL1         0.0783
       6    O2      16.008733   14.541275   23.938746 O.3        1 MOL1        -0.5519
       7    H3      15.873811   15.519734   23.883233 H          1 MOL1         0.3769
       8    C3      18.156068   14.208178   22.805169 C.3        1 MOL1         0.1053
       9    H4      18.416360   15.213100   23.157296 H          1 MOL1         0.0783
      10    O3      18.610660   13.236243   23.754324 O.3        1 MOL1        -0.5519
      11    H5      18.039243   13.363161   24.543528 H          1 MOL1         0.3769
      12    C4      18.853641   13.975793   21.439124 C.3        1 MOL1         0.1018
      13    H6      18.833986   12.899513   21.224399 H          1 MOL1         0.0783
      14    C5      18.178835   14.768085   20.276632 C.3        1 MOL1         0.1043
      15    H7      18.426965   15.830653   20.401351 H          1 MOL1         0.0783
      16    O4      16.738600   14.597276   20.329175 O.3        1 MOL1        -0.3740
      17    C6      18.623913   14.348749   18.854183 C.3        1 MOL1         0.0138
      18    H8      19.603726   14.790404   18.641843 H          1 MOL1         0.0794
      19    H9      17.922905   14.784149   18.129592 H          1 MOL1         0.0794
      20    O5      18.674919   12.924696   18.695762 O.3        1 MOL1        -0.5486
      21    H10     18.924003   12.738747   17.764553 H          1 MOL1         0.3769
      22    C7      14.906024   20.257074   21.207587 C.3        1 MOL1         0.2972
      23    H11     14.184705   21.048199   20.965921 H          1 MOL1         0.0751
      24    O6      16.201144   20.807822   21.510358 O.3        1 MOL1        -0.3740
      25    C8      14.414346   19.476717   22.454197 C.3        1 MOL1         0.1003
      26    H12     13.406777   19.102782   22.230475 H          1 MOL1         0.0783
      27    O7      14.352056   20.349557   23.593458 O.3        1 MOL1        -0.5519
      28    H13     15.016605   21.063521   23.435993 H          1 MOL1         0.3769
      29    C9      15.316823   18.255557   22.755069 C.3        1 MOL1         0.1053
      30    H14     16.303210   18.621406   23.073015 H          1 MOL1         0.0783
      31    O8      14.724575   17.470656   23.797055 O.3        1 MOL1        -0.5519
      32    H15     14.478097   18.117971   24.494451 H          1 MOL1         0.3769
      33    C10     15.505384   17.394244   21.485112 C.3        1 MOL1         0.1018
      34    H16     14.536813   16.949658   21.221212 H          1 MOL1         0.0783
      35    C11     16.004060   18.267498   20.300967 C.3        1 MOL1         0.1043
      36    H17     16.980277   18.686152   20.573476 H          1 MOL1         0.0783
      37    O9      15.052738   19.344549   20.097775 O.3        1 MOL1        -0.3740
      38    C12     16.185040   17.525964   18.953078 C.3        1 MOL1         0.0138
      39    H18     17.181933   17.067843   18.941312 H          1 MOL1         0.0794
      40    H19     16.171090   18.266172   18.142553 H          1 MOL1         0.0794
      41    O10     15.185567   16.526789   18.721851 O.3        1 MOL1        -0.5486
      42    H20     15.501785   15.710396   19.173639 H          1 MOL1         0.3769
      43    C13     18.601212   24.121438   20.695807 C.3        1 MOL1         0.2972
      44    H21     19.016643   25.071156   20.334909 H          1 MOL1         0.0751
      45    O11     19.581318   23.336003   21.398117 O.3        1 MOL1        -0.3740
      46    C14     17.441428   24.366269   21.693318 C.3        1 MOL1         0.1003
      47    H22     16.664338   24.936907   21.168480 H          1 MOL1         0.0783
      48    O12     17.904120   25.116787   22.828796 O.3        1 MOL1        -0.5519
      49    H23     18.764561   24.715150   23.110170 H          1 MOL1         0.3769
      50    C15     16.826470   23.020601   22.156647 C.3        1 MOL1         0.1053
      51    H24     17.573809   22.496842   22.768975 H          1 MOL1         0.0783
      52    O13     15.654414   23.272246   22.939485 O.3        1 MOL1        -0.5519
      53    H25     15.913351   23.980582   23.569911 H          1 MOL1         0.3769
      54    C16     16.472217   22.109906   20.954061 C.3        1 MOL1         0.1018
      55    H26     15.595911   22.534147   20.446603 H          1 MOL1         0.0783
      56    C17     17.646794   22.002849   19.939633 C.3        1 MOL1         0.1043
      57    H27     18.471629   21.471925   20.420466 H          1 MOL1         0.0783
      58    O14     18.085432   23.339095   19.596200 O.3        1 MOL1        -0.3740
      59    C18     17.339304   21.231236   18.632462 C.3        1 MOL1         0.0138
      60    H28     17.545332   20.166690   18.803351 H          1 MOL1         0.0794
      61    H29     18.043777   21.564322   17.858800 H          1 MOL1         0.0794
      62    O15     15.990911   21.400912   18.180015 O.3        1 MOL1        -0.5486
      63    H30     15.441197   20.764927   18.694379 H          1 MOL1         0.3769
      64    C19     23.657231   22.892511   21.920915 C.3        1 MOL1         0.2972
      65    H31     24.740881   23.036121   22.019060 H          1 MOL1         0.0751
      66    O16     23.295950   21.502605   22.029124 O.3        1 MOL1        -0.3740
      67    C20     22.927876   23.659484   23.049642 C.3        1 MOL1         0.1003
      68    H32     23.177873   24.723404   22.946398 H          1 MOL1         0.0783
      69    O17     23.367376   23.186737   24.333093 O.3        1 MOL1        -0.5519
      70    H33     23.626381   22.240638   24.211172 H          1 MOL1         0.3769
      71    C21     21.395242   23.509845   22.913232 C.3        1 MOL1         0.1053
      72    H34     21.138425   22.460520   23.113048 H          1 MOL1         0.0783
      73    O18     20.740585   24.356987   23.865042 O.3        1 MOL1        -0.5519
      74    H35     21.206976   24.192673   24.714680 H          1 MOL1         0.3769
      75    C22     20.915235   23.862842   21.484893 C.3        1 MOL1         0.1018
      76    H36     20.936209   24.954357   21.367826 H          1 MOL1         0.0783
      77    C23     21.776010   23.182965   20.382564 C.3        1 MOL1         0.1043
      78    H37     21.556140   22.108401   20.403664 H          1 MOL1         0.0783
      79    O19     23.187818   23.389194   20.650707 O.3        1 MOL1        -0.3740
      80    C24     21.477380   23.683796   18.949728 C.3        1 MOL1         0.0138
      81    H38     20.506317   23.279915   18.634716 H          1 MOL1         0.0794
      82    H39     22.233391   23.269272   18.269589 H          1 MOL1         0.0794
      83    O20     21.464472   25.114989   18.868717 O.3        1 MOL1        -0.5486
      84    H40     21.323572   25.357964   17.927896 H          1 MOL1         0.3769
      85    C25     24.925174   17.690171   21.465225 C.3        1 MOL1         0.2972
      86    H41     25.621091   16.869086   21.250219 H          1 MOL1         0.0751
      87    O21     23.599521   17.196938   21.734609 O.3        1 MOL1        -0.3740
      88    C26     25.412024   18.464727   22.715197 C.3        1 MOL1         0.1003
      89    H42     26.425368   18.829850   22.503374 H          1 MOL1         0.0783
      90    O22     25.450507   17.593123   23.856359 O.3        1 MOL1        -0.5519
      91    H43     24.796473   16.872355   23.682242 H          1 MOL1         0.3769
      92    C27     24.513013   19.690828   22.999338 C.3        1 MOL1         0.1053
      93    H44     23.524825   19.326845   23.308832 H          1 MOL1         0.0783
      94    O23     25.088800   20.474857   24.050225 O.3        1 MOL1        -0.5519
      95    H45     25.330608   19.826081   24.748158 H          1 MOL1         0.3769
      96    C28     24.338563   20.556572   21.728662 C.3        1 MOL1         0.1018
      97    H46     25.294856   21.050429   21.511967 H          1 MOL1         0.0783
      98    C29     23.914033   19.701483   20.501572 C.3        1 MOL1         0.1043
      99    H47     22.909300   19.305724   20.694760 H          1 MOL1         0.0783
     100    O24     24.849461   18.602160   20.348296 O.3        1 MOL1        -0.3740
     101    C30     23.851000   20.467133   19.154754 C.3        1 MOL1         0.0138
     102    H48     22.854685   20.912741   19.051962 H          1 MOL1         0.0794
     103    H49     23.953250   19.742805   18.335966 H          1 MOL1         0.0794
     104    O25     24.849115   21.487909   19.037522 O.3        1 MOL1        -0.5486
     105    H50     24.501291   22.275092   19.517546 H          1 MOL1         0.3769
     106    C31     21.253171   13.802446   20.899703 C.3        1 MOL1         0.2972
     107    H51     20.925185   12.834172   20.500269 H          1 MOL1         0.0751
     108    O26     20.200725   14.452946   21.633782 O.3        1 MOL1        -0.3740
     109    C32     22.425442   13.607041   21.895858 C.3        1 MOL1         0.1003
     110    H52     23.229329   13.080282   21.365547 H          1 MOL1         0.0783
     111    O27     21.994447   12.820379   23.018232 O.3        1 MOL1        -0.5519
     112    H53     21.092804   13.148039   23.253340 H          1 MOL1         0.3769
     113    C33     22.979606   14.970807   22.382717 C.3        1 MOL1         0.1053
     114    H54     22.209791   15.456578   22.998218 H          1 MOL1         0.0783
     115    O28     24.162428   14.757262   23.161579 O.3        1 MOL1        -0.5519
     116    H55     23.933075   14.030996   23.782905 H          1 MOL1         0.3769
     117    C34     23.293549   15.900651   21.186766 C.3        1 MOL1         0.1018
     118    H56     24.143156   15.478953   20.633733 H          1 MOL1         0.0783
     119    C35     22.076448   16.013287   20.228802 C.3        1 MOL1         0.1043
     120    H57     21.244442   16.492099   20.761285 H          1 MOL1         0.0783
     121    O29     21.700187   14.671457   19.836138 O.3        1 MOL1        -0.3740
     122    C36     22.329070   16.835755   18.939859 C.3        1 MOL1         0.0138
     123    H58     22.145612   17.893801   19.158767 H          1 MOL1         0.0794
     124    H59     21.584512   16.541779   18.188471 H          1 MOL1         0.0794
     125    O30     23.653960   16.672688   18.417753 O.3        1 MOL1        -0.5486
     126    H60     24.241235   17.252793   18.955640 H          1 MOL1         0.3769
     127    C1      19.939781   19.197837   20.366660 C.2        1 MOL1         0.6021
     128    O1      20.608559   19.893963   19.627008 O.co2      1 MOL1        -0.6904
     129    O2      19.342936   18.206539   19.992660 O.co2      1 MOL1        -0.6904
     130    C2      19.771149   19.668841   21.813837 C.3        1 MOL1        -0.2102
     131    H1      18.702108   19.689767   22.052627 H          1 MOL1         0.0687
     132    H2      20.125736   20.703549   21.861358 H          1 MOL1         0.0687
     133    C3      20.540579   18.839589   22.869357 C.3        1 MOL1        -0.1974
     134    H3      21.537420   18.598082   22.486168 H          1 MOL1         0.0689
     135    H4      20.684149   19.445233   23.774109 H          1 MOL1         0.0689
     136    C4      19.796937   17.546525   23.246540 C.3        1 MOL1        -0.2987
     137    H5      19.610006   16.942654   22.351939 H          1 MOL1         0.0700
     138    H6      20.385795   16.946331   23.951345 H          1 MOL1         0.0700
     139    H7      18.827918   17.770887   23.710480 H          1 MOL1         0.0700
@<TRIPOS>BOND
    1     1     2    1
    2     1     3    1
    3     1     4    1
    4     4     5    1
    5     4     6    1
    6     6     7    1
    7     4     8    1
    8     8     9    1
    9     8    10    1
   10    10    11    1
   11     8    12    1
   12    12    13    1
   13    12    14    1
   14    14    15    1
   15     1    16    1
   16    14    16    1
   17    14    17    1
   18    17    18    1
   19    17    19    1
   20    17    20    1
   21    20    21    1
   22    22    23    1
   23    22    24    1
   24    22    25    1
   25    25    26    1
   26    25    27    1
   27    27    28    1
   28    25    29    1
   29    29    30    1
   30    29    31    1
   31    31    32    1
   32     3    33    1
   33    29    33    1
   34    33    34    1
   35    33    35    1
   36    35    36    1
   37    22    37    1
   38    35    37    1
   39    35    38    1
   40    38    39    1
   41    38    40    1
   42    38    41    1
   43    41    42    1
   44    43    44    1
   45    43    45    1
   46    43    46    1
   47    46    47    1
   48    46    48    1
   49    48    49    1
   50    46    50    1
   51    50    51    1
   52    50    52    1
   53    52    53    1
   54    24    54    1
   55    50    54    1
   56    54    55    1
   57    54    56    1
   58    56    57    1
   59    43    58    1
   60    56    58    1
   61    56    59    1
   62    59    60    1
   63    59    61    1
   64    59    62    1
   65    62    63    1
   66    64    65    1
   67    64    66    1
   68    64    67    1
   69    67    68    1
   70    67    69    1
   71    69    70    1
   72    67    71    1
   73    71    72    1
   74    71    73    1
   75    73    74    1
   76    45    75    1
   77    71    75    1
   78    75    76    1
   79    75    77    1
   80    77    78    1
   81    64    79    1
   82    77    79    1
   83    77    80    1
   84    80    81    1
   85    80    82    1
   86    80    83    1
   87    83    84    1
   88    85    86    1
   89    85    87    1
   90    85    88    1
   91    88    89    1
   92    88    90    1
   93    90    91    1
   94    88    92    1
   95    92    93    1
   96    92    94    1
   97    94    95    1
   98    66    96    1
   99    92    96    1
  100    96    97    1
  101    96    98    1
  102    98    99    1
  103    85   100    1
  104    98   100    1
  105    98   101    1
  106   101   102    1
  107   101   103    1
  108   101   104    1
  109   104   105    1
  110   106   107    1
  111    12   108    1
  112   106   108    1
  113   106   109    1
  114   109   110    1
  115   109   111    1
  116   111   112    1
  117   109   113    1
  118   113   114    1
  119   113   115    1
  120   115   116    1
  121    87   117    1
  122   113   117    1
  123   117   118    1
  124   117   119    1
  125   119   120    1
  126   106   121    1
  127   119   121    1
  128   119   122    1
  129   122   123    1
  130   122   124    1
  131   122   125    1
  132   125   126    1
  133   127   128    1
  134   127   129    2
  135   127   130    1
  136   130   131    1
  137   130   132    1
  138   130   133    1
  139   133   134    1
  140   133   135    1
  141   133   136    1
  142   136   137    1
  143   136   138    1
  144   136   139    1
@<TRIPOS>SUBSTRUCTURE
       1 MOL1            1 RESIDUE      1      MOL     
       2 MOL1          139 RESIDUE      1      MOL     
@<SCITEGIC>MOL_PROPERTY
feprocess Rank
SciTegic.value.IntegerValue
85

@<SCITEGIC>MOL_PROPERTY
Conf_Id
SciTegic.value.IntegerValue
255

@<SCITEGIC>MOL_PROPERTY
Probability
SciTegic.value.DoubleValue
0.00

@<SCITEGIC>MOL_PROPERTY
G
SciTegic.value.DoubleValue
495.776

@<SCITEGIC>MOL_PROPERTY
E
SciTegic.value.DoubleValue
319.652

@<SCITEGIC>MOL_PROPERTY
-TS
SciTegic.value.DoubleValue
176.124

@<SCITEGIC>MOL_PROPERTY
U+W
SciTegic.value.DoubleValue
197.141

@<SCITEGIC>MOL_PROPERTY
U
SciTegic.value.DoubleValue
264.412

@<SCITEGIC>MOL_PROPERTY
W
SciTegic.value.DoubleValue
-67.271

@<SCITEGIC>MOL_PROPERTY
W(PB)
SciTegic.value.DoubleValue
-73.143

@<SCITEGIC>MOL_PROPERTY
W(SA)
SciTegic.value.DoubleValue
5.872

@<SCITEGIC>MOL_PROPERTY
Valence
SciTegic.value.DoubleValue
155.167

@<SCITEGIC>MOL_PROPERTY
Coulomb
SciTegic.value.DoubleValue
137.232

@<SCITEGIC>MOL_PROPERTY
VdW
SciTegic.value.DoubleValue
-27.986

@<SCITEGIC>MOL_PROPERTY
VdW6
SciTegic.value.DoubleValue
-180.228

@<SCITEGIC>MOL_PROPERTY
VdW12
SciTegic.value.DoubleValue
152.242

@<SCITEGIC>MOL_PROPERTY
Bond
SciTegic.value.DoubleValue
4.455

@<SCITEGIC>MOL_PROPERTY
Angle
SciTegic.value.DoubleValue
13.443

@<SCITEGIC>MOL_PROPERTY
Pdih
SciTegic.value.DoubleValue
137.255

@<SCITEGIC>MOL_PROPERTY
Idih
SciTegic.value.DoubleValue
0.014

@<SCITEGIC>MOL_PROPERTY
Tether
SciTegic.value.DoubleValue
0.000

@<TRIPOS>MOLECULE
CD_guest-6_fast_vm2_rndm.mol2 : feprocess host+ligand conformer 86
         139         144           2
SMALL
USER_CHARGES
 
@<TRIPOS>ATOM
       1    C1      16.173224   15.256750   20.835842 C.3        1 MOL1         0.2972
       2    H1      15.160477   15.028467   20.480224 H          1 MOL1         0.0751
       3    O1      16.232538   16.558691   21.444794 O.3        1 MOL1        -0.3740
       4    C2      16.587912   14.230860   21.921177 C.3        1 MOL1         0.1003
       5    H2      16.513715   13.229396   21.477776 H          1 MOL1         0.0783
       6    O2      15.702680   14.320097   23.049017 O.3        1 MOL1        -0.5519
       7    H3      15.460613   15.274075   23.136537 H          1 MOL1         0.3769
       8    C3      18.053569   14.450788   22.368272 C.3        1 MOL1         0.1053
       9    H4      18.116692   15.414297   22.893038 H          1 MOL1         0.0783
      10    O3      18.450523   13.389328   23.243600 O.3        1 MOL1        -0.5519
      11    H5      17.709244   13.295183   23.882633 H          1 MOL1         0.3769
      12    C4      18.990643   14.505381   21.140105 C.3        1 MOL1         0.1018
      13    H6      19.006934   13.512517   20.671528 H          1 MOL1         0.0783
      14    C5      18.491213   15.542694   20.098652 C.3        1 MOL1         0.1043
      15    H7      18.518867   16.541209   20.555748 H          1 MOL1         0.0783
      16    O4      17.123639   15.205669   19.747422 O.3        1 MOL1        -0.3740
      17    C6      19.332789   15.608192   18.797435 C.3        1 MOL1         0.0138
      18    H8      20.172880   16.294807   18.959099 H          1 MOL1         0.0794
      19    H9      18.716962   16.048363   18.002603 H          1 MOL1         0.0794
      20    O5      19.830635   14.329888   18.383421 O.3        1 MOL1        -0.5486
      21    H10     20.634571   14.151556   18.924209 H          1 MOL1         0.3769
      22    C7      14.554847   20.377982   21.132176 C.3        1 MOL1         0.2972
      23    H11     13.904511   21.232601   20.905663 H          1 MOL1         0.0751
      24    O6      15.778077   20.794701   21.769202 O.3        1 MOL1        -0.3740
      25    C8      13.852481   19.408051   22.114333 C.3        1 MOL1         0.1003
      26    H12     12.911507   19.085738   21.649992 H          1 MOL1         0.0783
      27    O7      13.573920   20.079020   23.354041 O.3        1 MOL1        -0.5519
      28    H13     14.379315   20.610405   23.567004 H          1 MOL1         0.3769
      29    C9      14.721312   18.150481   22.373430 C.3        1 MOL1         0.1053
      30    H14     15.602243   18.462090   22.950729 H          1 MOL1         0.0783
      31    O8      13.964864   17.195728   23.127098 O.3        1 MOL1        -0.5519
      32    H15     13.567272   17.707343   23.865808 H          1 MOL1         0.3769
      33    C10     15.219001   17.506315   21.054059 C.3        1 MOL1         0.1018
      34    H16     14.365581   17.016934   20.566959 H          1 MOL1         0.0783
      35    C11     15.829535   18.569692   20.095957 C.3        1 MOL1         0.1043
      36    H17     16.741673   18.968374   20.554694 H          1 MOL1         0.0783
      37    O9      14.868180   19.638638   19.934053 O.3        1 MOL1        -0.3740
      38    C12     16.223387   18.069090   18.684482 C.3        1 MOL1         0.0138
      39    H18     17.254857   17.699064   18.726573 H          1 MOL1         0.0794
      40    H19     16.229921   18.927695   18.000515 H          1 MOL1         0.0794
      41    O10     15.357073   17.045181   18.182313 O.3        1 MOL1        -0.5486
      42    H20     15.736859   16.191983   18.492922 H          1 MOL1         0.3769
      43    C13     18.471220   23.984543   21.729440 C.3        1 MOL1         0.2972
      44    H21     18.917108   24.987366   21.702727 H          1 MOL1         0.0751
      45    O11     19.485545   22.965202   21.765464 O.3        1 MOL1        -0.3740
      46    C14     17.586096   23.848690   22.991098 C.3        1 MOL1         0.1003
      47    H22     16.818976   24.632343   22.941322 H          1 MOL1         0.0783
      48    O12     18.378030   24.034401   24.175027 O.3        1 MOL1        -0.5519
      49    H23     19.313612   23.854405   23.915329 H          1 MOL1         0.3769
      50    C15     16.867425   22.480813   23.026841 C.3        1 MOL1         0.1053
      51    H24     17.626359   21.700436   23.173087 H          1 MOL1         0.0783
      52    O13     15.936919   22.464321   24.116335 O.3        1 MOL1        -0.5519
      53    H25     16.445768   22.796115   24.888800 H          1 MOL1         0.3769
      54    C16     16.126433   22.191267   21.698404 C.3        1 MOL1         0.1018
      55    H26     15.233960   22.828956   21.653503 H          1 MOL1         0.0783
      56    C17     17.035853   22.448411   20.459197 C.3        1 MOL1         0.1043
      57    H27     17.810091   21.669776   20.448070 H          1 MOL1         0.0783
      58    O14     17.656406   23.757759   20.562995 O.3        1 MOL1        -0.3740
      59    C18     16.306761   22.410789   19.094014 C.3        1 MOL1         0.0138
      60    H28     16.131687   21.366929   18.811875 H          1 MOL1         0.0794
      61    H29     16.974366   22.831560   18.330301 H          1 MOL1         0.0794
      62    O15     15.069192   23.133982   19.119494 O.3        1 MOL1        -0.5486
      63    H30     14.682757   23.092289   18.218010 H          1 MOL1         0.3769
      64    C19     23.546998   22.530065   20.805450 C.3        1 MOL1         0.2972
      65    H31     24.549867   22.688683   20.388416 H          1 MOL1         0.0751
      66    O16     23.438881   21.259931   21.470554 O.3        1 MOL1        -0.3740
      67    C20     23.209135   23.617009   21.858796 C.3        1 MOL1         0.1003
      68    H32     23.282202   24.593187   21.362128 H          1 MOL1         0.0783
      69    O17     24.139564   23.568655   22.953608 O.3        1 MOL1        -0.5519
      70    H33     24.253317   22.615491   23.197573 H          1 MOL1         0.3769
      71    C21     21.758731   23.449488   22.380015 C.3        1 MOL1         0.1053
      72    H34     21.705010   22.514652   22.955388 H          1 MOL1         0.0783
      73    O18     21.420377   24.557227   23.221632 O.3        1 MOL1        -0.5519
      74    H35     22.193367   24.671762   23.818117 H          1 MOL1         0.3769
      75    C22     20.755681   23.347776   21.204920 C.3        1 MOL1         0.1018
      76    H36     20.704372   24.322687   20.702187 H          1 MOL1         0.0783
      77    C23     21.197311   22.276948   20.170939 C.3        1 MOL1         0.1043
      78    H37     21.171697   21.293358   20.653425 H          1 MOL1         0.0783
      79    O19     22.552163   22.580640   19.759566 O.3        1 MOL1        -0.3740
      80    C24     20.311793   22.183742   18.902502 C.3        1 MOL1         0.0138
      81    H38     19.484866   21.492164   19.104531 H          1 MOL1         0.0794
      82    H39     20.904596   21.728931   18.097772 H          1 MOL1         0.0794
      83    O20     19.794826   23.453620   18.482731 O.3        1 MOL1        -0.5486
      84    H40     19.091501   23.704006   19.126214 H          1 MOL1         0.3769
      85    C25     25.260555   17.586703   21.802336 C.3        1 MOL1         0.2972
      86    H41     25.936607   16.723711   21.852754 H          1 MOL1         0.0751
      87    O21     23.881372   17.195137   21.928496 O.3        1 MOL1        -0.3740
      88    C26     25.569781   18.565087   22.959518 C.3        1 MOL1         0.1003
      89    H42     26.601225   18.919044   22.833317 H          1 MOL1         0.0783
      90    O22     25.443594   17.894340   24.223961 O.3        1 MOL1        -0.5519
      91    H43     24.735535   17.211908   24.115545 H          1 MOL1         0.3769
      92    C27     24.627688   19.789672   22.900437 C.3        1 MOL1         0.1053
      93    H44     23.609910   19.445469   23.128858 H          1 MOL1         0.0783
      94    O23     25.034757   20.759481   23.872634 O.3        1 MOL1        -0.5519
      95    H45     25.173901   20.247496   24.700227 H          1 MOL1         0.3769
      96    C28     24.616798   20.435683   21.493391 C.3        1 MOL1         0.1018
      97    H46     25.535102   21.026414   21.377873 H          1 MOL1         0.0783
      98    C29     24.498625   19.393959   20.341888 C.3        1 MOL1         0.1043
      99    H47     23.473228   19.006392   20.342974 H          1 MOL1         0.0783
     100    O24     25.421652   18.294016   20.556232 O.3        1 MOL1        -0.3740
     101    C30     24.756756   19.978472   18.933248 C.3        1 MOL1         0.0138
     102    H48     23.897154   20.601200   18.651975 H          1 MOL1         0.0794
     103    H49     24.801786   19.149661   18.214239 H          1 MOL1         0.0794
     104    O25     25.962755   20.751676   18.880292 O.3        1 MOL1        -0.5486
     105    H50     26.091855   21.037183   17.949716 H          1 MOL1         0.3769
     106    C31     21.344207   13.932679   21.414759 C.3        1 MOL1         0.2972
     107    H51     20.943105   12.927821   21.230508 H          1 MOL1         0.0751
     108    O26     20.291314   14.896346   21.616853 O.3        1 MOL1        -0.3740
     109    C32     22.225098   13.912744   22.688324 C.3        1 MOL1         0.1003
     110    H52     23.036669   13.193412   22.518052 H          1 MOL1         0.0783
     111    O27     21.455499   13.497285   23.828051 O.3        1 MOL1        -0.5519
     112    H53     20.509603   13.712979   23.630882 H          1 MOL1         0.3769
     113    C33     22.860920   15.299136   22.939038 C.3        1 MOL1         0.1053
     114    H54     22.057374   16.004715   23.191077 H          1 MOL1         0.0783
     115    O28     23.788661   15.213615   24.026658 O.3        1 MOL1        -0.5519
     116    H55     23.313687   14.710624   24.725387 H          1 MOL1         0.3769
     117    C34     23.580350   15.814102   21.669808 C.3        1 MOL1         0.1018
     118    H56     24.486061   15.213369   21.514559 H          1 MOL1         0.0783
     119    C35     22.673061   15.722546   20.409540 C.3        1 MOL1         0.1043
     120    H57     21.839474   16.420310   20.539078 H          1 MOL1         0.0783
     121    O29     22.150254   14.373282   20.299060 O.3        1 MOL1        -0.3740
     122    C36     23.359057   16.100815   19.072186 C.3        1 MOL1         0.0138
     123    H58     23.256562   17.183541   18.924790 H          1 MOL1         0.0794
     124    H59     22.812613   15.619500   18.250392 H          1 MOL1         0.0794
     125    O30     24.743864   15.738725   19.024381 O.3        1 MOL1        -0.5486
     126    H60     25.237954   16.471655   19.458654 H          1 MOL1         0.3769
     127    C1      20.269533   18.807520   20.278278 C.2        1 MOL1         0.6021
     128    O1      21.159213   18.649287   19.464522 O.co2      1 MOL1        -0.6904
     129    O2      19.123040   19.062908   19.965325 O.co2      1 MOL1        -0.6904
     130    C2      20.660629   18.716122   21.758312 C.3        1 MOL1        -0.2102
     131    H1      21.683016   19.097972   21.835947 H          1 MOL1         0.0687
     132    H2      20.700351   17.659245   22.039009 H          1 MOL1         0.0687
     133    C3      19.769351   19.496100   22.759550 C.3        1 MOL1        -0.1974
     134    H3      20.367726   19.772247   23.637928 H          1 MOL1         0.0689
     135    H4      19.431967   20.432039   22.299370 H          1 MOL1         0.0689
     136    C4      18.554122   18.671800   23.227435 C.3        1 MOL1        -0.2987
     137    H5      18.873113   17.768508   23.762683 H          1 MOL1         0.0700
     138    H6      17.917747   19.262380   23.898463 H          1 MOL1         0.0700
     139    H7      17.949759   18.362948   22.368676 H          1 MOL1         0.0700
@<TRIPOS>BOND
    1     1     2    1
    2     1     3    1
    3     1     4    1
    4     4     5    1
    5     4     6    1
    6     6     7    1
    7     4     8    1
    8     8     9    1
    9     8    10    1
   10    10    11    1
   11     8    12    1
   12    12    13    1
   13    12    14    1
   14    14    15    1
   15     1    16    1
   16    14    16    1
   17    14    17    1
   18    17    18    1
   19    17    19    1
   20    17    20    1
   21    20    21    1
   22    22    23    1
   23    22    24    1
   24    22    25    1
   25    25    26    1
   26    25    27    1
   27    27    28    1
   28    25    29    1
   29    29    30    1
   30    29    31    1
   31    31    32    1
   32     3    33    1
   33    29    33    1
   34    33    34    1
   35    33    35    1
   36    35    36    1
   37    22    37    1
   38    35    37    1
   39    35    38    1
   40    38    39    1
   41    38    40    1
   42    38    41    1
   43    41    42    1
   44    43    44    1
   45    43    45    1
   46    43    46    1
   47    46    47    1
   48    46    48    1
   49    48    49    1
   50    46    50    1
   51    50    51    1
   52    50    52    1
   53    52    53    1
   54    24    54    1
   55    50    54    1
   56    54    55    1
   57    54    56    1
   58    56    57    1
   59    43    58    1
   60    56    58    1
   61    56    59    1
   62    59    60    1
   63    59    61    1
   64    59    62    1
   65    62    63    1
   66    64    65    1
   67    64    66    1
   68    64    67    1
   69    67    68    1
   70    67    69    1
   71    69    70    1
   72    67    71    1
   73    71    72    1
   74    71    73    1
   75    73    74    1
   76    45    75    1
   77    71    75    1
   78    75    76    1
   79    75    77    1
   80    77    78    1
   81    64    79    1
   82    77    79    1
   83    77    80    1
   84    80    81    1
   85    80    82    1
   86    80    83    1
   87    83    84    1
   88    85    86    1
   89    85    87    1
   90    85    88    1
   91    88    89    1
   92    88    90    1
   93    90    91    1
   94    88    92    1
   95    92    93    1
   96    92    94    1
   97    94    95    1
   98    66    96    1
   99    92    96    1
  100    96    97    1
  101    96    98    1
  102    98    99    1
  103    85   100    1
  104    98   100    1
  105    98   101    1
  106   101   102    1
  107   101   103    1
  108   101   104    1
  109   104   105    1
  110   106   107    1
  111    12   108    1
  112   106   108    1
  113   106   109    1
  114   109   110    1
  115   109   111    1
  116   111   112    1
  117   109   113    1
  118   113   114    1
  119   113   115    1
  120   115   116    1
  121    87   117    1
  122   113   117    1
  123   117   118    1
  124   117   119    1
  125   119   120    1
  126   106   121    1
  127   119   121    1
  128   119   122    1
  129   122   123    1
  130   122   124    1
  131   122   125    1
  132   125   126    1
  133   127   128    1
  134   127   129    2
  135   127   130    1
  136   130   131    1
  137   130   132    1
  138   130   133    1
  139   133   134    1
  140   133   135    1
  141   133   136    1
  142   136   137    1
  143   136   138    1
  144   136   139    1
@<TRIPOS>SUBSTRUCTURE
       1 MOL1            1 RESIDUE      1      MOL     
       2 MOL1          139 RESIDUE      1      MOL     
@<SCITEGIC>MOL_PROPERTY
feprocess Rank
SciTegic.value.IntegerValue
86

@<SCITEGIC>MOL_PROPERTY
Conf_Id
SciTegic.value.IntegerValue
328

@<SCITEGIC>MOL_PROPERTY
Probability
SciTegic.value.DoubleValue
0.00

@<SCITEGIC>MOL_PROPERTY
G
SciTegic.value.DoubleValue
495.945

@<SCITEGIC>MOL_PROPERTY
E
SciTegic.value.DoubleValue
320.654

@<SCITEGIC>MOL_PROPERTY
-TS
SciTegic.value.DoubleValue
175.290

@<SCITEGIC>MOL_PROPERTY
U+W
SciTegic.value.DoubleValue
198.143

@<SCITEGIC>MOL_PROPERTY
U
SciTegic.value.DoubleValue
265.913

@<SCITEGIC>MOL_PROPERTY
W
SciTegic.value.DoubleValue
-67.770

@<SCITEGIC>MOL_PROPERTY
W(PB)
SciTegic.value.DoubleValue
-73.625

@<SCITEGIC>MOL_PROPERTY
W(SA)
SciTegic.value.DoubleValue
5.855

@<SCITEGIC>MOL_PROPERTY
Valence
SciTegic.value.DoubleValue
155.680

@<SCITEGIC>MOL_PROPERTY
Coulomb
SciTegic.value.DoubleValue
137.819

@<SCITEGIC>MOL_PROPERTY
VdW
SciTegic.value.DoubleValue
-27.585

@<SCITEGIC>MOL_PROPERTY
VdW6
SciTegic.value.DoubleValue
-180.180

@<SCITEGIC>MOL_PROPERTY
VdW12
SciTegic.value.DoubleValue
152.595

@<SCITEGIC>MOL_PROPERTY
Bond
SciTegic.value.DoubleValue
4.485

@<SCITEGIC>MOL_PROPERTY
Angle
SciTegic.value.DoubleValue
13.788

@<SCITEGIC>MOL_PROPERTY
Pdih
SciTegic.value.DoubleValue
137.404

@<SCITEGIC>MOL_PROPERTY
Idih
SciTegic.value.DoubleValue
0.002

@<SCITEGIC>MOL_PROPERTY
Tether
SciTegic.value.DoubleValue
0.000

@<TRIPOS>MOLECULE
CD_guest-6_fast_vm2_rndm.mol2 : feprocess host+ligand conformer 87
         139         144           2
SMALL
USER_CHARGES
 
@<TRIPOS>ATOM
       1    C1      16.310881   15.237792   21.104170 C.3        1 MOL1         0.2972
       2    H1      15.275899   15.036799   20.799371 H          1 MOL1         0.0751
       3    O1      16.479784   16.611460   21.499941 O.3        1 MOL1        -0.3740
       4    C2      16.673600   14.343086   22.316605 C.3        1 MOL1         0.1003
       5    H2      16.500981   13.300376   22.020003 H          1 MOL1         0.0783
       6    O2      15.832501   14.663215   23.436215 O.3        1 MOL1        -0.5519
       7    H3      15.593315   15.617117   23.340917 H          1 MOL1         0.3769
       8    C3      18.165697   14.487118   22.701053 C.3        1 MOL1         0.1053
       9    H4      18.323959   15.502381   23.089652 H          1 MOL1         0.0783
      10    O3      18.494529   13.520843   23.706263 O.3        1 MOL1        -0.5519
      11    H5      17.777177   13.593860   24.374042 H          1 MOL1         0.3769
      12    C4      19.073942   14.296502   21.463351 C.3        1 MOL1         0.1018
      13    H6      19.005454   13.250359   21.137390 H          1 MOL1         0.0783
      14    C5      18.623923   15.226971   20.302189 C.3        1 MOL1         0.1043
      15    H7      18.746807   16.267756   20.630271 H          1 MOL1         0.0783
      16    O4      17.224806   14.961198   20.021862 O.3        1 MOL1        -0.3740
      17    C6      19.406495   15.070079   18.974038 C.3        1 MOL1         0.0138
      18    H8      20.286714   15.723066   19.009459 H          1 MOL1         0.0794
      19    H9      18.778854   15.441477   18.153499 H          1 MOL1         0.0794
      20    O5      19.805490   13.720063   18.710456 O.3        1 MOL1        -0.5486
      21    H10     20.628652   13.566976   19.230162 H          1 MOL1         0.3769
      22    C7      14.854797   20.401012   20.696599 C.3        1 MOL1         0.2972
      23    H11     14.222921   21.210450   20.308858 H          1 MOL1         0.0751
      24    O6      15.979223   20.909331   21.435467 O.3        1 MOL1        -0.3740
      25    C8      14.052325   19.501143   21.670424 C.3        1 MOL1         0.1003
      26    H12     13.179155   19.118511   21.126259 H          1 MOL1         0.0783
      27    O7      13.613286   20.264783   22.806523 O.3        1 MOL1        -0.5519
      28    H13     14.377200   20.830076   23.081534 H          1 MOL1         0.3769
      29    C9      14.899405   18.289521   22.137401 C.3        1 MOL1         0.1053
      30    H14     15.710595   18.665083   22.776747 H          1 MOL1         0.0783
      31    O8      14.072862   17.388086   22.882470 O.3        1 MOL1        -0.5519
      32    H15     13.579304   17.954851   23.515800 H          1 MOL1         0.3769
      33    C10     15.541192   17.550026   20.937320 C.3        1 MOL1         0.1018
      34    H16     14.744626   17.046882   20.373599 H          1 MOL1         0.0783
      35    C11     16.282706   18.543014   19.998498 C.3        1 MOL1         0.1043
      36    H17     17.118900   18.987612   20.550771 H          1 MOL1         0.0783
      37    O9      15.347613   19.579930   19.617507 O.3        1 MOL1        -0.3740
      38    C12     16.872277   17.935535   18.701928 C.3        1 MOL1         0.0138
      39    H18     17.875885   17.552442   18.923178 H          1 MOL1         0.0794
      40    H19     17.006409   18.744347   17.971336 H          1 MOL1         0.0794
      41    O10     16.059344   16.894564   18.146626 O.3        1 MOL1        -0.5486
      42    H20     16.288897   16.071528   18.637299 H          1 MOL1         0.3769
      43    C13     18.367999   24.264537   21.735632 C.3        1 MOL1         0.2972
      44    H21     18.792589   25.275689   21.777167 H          1 MOL1         0.0751
      45    O11     19.381700   23.253262   21.875352 O.3        1 MOL1        -0.3740
      46    C14     17.354583   24.074351   22.888289 C.3        1 MOL1         0.1003
      47    H22     16.550677   24.809266   22.751474 H          1 MOL1         0.0783
      48    O12     17.994775   24.295514   24.155507 O.3        1 MOL1        -0.5519
      49    H23     18.943366   24.036448   24.045487 H          1 MOL1         0.3769
      50    C15     16.729504   22.661461   22.836398 C.3        1 MOL1         0.1053
      51    H24     17.517057   21.932091   23.070666 H          1 MOL1         0.0783
      52    O13     15.679263   22.564176   23.805956 O.3        1 MOL1        -0.5519
      53    H25     16.061728   22.932351   24.633189 H          1 MOL1         0.3769
      54    C16     16.171068   22.335121   21.429973 C.3        1 MOL1         0.1018
      55    H26     15.222953   22.874123   21.303390 H          1 MOL1         0.0783
      56    C17     17.158781   22.707562   20.283230 C.3        1 MOL1         0.1043
      57    H27     17.985859   21.987861   20.303563 H          1 MOL1         0.0783
      58    O14     17.682811   24.046595   20.486463 O.3        1 MOL1        -0.3740
      59    C18     16.544192   22.652619   18.864417 C.3        1 MOL1         0.0138
      60    H28     16.431921   21.601412   18.570647 H          1 MOL1         0.0794
      61    H29     17.254577   23.105096   18.159686 H          1 MOL1         0.0794
      62    O15     15.279041   23.323265   18.794952 O.3        1 MOL1        -0.5486
      63    H30     14.979735   23.296113   17.860209 H          1 MOL1         0.3769
      64    C19     23.490895   22.688424   21.425043 C.3        1 MOL1         0.2972
      65    H31     24.560002   22.853220   21.239128 H          1 MOL1         0.0751
      66    O16     23.208971   21.302289   21.700127 O.3        1 MOL1        -0.3740
      67    C20     23.047109   23.517154   22.655720 C.3        1 MOL1         0.1003
      68    H32     23.253143   24.572760   22.435854 H          1 MOL1         0.0783
      69    O17     23.788084   23.122482   23.821596 O.3        1 MOL1        -0.5519
      70    H33     24.105045   22.199007   23.660305 H          1 MOL1         0.3769
      71    C21     21.528288   23.367746   22.901394 C.3        1 MOL1         0.1053
      72    H34     21.327667   22.329054   23.198792 H          1 MOL1         0.0783
      73    O18     21.120115   24.259173   23.945135 O.3        1 MOL1        -0.5519
      74    H35     21.790234   24.141220   24.655022 H          1 MOL1         0.3769
      75    C22     20.732362   23.665497   21.609016 C.3        1 MOL1         0.1018
      76    H36     20.803938   24.739779   21.394017 H          1 MOL1         0.0783
      77    C23     21.277024   22.858887   20.396249 C.3        1 MOL1         0.1043
      78    H37     21.098789   21.795505   20.585744 H          1 MOL1         0.0783
      79    O19     22.705036   23.090036   20.279998 O.3        1 MOL1        -0.3740
      80    C24     20.608514   23.181554   19.035543 C.3        1 MOL1         0.0138
      81    H38     19.726654   22.538276   18.921239 H          1 MOL1         0.0794
      82    H39     21.302948   22.907041   18.230515 H          1 MOL1         0.0794
      83    O20     20.221650   24.554636   18.907834 O.3        1 MOL1        -0.5486
      84    H40     19.350701   24.642952   19.359769 H          1 MOL1         0.3769
      85    C25     25.013518   17.550574   21.075284 C.3        1 MOL1         0.2972
      86    H41     25.712372   16.777484   20.730851 H          1 MOL1         0.0751
      87    O21     23.885485   16.975020   21.759484 O.3        1 MOL1        -0.3740
      88    C26     25.710310   18.492310   22.091743 C.3        1 MOL1         0.1003
      89    H42     26.596917   18.914091   21.600811 H          1 MOL1         0.0783
      90    O22     26.113270   17.753531   23.256449 O.3        1 MOL1        -0.5519
      91    H43     25.375382   17.127812   23.456827 H          1 MOL1         0.3769
      92    C27     24.779997   19.664217   22.497874 C.3        1 MOL1         0.1053
      93    H44     23.939940   19.255085   23.076462 H          1 MOL1         0.0783
      94    O23     25.510654   20.602531   23.295613 O.3        1 MOL1        -0.5519
      95    H45     25.993752   20.056753   23.955389 H          1 MOL1         0.3769
      96    C28     24.204720   20.367486   21.245974 C.3        1 MOL1         0.1018
      97    H46     25.028104   20.868598   20.720057 H          1 MOL1         0.0783
      98    C29     23.546360   19.345447   20.282831 C.3        1 MOL1         0.1043
      99    H47     22.694794   18.873398   20.790929 H          1 MOL1         0.0783
     100    O24     24.540966   18.343660   19.963882 O.3        1 MOL1        -0.3740
     101    C30     23.019369   19.948122   18.954931 C.3        1 MOL1         0.0138
     102    H48     22.004901   20.329534   19.120876 H          1 MOL1         0.0794
     103    H49     22.931090   19.139825   18.217183 H          1 MOL1         0.0794
     104    O25     23.849161   20.999675   18.444735 O.3        1 MOL1        -0.5486
     105    H50     23.621321   21.811872   18.953500 H          1 MOL1         0.3769
     106    C31     21.422948   13.646017   21.665622 C.3        1 MOL1         0.2972
     107    H51     20.990110   12.640141   21.593410 H          1 MOL1         0.0751
     108    O26     20.407425   14.642295   21.884593 O.3        1 MOL1        -0.3740
     109    C32     22.413715   13.699412   22.851427 C.3        1 MOL1         0.1003
     110    H52     23.196136   12.952376   22.664982 H          1 MOL1         0.0783
     111    O27     21.731663   13.383940   24.075704 O.3        1 MOL1        -0.5519
     112    H53     20.807950   13.721467   23.975145 H          1 MOL1         0.3769
     113    C33     23.089102   15.086688   22.951550 C.3        1 MOL1         0.1053
     114    H54     22.325776   15.806945   23.267964 H          1 MOL1         0.0783
     115    O28     24.132806   15.038696   23.931558 O.3        1 MOL1        -0.5519
     116    H55     23.725916   14.610972   24.717147 H          1 MOL1         0.3769
     117    C34     23.667200   15.559446   21.593054 C.3        1 MOL1         0.1018
     118    H56     24.607846   15.021541   21.417437 H          1 MOL1         0.0783
     119    C35     22.685589   15.324994   20.404962 C.3        1 MOL1         0.1043
     120    H57     21.871142   16.056611   20.493497 H          1 MOL1         0.0783
     121    O29     22.142132   13.980286   20.464283 O.3        1 MOL1        -0.3740
     122    C36     23.312092   15.492267   18.998991 C.3        1 MOL1         0.0138
     123    H58     23.407375   16.560871   18.776370 H          1 MOL1         0.0794
     124    H59     22.615107   15.080082   18.257129 H          1 MOL1         0.0794
     125    O30     24.587074   14.845773   18.889724 O.3        1 MOL1        -0.5486
     126    H60     24.900953   14.963209   17.966976 H          1 MOL1         0.3769
     127    C1      19.804169   19.254985   20.309595 C.2        1 MOL1         0.6021
     128    O1      20.326009   18.192030   20.031324 O.co2      1 MOL1        -0.6904
     129    O2      19.342106   20.008709   19.473973 O.co2      1 MOL1        -0.6904
     130    C2      19.749106   19.720356   21.769233 C.3        1 MOL1        -0.2102
     131    H1      19.074522   20.581493   21.805563 H          1 MOL1         0.0687
     132    H2      20.741500   20.086922   22.050854 H          1 MOL1         0.0687
     133    C3      19.257716   18.677001   22.803813 C.3        1 MOL1        -0.1974
     134    H3      18.856865   19.201226   23.681583 H          1 MOL1         0.0689
     135    H4      18.432697   18.092778   22.380598 H          1 MOL1         0.0689
     136    C4      20.390104   17.740138   23.262940 C.3        1 MOL1        -0.2987
     137    H5      21.196784   18.304202   23.748214 H          1 MOL1         0.0700
     138    H6      20.017738   16.992922   23.974619 H          1 MOL1         0.0700
     139    H7      20.816177   17.212404   22.402343 H          1 MOL1         0.0700
@<TRIPOS>BOND
    1     1     2    1
    2     1     3    1
    3     1     4    1
    4     4     5    1
    5     4     6    1
    6     6     7    1
    7     4     8    1
    8     8     9    1
    9     8    10    1
   10    10    11    1
   11     8    12    1
   12    12    13    1
   13    12    14    1
   14    14    15    1
   15     1    16    1
   16    14    16    1
   17    14    17    1
   18    17    18    1
   19    17    19    1
   20    17    20    1
   21    20    21    1
   22    22    23    1
   23    22    24    1
   24    22    25    1
   25    25    26    1
   26    25    27    1
   27    27    28    1
   28    25    29    1
   29    29    30    1
   30    29    31    1
   31    31    32    1
   32     3    33    1
   33    29    33    1
   34    33    34    1
   35    33    35    1
   36    35    36    1
   37    22    37    1
   38    35    37    1
   39    35    38    1
   40    38    39    1
   41    38    40    1
   42    38    41    1
   43    41    42    1
   44    43    44    1
   45    43    45    1
   46    43    46    1
   47    46    47    1
   48    46    48    1
   49    48    49    1
   50    46    50    1
   51    50    51    1
   52    50    52    1
   53    52    53    1
   54    24    54    1
   55    50    54    1
   56    54    55    1
   57    54    56    1
   58    56    57    1
   59    43    58    1
   60    56    58    1
   61    56    59    1
   62    59    60    1
   63    59    61    1
   64    59    62    1
   65    62    63    1
   66    64    65    1
   67    64    66    1
   68    64    67    1
   69    67    68    1
   70    67    69    1
   71    69    70    1
   72    67    71    1
   73    71    72    1
   74    71    73    1
   75    73    74    1
   76    45    75    1
   77    71    75    1
   78    75    76    1
   79    75    77    1
   80    77    78    1
   81    64    79    1
   82    77    79    1
   83    77    80    1
   84    80    81    1
   85    80    82    1
   86    80    83    1
   87    83    84    1
   88    85    86    1
   89    85    87    1
   90    85    88    1
   91    88    89    1
   92    88    90    1
   93    90    91    1
   94    88    92    1
   95    92    93    1
   96    92    94    1
   97    94    95    1
   98    66    96    1
   99    92    96    1
  100    96    97    1
  101    96    98    1
  102    98    99    1
  103    85   100    1
  104    98   100    1
  105    98   101    1
  106   101   102    1
  107   101   103    1
  108   101   104    1
  109   104   105    1
  110   106   107    1
  111    12   108    1
  112   106   108    1
  113   106   109    1
  114   109   110    1
  115   109   111    1
  116   111   112    1
  117   109   113    1
  118   113   114    1
  119   113   115    1
  120   115   116    1
  121    87   117    1
  122   113   117    1
  123   117   118    1
  124   117   119    1
  125   119   120    1
  126   106   121    1
  127   119   121    1
  128   119   122    1
  129   122   123    1
  130   122   124    1
  131   122   125    1
  132   125   126    1
  133   127   128    1
  134   127   129    2
  135   127   130    1
  136   130   131    1
  137   130   132    1
  138   130   133    1
  139   133   134    1
  140   133   135    1
  141   133   136    1
  142   136   137    1
  143   136   138    1
  144   136   139    1
@<TRIPOS>SUBSTRUCTURE
       1 MOL1            1 RESIDUE      1      MOL     
       2 MOL1          139 RESIDUE      1      MOL     
@<SCITEGIC>MOL_PROPERTY
feprocess Rank
SciTegic.value.IntegerValue
87

@<SCITEGIC>MOL_PROPERTY
Conf_Id
SciTegic.value.IntegerValue
180

@<SCITEGIC>MOL_PROPERTY
Probability
SciTegic.value.DoubleValue
0.00

@<SCITEGIC>MOL_PROPERTY
G
SciTegic.value.DoubleValue
496.163

@<SCITEGIC>MOL_PROPERTY
E
SciTegic.value.DoubleValue
320.117

@<SCITEGIC>MOL_PROPERTY
-TS
SciTegic.value.DoubleValue
176.045

@<SCITEGIC>MOL_PROPERTY
U+W
SciTegic.value.DoubleValue
197.606

@<SCITEGIC>MOL_PROPERTY
U
SciTegic.value.DoubleValue
264.908

@<SCITEGIC>MOL_PROPERTY
W
SciTegic.value.DoubleValue
-67.302

@<SCITEGIC>MOL_PROPERTY
W(PB)
SciTegic.value.DoubleValue
-73.159

@<SCITEGIC>MOL_PROPERTY
W(SA)
SciTegic.value.DoubleValue
5.858

@<SCITEGIC>MOL_PROPERTY
Valence
SciTegic.value.DoubleValue
155.551

@<SCITEGIC>MOL_PROPERTY
Coulomb
SciTegic.value.DoubleValue
137.390

@<SCITEGIC>MOL_PROPERTY
VdW
SciTegic.value.DoubleValue
-28.034

@<SCITEGIC>MOL_PROPERTY
VdW6
SciTegic.value.DoubleValue
-180.916

@<SCITEGIC>MOL_PROPERTY
VdW12
SciTegic.value.DoubleValue
152.882

@<SCITEGIC>MOL_PROPERTY
Bond
SciTegic.value.DoubleValue
4.441

@<SCITEGIC>MOL_PROPERTY
Angle
SciTegic.value.DoubleValue
13.645

@<SCITEGIC>MOL_PROPERTY
Pdih
SciTegic.value.DoubleValue
137.462

@<SCITEGIC>MOL_PROPERTY
Idih
SciTegic.value.DoubleValue
0.003

@<SCITEGIC>MOL_PROPERTY
Tether
SciTegic.value.DoubleValue
0.000

@<TRIPOS>MOLECULE
CD_guest-6_fast_vm2_rndm.mol2 : feprocess host+ligand conformer 88
         139         144           2
SMALL
USER_CHARGES
 
@<TRIPOS>ATOM
       1    C1      16.092436   15.194449   20.789942 C.3        1 MOL1         0.2972
       2    H1      15.083464   14.984017   20.413591 H          1 MOL1         0.0751
       3    O1      16.129644   16.435217   21.516189 O.3        1 MOL1        -0.3740
       4    C2      16.524941   14.082996   21.780157 C.3        1 MOL1         0.1003
       5    H2      16.466163   13.123285   21.250528 H          1 MOL1         0.0783
       6    O2      15.640835   14.060654   22.912000 O.3        1 MOL1        -0.5519
       7    H3      15.445865   15.004775   23.126263 H          1 MOL1         0.3769
       8    C3      17.986859   14.286840   22.247757 C.3        1 MOL1         0.1053
       9    H4      18.031025   15.197500   22.860939 H          1 MOL1         0.0783
      10    O3      18.404346   13.156451   23.021809 O.3        1 MOL1        -0.5519
      11    H5      17.667867   12.991153   23.651561 H          1 MOL1         0.3769
      12    C4      18.927474   14.476874   21.035820 C.3        1 MOL1         0.1018
      13    H6      18.974980   13.530658   20.480886 H          1 MOL1         0.0783
      14    C5      18.405688   15.591246   20.087503 C.3        1 MOL1         0.1043
      15    H7      18.411688   16.548083   20.626730 H          1 MOL1         0.0783
      16    O4      17.046710   15.252424   19.705793 O.3        1 MOL1        -0.3740
      17    C6      19.243955   15.792345   18.798706 C.3        1 MOL1         0.0138
      18    H8      20.065188   16.484284   19.022324 H          1 MOL1         0.0794
      19    H9      18.617601   16.286499   18.045270 H          1 MOL1         0.0794
      20    O5      19.773136   14.568410   18.273870 O.3        1 MOL1        -0.5486
      21    H10     20.579165   14.362002   18.801614 H          1 MOL1         0.3769
      22    C7      14.577884   20.306243   21.388012 C.3        1 MOL1         0.2972
      23    H11     13.930705   21.182789   21.257560 H          1 MOL1         0.0751
      24    O6      15.896147   20.685360   21.832493 O.3        1 MOL1        -0.3740
      25    C8      13.968018   19.367255   22.455009 C.3        1 MOL1         0.1003
      26    H12     12.961691   19.088822   22.116192 H          1 MOL1         0.0783
      27    O7      13.877556   20.050566   23.715578 O.3        1 MOL1        -0.5519
      28    H13     14.676160   20.630132   23.776838 H          1 MOL1         0.3769
      29    C9      14.799673   18.071248   22.603268 C.3        1 MOL1         0.1053
      30    H14     15.755919   18.341238   23.069386 H          1 MOL1         0.0783
      31    O8      14.095756   17.152305   23.447104 O.3        1 MOL1        -0.5519
      32    H15     13.828742   17.678293   24.232879 H          1 MOL1         0.3769
      33    C10     15.101072   17.406731   21.234318 C.3        1 MOL1         0.1018
      34    H16     14.180449   16.930687   20.872555 H          1 MOL1         0.0783
      35    C11     15.610157   18.446090   20.189352 C.3        1 MOL1         0.1043
      36    H17     16.598002   18.794470   20.512698 H          1 MOL1         0.0783
      37    O9      14.693733   19.569471   20.154862 O.3        1 MOL1        -0.3740
      38    C12     15.771652   17.936364   18.735511 C.3        1 MOL1         0.0138
      39    H18     16.786957   17.538283   18.620005 H          1 MOL1         0.0794
      40    H19     15.697764   18.794494   18.054862 H          1 MOL1         0.0794
      41    O10     14.806628   16.943853   18.370038 O.3        1 MOL1        -0.5486
      42    H20     15.245803   16.074128   18.496873 H          1 MOL1         0.3769
      43    C13     18.510496   23.980104   21.452394 C.3        1 MOL1         0.2972
      44    H21     18.853705   25.007594   21.276088 H          1 MOL1         0.0751
      45    O11     19.618484   23.100962   21.722444 O.3        1 MOL1        -0.3740
      46    C14     17.564167   23.959801   22.679969 C.3        1 MOL1         0.1003
      47    H22     16.754331   24.673630   22.480718 H          1 MOL1         0.0783
      48    O12     18.274451   24.368425   23.859783 O.3        1 MOL1        -0.5519
      49    H23     19.223303   24.139540   23.707862 H          1 MOL1         0.3769
      50    C15     16.925089   22.565421   22.887307 C.3        1 MOL1         0.1053
      51    H24     17.715423   21.863404   23.188076 H          1 MOL1         0.0783
      52    O13     15.927106   22.649606   23.911910 O.3        1 MOL1        -0.5519
      53    H25     16.359958   23.132761   24.650226 H          1 MOL1         0.3769
      54    C16     16.292659   22.047729   21.573790 C.3        1 MOL1         0.1018
      55    H26     15.430578   22.682844   21.331190 H          1 MOL1         0.0783
      56    C17     17.325627   22.109214   20.412150 C.3        1 MOL1         0.1043
      57    H27     18.161037   21.444042   20.664042 H          1 MOL1         0.0783
      58    O14     17.805315   23.474122   20.299624 O.3        1 MOL1        -0.3740
      59    C18     16.807447   21.679858   19.017844 C.3        1 MOL1         0.0138
      60    H28     16.910832   20.591472   18.932611 H          1 MOL1         0.0794
      61    H29     17.462218   22.115718   18.252100 H          1 MOL1         0.0794
      62    O15     15.450253   22.066575   18.776735 O.3        1 MOL1        -0.5486
      63    H30     14.892445   21.326261   19.108634 H          1 MOL1         0.3769
      64    C19     23.693393   22.678040   20.910077 C.3        1 MOL1         0.2972
      65    H31     24.725776   22.805047   20.559569 H          1 MOL1         0.0751
      66    O16     23.491992   21.401948   21.543640 O.3        1 MOL1        -0.3740
      67    C20     23.328024   23.754756   21.962452 C.3        1 MOL1         0.1003
      68    H32     23.443192   24.737636   21.487434 H          1 MOL1         0.0783
      69    O17     24.203036   23.666549   23.099604 O.3        1 MOL1        -0.5519
      70    H33     24.276767   22.707385   23.335682 H          1 MOL1         0.3769
      71    C21     21.851590   23.602761   22.410183 C.3        1 MOL1         0.1053
      72    H34     21.760437   22.663706   22.973774 H          1 MOL1         0.0783
      73    O18     21.489068   24.704949   23.249045 O.3        1 MOL1        -0.5519
      74    H35     22.229429   24.795207   23.889303 H          1 MOL1         0.3769
      75    C22     20.892231   23.526006   21.195736 C.3        1 MOL1         0.1018
      76    H36     20.838154   24.522008   20.736934 H          1 MOL1         0.0783
      77    C23     21.383470   22.502396   20.131571 C.3        1 MOL1         0.1043
      78    H37     21.324238   21.499714   20.561441 H          1 MOL1         0.0783
      79    O19     22.764286   22.795775   19.810468 O.3        1 MOL1        -0.3740
      80    C24     20.571904   22.457411   18.813506 C.3        1 MOL1         0.0138
      81    H38     19.742976   21.749761   18.942250 H          1 MOL1         0.0794
      82    H39     21.214031   22.043815   18.024569 H          1 MOL1         0.0794
      83    O20     20.065934   23.737696   18.417952 O.3        1 MOL1        -0.5486
      84    H40     19.241692   23.885955   18.937505 H          1 MOL1         0.3769
      85    C25     25.155811   17.636696   21.914269 C.3        1 MOL1         0.2972
      86    H41     25.823674   16.768258   21.979820 H          1 MOL1         0.0751
      87    O21     23.771627   17.247697   21.990398 O.3        1 MOL1        -0.3740
      88    C26     25.439222   18.600075   23.091382 C.3        1 MOL1         0.1003
      89    H42     26.484838   18.925088   23.013045 H          1 MOL1         0.0783
      90    O22     25.240464   17.924203   24.343493 O.3        1 MOL1        -0.5519
      91    H43     24.555256   17.229620   24.183777 H          1 MOL1         0.3769
      92    C27     24.537784   19.852894   23.003125 C.3        1 MOL1         0.1053
      93    H44     23.499987   19.537085   23.177098 H          1 MOL1         0.0783
      94    O23     24.928845   20.800130   24.004025 O.3        1 MOL1        -0.5519
      95    H45     25.014155   20.275322   24.830928 H          1 MOL1         0.3769
      96    C28     24.616767   20.509935   21.604190 C.3        1 MOL1         0.1018
      97    H46     25.572294   21.044590   21.522322 H          1 MOL1         0.0783
      98    C29     24.474930   19.476107   20.451014 C.3        1 MOL1         0.1043
      99    H47     23.435707   19.124110   20.443394 H          1 MOL1         0.0783
     100    O24     25.361826   18.349188   20.677160 O.3        1 MOL1        -0.3740
     101    C30     24.772868   20.053158   19.047011 C.3        1 MOL1         0.0138
     102    H48     23.939687   20.705713   18.754669 H          1 MOL1         0.0794
     103    H49     24.800221   19.224555   18.326834 H          1 MOL1         0.0794
     104    O25     26.005242   20.784715   19.013255 O.3        1 MOL1        -0.5486
     105    H50     26.154761   21.072144   18.086393 H          1 MOL1         0.3769
     106    C31     21.297487   13.954673   21.277200 C.3        1 MOL1         0.2972
     107    H51     20.931718   12.951771   21.022262 H          1 MOL1         0.0751
     108    O26     20.211697   14.855645   21.563472 O.3        1 MOL1        -0.3740
     109    C32     22.196278   13.873678   22.536206 C.3        1 MOL1         0.1003
     110    H52     23.023343   13.188947   22.307850 H          1 MOL1         0.0783
     111    O27     21.450292   13.360498   23.651538 O.3        1 MOL1        -0.5519
     112    H53     20.498548   13.567293   23.476736 H          1 MOL1         0.3769
     113    C33     22.801590   15.255201   22.878105 C.3        1 MOL1         0.1053
     114    H54     21.986540   15.917299   23.198355 H          1 MOL1         0.0783
     115    O28     23.753253   15.113359   23.938722 O.3        1 MOL1        -0.5519
     116    H55     23.303865   14.552234   24.609381 H          1 MOL1         0.3769
     117    C34     23.481332   15.883048   21.637988 C.3        1 MOL1         0.1018
     118    H56     24.391392   15.310893   21.414949 H          1 MOL1         0.0783
     119    C35     22.547208   15.865024   20.395184 C.3        1 MOL1         0.1043
     120    H57     21.698098   16.529331   20.598255 H          1 MOL1         0.0783
     121    O29     22.066296   14.511004   20.188844 O.3        1 MOL1        -0.3740
     122    C36     23.198725   16.350671   19.074761 C.3        1 MOL1         0.0138
     123    H58     23.086890   17.439436   19.009975 H          1 MOL1         0.0794
     124    H59     22.635512   15.929132   18.231780 H          1 MOL1         0.0794
     125    O30     24.584137   16.002906   18.966380 O.3        1 MOL1        -0.5486
     126    H60     25.083109   16.683354   19.475227 H          1 MOL1         0.3769
     127    C1      20.104335   19.066709   20.354793 C.2        1 MOL1         0.6021
     128    O1      21.045770   18.804109   19.631498 O.co2      1 MOL1        -0.6904
     129    O2      18.961637   19.169733   19.952243 O.co2      1 MOL1        -0.6904
     130    C2      20.409785   19.393562   21.819173 C.3        1 MOL1        -0.2102
     131    H1      19.900131   20.326887   22.083276 H          1 MOL1         0.0687
     132    H2      21.484636   19.589833   21.888876 H          1 MOL1         0.0687
     133    C3      20.049161   18.281136   22.832722 C.3        1 MOL1        -0.1974
     134    H3      20.332059   17.306645   22.420576 H          1 MOL1         0.0689
     135    H4      20.636938   18.421873   23.749639 H          1 MOL1         0.0689
     136    C4      18.553185   18.285453   23.194670 C.3        1 MOL1        -0.2987
     137    H5      17.945190   18.169668   22.292083 H          1 MOL1         0.0700
     138    H6      18.312866   17.463179   23.880067 H          1 MOL1         0.0700
     139    H7      18.266988   19.229441   23.675891 H          1 MOL1         0.0700
@<TRIPOS>BOND
    1     1     2    1
    2     1     3    1
    3     1     4    1
    4     4     5    1
    5     4     6    1
    6     6     7    1
    7     4     8    1
    8     8     9    1
    9     8    10    1
   10    10    11    1
   11     8    12    1
   12    12    13    1
   13    12    14    1
   14    14    15    1
   15     1    16    1
   16    14    16    1
   17    14    17    1
   18    17    18    1
   19    17    19    1
   20    17    20    1
   21    20    21    1
   22    22    23    1
   23    22    24    1
   24    22    25    1
   25    25    26    1
   26    25    27    1
   27    27    28    1
   28    25    29    1
   29    29    30    1
   30    29    31    1
   31    31    32    1
   32     3    33    1
   33    29    33    1
   34    33    34    1
   35    33    35    1
   36    35    36    1
   37    22    37    1
   38    35    37    1
   39    35    38    1
   40    38    39    1
   41    38    40    1
   42    38    41    1
   43    41    42    1
   44    43    44    1
   45    43    45    1
   46    43    46    1
   47    46    47    1
   48    46    48    1
   49    48    49    1
   50    46    50    1
   51    50    51    1
   52    50    52    1
   53    52    53    1
   54    24    54    1
   55    50    54    1
   56    54    55    1
   57    54    56    1
   58    56    57    1
   59    43    58    1
   60    56    58    1
   61    56    59    1
   62    59    60    1
   63    59    61    1
   64    59    62    1
   65    62    63    1
   66    64    65    1
   67    64    66    1
   68    64    67    1
   69    67    68    1
   70    67    69    1
   71    69    70    1
   72    67    71    1
   73    71    72    1
   74    71    73    1
   75    73    74    1
   76    45    75    1
   77    71    75    1
   78    75    76    1
   79    75    77    1
   80    77    78    1
   81    64    79    1
   82    77    79    1
   83    77    80    1
   84    80    81    1
   85    80    82    1
   86    80    83    1
   87    83    84    1
   88    85    86    1
   89    85    87    1
   90    85    88    1
   91    88    89    1
   92    88    90    1
   93    90    91    1
   94    88    92    1
   95    92    93    1
   96    92    94    1
   97    94    95    1
   98    66    96    1
   99    92    96    1
  100    96    97    1
  101    96    98    1
  102    98    99    1
  103    85   100    1
  104    98   100    1
  105    98   101    1
  106   101   102    1
  107   101   103    1
  108   101   104    1
  109   104   105    1
  110   106   107    1
  111    12   108    1
  112   106   108    1
  113   106   109    1
  114   109   110    1
  115   109   111    1
  116   111   112    1
  117   109   113    1
  118   113   114    1
  119   113   115    1
  120   115   116    1
  121    87   117    1
  122   113   117    1
  123   117   118    1
  124   117   119    1
  125   119   120    1
  126   106   121    1
  127   119   121    1
  128   119   122    1
  129   122   123    1
  130   122   124    1
  131   122   125    1
  132   125   126    1
  133   127   128    1
  134   127   129    2
  135   127   130    1
  136   130   131    1
  137   130   132    1
  138   130   133    1
  139   133   134    1
  140   133   135    1
  141   133   136    1
  142   136   137    1
  143   136   138    1
  144   136   139    1
@<TRIPOS>SUBSTRUCTURE
       1 MOL1            1 RESIDUE      1      MOL     
       2 MOL1          139 RESIDUE      1      MOL     
@<SCITEGIC>MOL_PROPERTY
feprocess Rank
SciTegic.value.IntegerValue
88

@<SCITEGIC>MOL_PROPERTY
Conf_Id
SciTegic.value.IntegerValue
835

@<SCITEGIC>MOL_PROPERTY
Probability
SciTegic.value.DoubleValue
0.00

@<SCITEGIC>MOL_PROPERTY
G
SciTegic.value.DoubleValue
496.774

@<SCITEGIC>MOL_PROPERTY
E
SciTegic.value.DoubleValue
320.676

@<SCITEGIC>MOL_PROPERTY
-TS
SciTegic.value.DoubleValue
176.098

@<SCITEGIC>MOL_PROPERTY
U+W
SciTegic.value.DoubleValue
198.164

@<SCITEGIC>MOL_PROPERTY
U
SciTegic.value.DoubleValue
264.571

@<SCITEGIC>MOL_PROPERTY
W
SciTegic.value.DoubleValue
-66.406

@<SCITEGIC>MOL_PROPERTY
W(PB)
SciTegic.value.DoubleValue
-72.234

@<SCITEGIC>MOL_PROPERTY
W(SA)
SciTegic.value.DoubleValue
5.827

@<SCITEGIC>MOL_PROPERTY
Valence
SciTegic.value.DoubleValue
156.874

@<SCITEGIC>MOL_PROPERTY
Coulomb
SciTegic.value.DoubleValue
135.676

@<SCITEGIC>MOL_PROPERTY
VdW
SciTegic.value.DoubleValue
-27.980

@<SCITEGIC>MOL_PROPERTY
VdW6
SciTegic.value.DoubleValue
-181.364

@<SCITEGIC>MOL_PROPERTY
VdW12
SciTegic.value.DoubleValue
153.384

@<SCITEGIC>MOL_PROPERTY
Bond
SciTegic.value.DoubleValue
4.496

@<SCITEGIC>MOL_PROPERTY
Angle
SciTegic.value.DoubleValue
13.852

@<SCITEGIC>MOL_PROPERTY
Pdih
SciTegic.value.DoubleValue
138.509

@<SCITEGIC>MOL_PROPERTY
Idih
SciTegic.value.DoubleValue
0.018

@<SCITEGIC>MOL_PROPERTY
Tether
SciTegic.value.DoubleValue
0.000

@<TRIPOS>MOLECULE
CD_guest-6_fast_vm2_rndm.mol2 : feprocess host+ligand conformer 89
         139         144           2
SMALL
USER_CHARGES
 
@<TRIPOS>ATOM
       1    C1      16.261805   15.335795   21.031875 C.3        1 MOL1         0.2972
       2    H1      15.222809   15.181156   20.713941 H          1 MOL1         0.0751
       3    O1      16.433538   16.617558   21.663538 O.3        1 MOL1        -0.3740
       4    C2      16.672869   14.258591   22.069942 C.3        1 MOL1         0.1003
       5    H2      16.484040   13.276291   21.617932 H          1 MOL1         0.0783
       6    O2      15.885597   14.393994   23.265027 O.3        1 MOL1        -0.5519
       7    H3      15.827008   15.362922   23.455379 H          1 MOL1         0.3769
       8    C3      18.182571   14.345441   22.413301 C.3        1 MOL1         0.1053
       9    H4      18.355418   15.277586   22.969348 H          1 MOL1         0.0783
      10    O3      18.554510   13.220267   23.218533 O.3        1 MOL1        -0.5519
      11    H5      17.866990   13.167199   23.918734 H          1 MOL1         0.3769
      12    C4      19.047493   14.386810   21.130375 C.3        1 MOL1         0.1018
      13    H6      18.968511   13.415974   20.623824 H          1 MOL1         0.0783
      14    C5      18.550793   15.507409   20.176653 C.3        1 MOL1         0.1043
      15    H7      18.659029   16.475094   20.682996 H          1 MOL1         0.0783
      16    O4      17.153258   15.252853   19.898871 O.3        1 MOL1        -0.3740
      17    C6      19.294445   15.617326   18.822508 C.3        1 MOL1         0.0138
      18    H8      20.175666   16.255421   18.960147 H          1 MOL1         0.0794
      19    H9      18.642033   16.141380   18.111573 H          1 MOL1         0.0794
      20    O5      19.690762   14.346632   18.291852 O.3        1 MOL1        -0.5486
      21    H10     20.553559   14.128884   18.713649 H          1 MOL1         0.3769
      22    C7      14.672896   20.398322   21.655242 C.3        1 MOL1         0.2972
      23    H11     13.961643   21.234218   21.641633 H          1 MOL1         0.0751
      24    O6      16.032421   20.875120   21.669430 O.3        1 MOL1        -0.3740
      25    C8      14.443174   19.545824   22.927168 C.3        1 MOL1         0.1003
      26    H12     13.407456   19.182876   22.901500 H          1 MOL1         0.0783
      27    O7      14.638238   20.349112   24.101032 O.3        1 MOL1        -0.5519
      28    H13     15.339688   21.002597   23.871505 H          1 MOL1         0.3769
      29    C9      15.380710   18.316563   22.952809 C.3        1 MOL1         0.1053
      30    H14     16.409010   18.679751   23.077540 H          1 MOL1         0.0783
      31    O8      15.027024   17.467938   24.051792 O.3        1 MOL1        -0.5519
      32    H15     14.950685   18.069607   24.824968 H          1 MOL1         0.3769
      33    C10     15.305065   17.515284   21.631188 C.3        1 MOL1         0.1018
      34    H16     14.353049   16.968632   21.614346 H          1 MOL1         0.0783
      35    C11     15.413979   18.438640   20.382610 C.3        1 MOL1         0.1043
      36    H17     16.440885   18.819812   20.343948 H          1 MOL1         0.0783
      37    O9      14.491251   19.553985   20.501070 O.3        1 MOL1        -0.3740
      38    C12     15.120663   17.738478   19.033716 C.3        1 MOL1         0.0138
      39    H18     15.984125   17.118615   18.763398 H          1 MOL1         0.0794
      40    H19     15.027511   18.506355   18.254432 H          1 MOL1         0.0794
      41    O10     13.931112   16.939704   19.084637 O.3        1 MOL1        -0.5486
      42    H20     13.783861   16.569745   18.187268 H          1 MOL1         0.3769
      43    C13     18.517622   23.937079   20.399392 C.3        1 MOL1         0.2972
      44    H21     18.992770   24.819277   19.951346 H          1 MOL1         0.0751
      45    O11     19.489255   23.043218   20.981839 O.3        1 MOL1        -0.3740
      46    C14     17.492388   24.339437   21.489253 C.3        1 MOL1         0.1003
      47    H22     16.698132   24.912276   20.993058 H          1 MOL1         0.0783
      48    O12     18.089077   25.158769   22.505419 O.3        1 MOL1        -0.5519
      49    H23     18.850819   24.649180   22.881909 H          1 MOL1         0.3769
      50    C15     16.850701   23.073854   22.108816 C.3        1 MOL1         0.1053
      51    H24     17.633397   22.520767   22.646823 H          1 MOL1         0.0783
      52    O13     15.819378   23.462160   23.022643 O.3        1 MOL1        -0.5519
      53    H25     16.209113   24.189504   23.556650 H          1 MOL1         0.3769
      54    C16     16.263085   22.141624   21.016587 C.3        1 MOL1         0.1018
      55    H26     15.330396   22.593441   20.654903 H          1 MOL1         0.0783
      56    C17     17.233587   21.930753   19.811928 C.3        1 MOL1         0.1043
      57    H27     18.053079   21.284691   20.137853 H          1 MOL1         0.0783
      58    O14     17.780509   23.207777   19.395082 O.3        1 MOL1        -0.3740
      59    C18     16.614850   21.249795   18.563657 C.3        1 MOL1         0.0138
      60    H28     16.778738   20.168465   18.640295 H          1 MOL1         0.0794
      61    H29     17.169554   21.581962   17.676206 H          1 MOL1         0.0794
      62    O15     15.217826   21.520750   18.397443 O.3        1 MOL1        -0.5486
      63    H30     14.741332   20.937759   19.033848 H          1 MOL1         0.3769
      64    C19     23.518467   22.677142   21.938294 C.3        1 MOL1         0.2972
      65    H31     24.579125   22.859938   22.153912 H          1 MOL1         0.0751
      66    O16     23.219079   21.270475   21.909817 O.3        1 MOL1        -0.3740
      67    C20     22.641889   23.329739   23.033545 C.3        1 MOL1         0.1003
      68    H32     22.846726   24.408191   23.021074 H          1 MOL1         0.0783
      69    O17     22.974028   22.799824   24.327196 O.3        1 MOL1        -0.5519
      70    H33     23.425312   21.932884   24.174073 H          1 MOL1         0.3769
      71    C21     21.138607   23.125574   22.733535 C.3        1 MOL1         0.1053
      72    H34     20.914091   22.054582   22.821628 H          1 MOL1         0.0783
      73    O18     20.373005   23.858841   23.693970 O.3        1 MOL1        -0.5519
      74    H35     20.785036   23.640048   24.560131 H          1 MOL1         0.3769
      75    C22     20.787357   23.584042   21.294489 C.3        1 MOL1         0.1018
      76    H36     20.795080   24.681652   21.260540 H          1 MOL1         0.0783
      77    C23     21.778235   23.008561   20.243567 C.3        1 MOL1         0.1043
      78    H37     21.596588   21.927949   20.170739 H          1 MOL1         0.0783
      79    O19     23.150712   23.237164   20.659728 O.3        1 MOL1        -0.3740
      80    C24     21.589846   23.601957   18.827282 C.3        1 MOL1         0.0138
      81    H38     20.644895   23.222758   18.414625 H          1 MOL1         0.0794
      82    H39     22.398537   23.233704   18.181711 H          1 MOL1         0.0794
      83    O20     21.574166   25.035081   18.841166 O.3        1 MOL1        -0.5486
      84    H40     21.525130   25.341329   17.909432 H          1 MOL1         0.3769
      85    C25     25.175241   17.576216   21.655270 C.3        1 MOL1         0.2972
      86    H41     25.940082   16.803213   21.507566 H          1 MOL1         0.0751
      87    O21     23.892157   16.992212   21.952420 O.3        1 MOL1        -0.3740
      88    C26     25.558706   18.467441   22.864736 C.3        1 MOL1         0.1003
      89    H42     26.542692   18.907099   22.656122 H          1 MOL1         0.0783
      90    O22     25.633998   17.672824   24.058616 O.3        1 MOL1        -0.5519
      91    H43     24.932269   16.983524   23.975018 H          1 MOL1         0.3769
      92    C27     24.544852   19.623159   23.050762 C.3        1 MOL1         0.1053
      93    H44     23.578822   19.190712   23.345743 H          1 MOL1         0.0783
      94    O23     25.010866   20.513301   24.070508 O.3        1 MOL1        -0.5519
      95    H45     25.300320   19.928945   24.806439 H          1 MOL1         0.3769
      96    C28     24.343019   20.391859   21.724298 C.3        1 MOL1         0.1018
      97    H46     25.263156   20.942073   21.487038 H          1 MOL1         0.0783
      98    C29     24.016200   19.424728   20.556978 C.3        1 MOL1         0.1043
      99    H47     23.057789   18.941156   20.778700 H          1 MOL1         0.0783
     100    O24     25.053670   18.412771   20.482289 O.3        1 MOL1        -0.3740
     101    C30     23.874885   20.109772   19.172364 C.3        1 MOL1         0.0138
     102    H48     22.828276   20.415583   19.045567 H          1 MOL1         0.0794
     103    H49     24.081932   19.368029   18.390245 H          1 MOL1         0.0794
     104    O25     24.733836   21.246015   19.011192 O.3        1 MOL1        -0.5486
     105    H50     24.341647   21.979446   19.540169 H          1 MOL1         0.3769
     106    C31     21.418973   13.764690   21.083267 C.3        1 MOL1         0.2972
     107    H51     20.998322   12.800739   20.769984 H          1 MOL1         0.0751
     108    O26     20.395583   14.661590   21.555508 O.3        1 MOL1        -0.3740
     109    C32     22.419076   13.545463   22.242270 C.3        1 MOL1         0.1003
     110    H52     23.210515   12.877721   21.877903 H          1 MOL1         0.0783
     111    O27     21.753217   12.934431   23.359255 O.3        1 MOL1        -0.5519
     112    H53     20.826993   13.281791   23.359624 H          1 MOL1         0.3769
     113    C33     23.074455   14.880387   22.668303 C.3        1 MOL1         0.1053
     114    H54     22.301065   15.498944   23.141251 H          1 MOL1         0.0783
     115    O28     24.117941   14.616709   23.612824 O.3        1 MOL1        -0.5519
     116    H55     23.720562   14.000753   24.267468 H          1 MOL1         0.3769
     117    C34     23.644353   15.661109   21.455710 C.3        1 MOL1         0.1018
     118    H56     24.568288   15.163858   21.133297 H          1 MOL1         0.0783
     119    C35     22.636407   15.725393   20.266683 C.3        1 MOL1         0.1043
     120    H57     21.806484   16.379904   20.557724 H          1 MOL1         0.0783
     121    O29     22.124215   14.394941   19.994457 O.3        1 MOL1        -0.3740
     122    C36     23.198000   16.290470   18.937525 C.3        1 MOL1         0.0138
     123    H58     23.037535   17.374505   18.927742 H          1 MOL1         0.0794
     124    H59     22.606069   15.883374   18.107173 H          1 MOL1         0.0794
     125    O30     24.586515   16.003261   18.737952 O.3        1 MOL1        -0.5486
     126    H60     25.082413   16.720287   19.195157 H          1 MOL1         0.3769
     127    C1      19.888863   18.969066   20.222528 C.2        1 MOL1         0.6021
     128    O1      20.925446   18.633803   19.683162 O.co2      1 MOL1        -0.6904
     129    O2      18.798655   18.880553   19.691102 O.co2      1 MOL1        -0.6904
     130    C2      19.965673   19.593059   21.617418 C.3        1 MOL1        -0.2102
     131    H1      19.383403   20.515801   21.596507 H          1 MOL1         0.0687
     132    H2      21.002190   19.881096   21.817440 H          1 MOL1         0.0687
     133    C3      19.427568   18.701539   22.762706 C.3        1 MOL1        -0.1974
     134    H3      19.143408   19.334837   23.613691 H          1 MOL1         0.0689
     135    H4      18.517502   18.188234   22.429077 H          1 MOL1         0.0689
     136    C4      20.468577   17.671587   23.233077 C.3        1 MOL1        -0.2987
     137    H5      21.351286   18.167796   23.655581 H          1 MOL1         0.0700
     138    H6      20.046304   17.008428   23.998523 H          1 MOL1         0.0700
     139    H7      20.795906   17.058495   22.389757 H          1 MOL1         0.0700
@<TRIPOS>BOND
    1     1     2    1
    2     1     3    1
    3     1     4    1
    4     4     5    1
    5     4     6    1
    6     6     7    1
    7     4     8    1
    8     8     9    1
    9     8    10    1
   10    10    11    1
   11     8    12    1
   12    12    13    1
   13    12    14    1
   14    14    15    1
   15     1    16    1
   16    14    16    1
   17    14    17    1
   18    17    18    1
   19    17    19    1
   20    17    20    1
   21    20    21    1
   22    22    23    1
   23    22    24    1
   24    22    25    1
   25    25    26    1
   26    25    27    1
   27    27    28    1
   28    25    29    1
   29    29    30    1
   30    29    31    1
   31    31    32    1
   32     3    33    1
   33    29    33    1
   34    33    34    1
   35    33    35    1
   36    35    36    1
   37    22    37    1
   38    35    37    1
   39    35    38    1
   40    38    39    1
   41    38    40    1
   42    38    41    1
   43    41    42    1
   44    43    44    1
   45    43    45    1
   46    43    46    1
   47    46    47    1
   48    46    48    1
   49    48    49    1
   50    46    50    1
   51    50    51    1
   52    50    52    1
   53    52    53    1
   54    24    54    1
   55    50    54    1
   56    54    55    1
   57    54    56    1
   58    56    57    1
   59    43    58    1
   60    56    58    1
   61    56    59    1
   62    59    60    1
   63    59    61    1
   64    59    62    1
   65    62    63    1
   66    64    65    1
   67    64    66    1
   68    64    67    1
   69    67    68    1
   70    67    69    1
   71    69    70    1
   72    67    71    1
   73    71    72    1
   74    71    73    1
   75    73    74    1
   76    45    75    1
   77    71    75    1
   78    75    76    1
   79    75    77    1
   80    77    78    1
   81    64    79    1
   82    77    79    1
   83    77    80    1
   84    80    81    1
   85    80    82    1
   86    80    83    1
   87    83    84    1
   88    85    86    1
   89    85    87    1
   90    85    88    1
   91    88    89    1
   92    88    90    1
   93    90    91    1
   94    88    92    1
   95    92    93    1
   96    92    94    1
   97    94    95    1
   98    66    96    1
   99    92    96    1
  100    96    97    1
  101    96    98    1
  102    98    99    1
  103    85   100    1
  104    98   100    1
  105    98   101    1
  106   101   102    1
  107   101   103    1
  108   101   104    1
  109   104   105    1
  110   106   107    1
  111    12   108    1
  112   106   108    1
  113   106   109    1
  114   109   110    1
  115   109   111    1
  116   111   112    1
  117   109   113    1
  118   113   114    1
  119   113   115    1
  120   115   116    1
  121    87   117    1
  122   113   117    1
  123   117   118    1
  124   117   119    1
  125   119   120    1
  126   106   121    1
  127   119   121    1
  128   119   122    1
  129   122   123    1
  130   122   124    1
  131   122   125    1
  132   125   126    1
  133   127   128    1
  134   127   129    2
  135   127   130    1
  136   130   131    1
  137   130   132    1
  138   130   133    1
  139   133   134    1
  140   133   135    1
  141   133   136    1
  142   136   137    1
  143   136   138    1
  144   136   139    1
@<TRIPOS>SUBSTRUCTURE
       1 MOL1            1 RESIDUE      1      MOL     
       2 MOL1          139 RESIDUE      1      MOL     
@<SCITEGIC>MOL_PROPERTY
feprocess Rank
SciTegic.value.IntegerValue
89

@<SCITEGIC>MOL_PROPERTY
Conf_Id
SciTegic.value.IntegerValue
544

@<SCITEGIC>MOL_PROPERTY
Probability
SciTegic.value.DoubleValue
0.00

@<SCITEGIC>MOL_PROPERTY
G
SciTegic.value.DoubleValue
496.841

@<SCITEGIC>MOL_PROPERTY
E
SciTegic.value.DoubleValue
320.372

@<SCITEGIC>MOL_PROPERTY
-TS
SciTegic.value.DoubleValue
176.469

@<SCITEGIC>MOL_PROPERTY
U+W
SciTegic.value.DoubleValue
197.861

@<SCITEGIC>MOL_PROPERTY
U
SciTegic.value.DoubleValue
266.153

@<SCITEGIC>MOL_PROPERTY
W
SciTegic.value.DoubleValue
-68.292

@<SCITEGIC>MOL_PROPERTY
W(PB)
SciTegic.value.DoubleValue
-74.156

@<SCITEGIC>MOL_PROPERTY
W(SA)
SciTegic.value.DoubleValue
5.864

@<SCITEGIC>MOL_PROPERTY
Valence
SciTegic.value.DoubleValue
155.284

@<SCITEGIC>MOL_PROPERTY
Coulomb
SciTegic.value.DoubleValue
137.134

@<SCITEGIC>MOL_PROPERTY
VdW
SciTegic.value.DoubleValue
-26.265

@<SCITEGIC>MOL_PROPERTY
VdW6
SciTegic.value.DoubleValue
-179.560

@<SCITEGIC>MOL_PROPERTY
VdW12
SciTegic.value.DoubleValue
153.295

@<SCITEGIC>MOL_PROPERTY
Bond
SciTegic.value.DoubleValue
4.658

@<SCITEGIC>MOL_PROPERTY
Angle
SciTegic.value.DoubleValue
13.787

@<SCITEGIC>MOL_PROPERTY
Pdih
SciTegic.value.DoubleValue
136.833

@<SCITEGIC>MOL_PROPERTY
Idih
SciTegic.value.DoubleValue
0.005

@<SCITEGIC>MOL_PROPERTY
Tether
SciTegic.value.DoubleValue
0.000

@<TRIPOS>MOLECULE
CD_guest-6_fast_vm2_rndm.mol2 : feprocess host+ligand conformer 90
         139         144           2
SMALL
USER_CHARGES
 
@<TRIPOS>ATOM
       1    C1      16.023824   14.981949   21.409380 C.3        1 MOL1         0.2972
       2    H1      14.949963   14.832848   21.239468 H          1 MOL1         0.0751
       3    O1      16.310347   16.336272   21.807773 O.3        1 MOL1        -0.3740
       4    C2      16.506210   14.047436   22.543921 C.3        1 MOL1         0.1003
       5    H2      16.285808   13.015538   22.241246 H          1 MOL1         0.0783
       6    O2      15.804691   14.350784   23.760142 O.3        1 MOL1        -0.5519
       7    H3      15.667683   15.329454   23.763622 H          1 MOL1         0.3769
       8    C3      18.033812   14.169220   22.759098 C.3        1 MOL1         0.1053
       9    H4      18.235610   15.159176   23.187560 H          1 MOL1         0.0783
      10    O3      18.465276   13.154219   23.673101 O.3        1 MOL1        -0.5519
      11    H5      17.837618   13.204930   24.427464 H          1 MOL1         0.3769
      12    C4      18.821296   14.049838   21.428985 C.3        1 MOL1         0.1018
      13    H6      18.811531   12.996458   21.120139 H          1 MOL1         0.0783
      14    C5      18.203792   14.936649   20.305902 C.3        1 MOL1         0.1043
      15    H7      18.364559   15.986443   20.578223 H          1 MOL1         0.0783
      16    O4      16.779822   14.673453   20.221473 O.3        1 MOL1        -0.3740
      17    C6      18.793904   14.751879   18.885399 C.3        1 MOL1         0.0138
      18    H8      19.634697   15.446327   18.769419 H          1 MOL1         0.0794
      19    H9      18.037448   15.056569   18.150415 H          1 MOL1         0.0794
      20    O5      19.219796   13.412120   18.614764 O.3        1 MOL1        -0.5486
      21    H10     20.182606   13.386550   18.811224 H          1 MOL1         0.3769
      22    C7      14.847955   20.236272   21.163342 C.3        1 MOL1         0.2972
      23    H11     14.168949   21.054276   20.890674 H          1 MOL1         0.0751
      24    O6      16.133927   20.740723   21.569105 O.3        1 MOL1        -0.3740
      25    C8      14.243177   19.440859   22.347304 C.3        1 MOL1         0.1003
      26    H12     13.244749   19.103150   22.040506 H          1 MOL1         0.0783
      27    O7      14.123304   20.287788   23.501307 O.3        1 MOL1        -0.5519
      28    H13     14.837853   20.965762   23.424319 H          1 MOL1         0.3769
      29    C9      15.086359   18.186969   22.680358 C.3        1 MOL1         0.1053
      30    H14     16.051211   18.521038   23.085789 H          1 MOL1         0.0783
      31    O8      14.393751   17.395246   23.653012 O.3        1 MOL1        -0.5519
      32    H15     14.118423   18.031067   24.349881 H          1 MOL1         0.3769
      33    C10     15.362148   17.346469   21.410155 C.3        1 MOL1         0.1018
      34    H16     14.415275   16.906177   21.071220 H          1 MOL1         0.0783
      35    C11     15.956417   18.239661   20.282629 C.3        1 MOL1         0.1043
      36    H17     16.927184   18.622792   20.625879 H          1 MOL1         0.0783
      37    O9      15.044427   19.343719   20.047829 O.3        1 MOL1        -0.3740
      38    C12     16.197135   17.547177   18.918619 C.3        1 MOL1         0.0138
      39    H18     17.199894   17.104759   18.928028 H          1 MOL1         0.0794
      40    H19     16.206405   18.314946   18.133992 H          1 MOL1         0.0794
      41    O10     15.217418   16.549582   18.610677 O.3        1 MOL1        -0.5486
      42    H20     15.527500   15.718955   19.039548 H          1 MOL1         0.3769
      43    C13     18.620548   24.054258   20.842735 C.3        1 MOL1         0.2972
      44    H21     19.002437   25.015352   20.474960 H          1 MOL1         0.0751
      45    O11     19.627190   23.320560   21.561309 O.3        1 MOL1        -0.3740
      46    C14     17.443971   24.276528   21.826905 C.3        1 MOL1         0.1003
      47    H22     16.675130   24.856340   21.299971 H          1 MOL1         0.0783
      48    O12     17.891810   25.009178   22.979773 O.3        1 MOL1        -0.5519
      49    H23     18.765980   24.624837   23.237782 H          1 MOL1         0.3769
      50    C15     16.816895   22.927417   22.263073 C.3        1 MOL1         0.1053
      51    H24     17.547981   22.395450   22.887828 H          1 MOL1         0.0783
      52    O13     15.624964   23.177115   23.016678 O.3        1 MOL1        -0.5519
      53    H25     15.872106   23.870957   23.667382 H          1 MOL1         0.3769
      54    C16     16.493008   22.033532   21.040649 C.3        1 MOL1         0.1018
      55    H26     15.665286   22.493928   20.485277 H          1 MOL1         0.0783
      56    C17     17.724592   21.903889   20.100488 C.3        1 MOL1         0.1043
      57    H27     18.527992   21.389489   20.641353 H          1 MOL1         0.0783
      58    O14     18.153966   23.239940   19.747273 O.3        1 MOL1        -0.3740
      59    C18     17.492991   21.119384   18.785965 C.3        1 MOL1         0.0138
      60    H28     17.652870   20.052844   18.985291 H          1 MOL1         0.0794
      61    H29     18.267094   21.416250   18.065830 H          1 MOL1         0.0794
      62    O15     16.189970   21.327807   18.227675 O.3        1 MOL1        -0.5486
      63    H30     15.580214   20.722236   18.709688 H          1 MOL1         0.3769
      64    C19     23.732897   22.911536   21.785299 C.3        1 MOL1         0.2972
      65    H31     24.821485   23.048477   21.811267 H          1 MOL1         0.0751
      66    O16     23.365317   21.526140   21.905280 O.3        1 MOL1        -0.3740
      67    C20     23.081180   23.673367   22.962701 C.3        1 MOL1         0.1003
      68    H32     23.314125   24.739224   22.841163 H          1 MOL1         0.0783
      69    O17     23.612994   23.206921   24.213396 O.3        1 MOL1        -0.5519
      70    H33     23.867887   22.260090   24.080388 H          1 MOL1         0.3769
      71    C21     21.544480   23.509795   22.932490 C.3        1 MOL1         0.1053
      72    H34     21.309154   22.458586   23.149225 H          1 MOL1         0.0783
      73    O18     20.952163   24.352075   23.928650 O.3        1 MOL1        -0.5519
      74    H35     21.475789   24.188345   24.744217 H          1 MOL1         0.3769
      75    C22     20.961321   23.858515   21.541666 C.3        1 MOL1         0.1018
      76    H36     20.958848   24.951245   21.434905 H          1 MOL1         0.0783
      77    C23     21.756293   23.205676   20.370342 C.3        1 MOL1         0.1043
      78    H37     21.544165   22.129454   20.377044 H          1 MOL1         0.0783
      79    O19     23.181341   23.416946   20.553643 O.3        1 MOL1        -0.3740
      80    C24     21.382550   23.734721   18.965158 C.3        1 MOL1         0.0138
      81    H38     20.414199   23.308839   18.674626 H          1 MOL1         0.0794
      82    H39     22.122039   23.360445   18.244658 H          1 MOL1         0.0794
      83    O20     21.326681   25.166586   18.921568 O.3        1 MOL1        -0.5486
      84    H40     21.139798   25.428074   17.993809 H          1 MOL1         0.3769
      85    C25     24.927395   17.697498   21.372523 C.3        1 MOL1         0.2972
      86    H41     25.598547   16.855305   21.160940 H          1 MOL1         0.0751
      87    O21     23.589897   17.251039   21.670318 O.3        1 MOL1        -0.3740
      88    C26     25.451927   18.482381   22.600370 C.3        1 MOL1         0.1003
      89    H42     26.461474   18.839196   22.358315 H          1 MOL1         0.0783
      90    O22     25.515560   17.631953   23.756442 O.3        1 MOL1        -0.5519
      91    H43     24.848175   16.912637   23.623238 H          1 MOL1         0.3769
      92    C27     24.564702   19.716025   22.882400 C.3        1 MOL1         0.1053
      93    H44     23.572684   19.363324   23.197324 H          1 MOL1         0.0783
      94    O23     25.153419   20.503731   23.923359 O.3        1 MOL1        -0.5519
      95    H45     25.407967   19.855497   24.617618 H          1 MOL1         0.3769
      96    C28     24.393935   20.569540   21.604055 C.3        1 MOL1         0.1018
      97    H46     25.354002   21.050335   21.374841 H          1 MOL1         0.0783
      98    C29     23.945075   19.710100   20.388064 C.3        1 MOL1         0.1043
      99    H47     22.939115   19.327623   20.590528 H          1 MOL1         0.0783
     100    O24     24.859715   18.593125   20.239899 O.3        1 MOL1        -0.3740
     101    C30     23.863942   20.469164   19.039042 C.3        1 MOL1         0.0138
     102    H48     22.863468   20.911397   18.949615 H          1 MOL1         0.0794
     103    H49     23.959327   19.741791   18.222045 H          1 MOL1         0.0794
     104    O25     24.855543   21.494242   18.906884 O.3        1 MOL1        -0.5486
     105    H50     24.505853   22.284370   19.380179 H          1 MOL1         0.3769
     106    C31     21.245671   13.798770   21.124406 C.3        1 MOL1         0.2972
     107    H51     20.944773   12.788167   20.820754 H          1 MOL1         0.0751
     108    O26     20.154004   14.504376   21.742256 O.3        1 MOL1        -0.3740
     109    C32     22.380469   13.709893   22.176826 C.3        1 MOL1         0.1003
     110    H52     23.202124   13.134061   21.731441 H          1 MOL1         0.0783
     111    O27     21.909231   13.036865   23.355087 O.3        1 MOL1        -0.5519
     112    H53     20.977959   13.336885   23.490078 H          1 MOL1         0.3769
     113    C33     22.920531   15.114317   22.541279 C.3        1 MOL1         0.1053
     114    H54     22.132265   15.662063   23.076546 H          1 MOL1         0.0783
     115    O28     24.076257   14.978986   23.375716 O.3        1 MOL1        -0.5519
     116    H55     23.824162   14.315654   24.056256 H          1 MOL1         0.3769
     117    C34     23.277392   15.906751   21.262843 C.3        1 MOL1         0.1018
     118    H56     24.130864   15.416354   20.776262 H          1 MOL1         0.0783
     119    C35     22.083587   15.933183   20.271804 C.3        1 MOL1         0.1043
     120    H57     21.240235   16.449911   20.749282 H          1 MOL1         0.0783
     121    O29     21.714388   14.559083   19.987356 O.3        1 MOL1        -0.3740
     122    C36     22.368282   16.662605   18.932956 C.3        1 MOL1         0.0138
     123    H58     22.176701   17.734328   19.072562 H          1 MOL1         0.0794
     124    H59     21.649278   16.312219   18.181739 H          1 MOL1         0.0794
     125    O30     23.707169   16.470203   18.460121 O.3        1 MOL1        -0.5486
     126    H60     24.273597   17.111305   18.948577 H          1 MOL1         0.3769
     127    C1      20.096852   19.152066   20.327414 C.2        1 MOL1         0.6021
     128    O1      19.448194   18.169193   20.022957 O.co2      1 MOL1        -0.6904
     129    O2      20.501996   19.960903   19.514185 O.co2      1 MOL1        -0.6904
     130    C2      20.480709   19.387405   21.792757 C.3        1 MOL1        -0.2102
     131    H1      20.930528   20.384054   21.849660 H          1 MOL1         0.0687
     132    H2      21.266440   18.673901   22.061688 H          1 MOL1         0.0687
     133    C3      19.324811   19.319324   22.823334 C.3        1 MOL1        -0.1974
     134    H3      19.596286   19.913537   23.706080 H          1 MOL1         0.0689
     135    H4      18.421745   19.775676   22.401880 H          1 MOL1         0.0689
     136    C4      19.027842   17.876668   23.274313 C.3        1 MOL1        -0.2987
     137    H5      19.907772   17.421348   23.746342 H          1 MOL1         0.0700
     138    H6      18.201551   17.853424   23.995566 H          1 MOL1         0.0700
     139    H7      18.747827   17.260418   22.413990 H          1 MOL1         0.0700
@<TRIPOS>BOND
    1     1     2    1
    2     1     3    1
    3     1     4    1
    4     4     5    1
    5     4     6    1
    6     6     7    1
    7     4     8    1
    8     8     9    1
    9     8    10    1
   10    10    11    1
   11     8    12    1
   12    12    13    1
   13    12    14    1
   14    14    15    1
   15     1    16    1
   16    14    16    1
   17    14    17    1
   18    17    18    1
   19    17    19    1
   20    17    20    1
   21    20    21    1
   22    22    23    1
   23    22    24    1
   24    22    25    1
   25    25    26    1
   26    25    27    1
   27    27    28    1
   28    25    29    1
   29    29    30    1
   30    29    31    1
   31    31    32    1
   32     3    33    1
   33    29    33    1
   34    33    34    1
   35    33    35    1
   36    35    36    1
   37    22    37    1
   38    35    37    1
   39    35    38    1
   40    38    39    1
   41    38    40    1
   42    38    41    1
   43    41    42    1
   44    43    44    1
   45    43    45    1
   46    43    46    1
   47    46    47    1
   48    46    48    1
   49    48    49    1
   50    46    50    1
   51    50    51    1
   52    50    52    1
   53    52    53    1
   54    24    54    1
   55    50    54    1
   56    54    55    1
   57    54    56    1
   58    56    57    1
   59    43    58    1
   60    56    58    1
   61    56    59    1
   62    59    60    1
   63    59    61    1
   64    59    62    1
   65    62    63    1
   66    64    65    1
   67    64    66    1
   68    64    67    1
   69    67    68    1
   70    67    69    1
   71    69    70    1
   72    67    71    1
   73    71    72    1
   74    71    73    1
   75    73    74    1
   76    45    75    1
   77    71    75    1
   78    75    76    1
   79    75    77    1
   80    77    78    1
   81    64    79    1
   82    77    79    1
   83    77    80    1
   84    80    81    1
   85    80    82    1
   86    80    83    1
   87    83    84    1
   88    85    86    1
   89    85    87    1
   90    85    88    1
   91    88    89    1
   92    88    90    1
   93    90    91    1
   94    88    92    1
   95    92    93    1
   96    92    94    1
   97    94    95    1
   98    66    96    1
   99    92    96    1
  100    96    97    1
  101    96    98    1
  102    98    99    1
  103    85   100    1
  104    98   100    1
  105    98   101    1
  106   101   102    1
  107   101   103    1
  108   101   104    1
  109   104   105    1
  110   106   107    1
  111    12   108    1
  112   106   108    1
  113   106   109    1
  114   109   110    1
  115   109   111    1
  116   111   112    1
  117   109   113    1
  118   113   114    1
  119   113   115    1
  120   115   116    1
  121    87   117    1
  122   113   117    1
  123   117   118    1
  124   117   119    1
  125   119   120    1
  126   106   121    1
  127   119   121    1
  128   119   122    1
  129   122   123    1
  130   122   124    1
  131   122   125    1
  132   125   126    1
  133   127   128    1
  134   127   129    2
  135   127   130    1
  136   130   131    1
  137   130   132    1
  138   130   133    1
  139   133   134    1
  140   133   135    1
  141   133   136    1
  142   136   137    1
  143   136   138    1
  144   136   139    1
@<TRIPOS>SUBSTRUCTURE
       1 MOL1            1 RESIDUE      1      MOL     
       2 MOL1          139 RESIDUE      1      MOL     
@<SCITEGIC>MOL_PROPERTY
feprocess Rank
SciTegic.value.IntegerValue
90

@<SCITEGIC>MOL_PROPERTY
Conf_Id
SciTegic.value.IntegerValue
332

@<SCITEGIC>MOL_PROPERTY
Probability
SciTegic.value.DoubleValue
0.00

@<SCITEGIC>MOL_PROPERTY
G
SciTegic.value.DoubleValue
497.232

@<SCITEGIC>MOL_PROPERTY
E
SciTegic.value.DoubleValue
321.184

@<SCITEGIC>MOL_PROPERTY
-TS
SciTegic.value.DoubleValue
176.048

@<SCITEGIC>MOL_PROPERTY
U+W
SciTegic.value.DoubleValue
198.673

@<SCITEGIC>MOL_PROPERTY
U
SciTegic.value.DoubleValue
264.935

@<SCITEGIC>MOL_PROPERTY
W
SciTegic.value.DoubleValue
-66.262

@<SCITEGIC>MOL_PROPERTY
W(PB)
SciTegic.value.DoubleValue
-72.097

@<SCITEGIC>MOL_PROPERTY
W(SA)
SciTegic.value.DoubleValue
5.835

@<SCITEGIC>MOL_PROPERTY
Valence
SciTegic.value.DoubleValue
157.313

@<SCITEGIC>MOL_PROPERTY
Coulomb
SciTegic.value.DoubleValue
135.658

@<SCITEGIC>MOL_PROPERTY
VdW
SciTegic.value.DoubleValue
-28.036

@<SCITEGIC>MOL_PROPERTY
VdW6
SciTegic.value.DoubleValue
-182.060

@<SCITEGIC>MOL_PROPERTY
VdW12
SciTegic.value.DoubleValue
154.024

@<SCITEGIC>MOL_PROPERTY
Bond
SciTegic.value.DoubleValue
4.480

@<SCITEGIC>MOL_PROPERTY
Angle
SciTegic.value.DoubleValue
14.118

@<SCITEGIC>MOL_PROPERTY
Pdih
SciTegic.value.DoubleValue
138.712

@<SCITEGIC>MOL_PROPERTY
Idih
SciTegic.value.DoubleValue
0.003

@<SCITEGIC>MOL_PROPERTY
Tether
SciTegic.value.DoubleValue
0.000

@<TRIPOS>MOLECULE
CD_guest-6_fast_vm2_rndm.mol2 : feprocess host+ligand conformer 91
         139         144           2
SMALL
USER_CHARGES
 
@<TRIPOS>ATOM
       1    C1      16.235339   15.387529   20.578004 C.3        1 MOL1         0.2972
       2    H1      15.208588   15.306700   20.198723 H          1 MOL1         0.0751
       3    O1      16.449295   16.621248   21.287439 O.3        1 MOL1        -0.3740
       4    C2      16.550945   14.239266   21.570798 C.3        1 MOL1         0.1003
       5    H2      16.403829   13.290539   21.038655 H          1 MOL1         0.0783
       6    O2      15.669233   14.293931   22.704875 O.3        1 MOL1        -0.5519
       7    H3      15.657618   15.233822   23.017974 H          1 MOL1         0.3769
       8    C3      18.026790   14.307107   22.039770 C.3        1 MOL1         0.1053
       9    H4      18.146377   15.206393   22.660225 H          1 MOL1         0.0783
      10    O3      18.341234   13.142713   22.811833 O.3        1 MOL1        -0.5519
      11    H5      17.589714   13.038159   23.436861 H          1 MOL1         0.3769
      12    C4      18.998756   14.422743   20.839544 C.3        1 MOL1         0.1018
      13    H6      19.014437   13.462176   20.308037 H          1 MOL1         0.0783
      14    C5      18.564663   15.547107   19.858659 C.3        1 MOL1         0.1043
      15    H7      18.642747   16.507850   20.376447 H          1 MOL1         0.0783
      16    O4      17.183656   15.318481   19.489269 O.3        1 MOL1        -0.3740
      17    C6      19.412789   15.675445   18.568410 C.3        1 MOL1         0.0138
      18    H8      20.252568   16.352810   18.772027 H          1 MOL1         0.0794
      19    H9      18.800121   16.160844   17.797238 H          1 MOL1         0.0794
      20    O5      19.907411   14.419224   18.089475 O.3        1 MOL1        -0.5486
      21    H10     20.719664   14.221035   18.610493 H          1 MOL1         0.3769
      22    C7      14.676679   20.336078   21.888422 C.3        1 MOL1         0.2972
      23    H11     13.960184   21.157050   22.021072 H          1 MOL1         0.0751
      24    O6      16.030650   20.824541   21.905495 O.3        1 MOL1        -0.3740
      25    C8      14.519596   19.316281   23.044303 C.3        1 MOL1         0.1003
      26    H12     13.486890   18.944694   23.022187 H          1 MOL1         0.0783
      27    O7      14.769481   19.955558   24.304893 O.3        1 MOL1        -0.5519
      28    H13     15.464593   20.631853   24.132059 H          1 MOL1         0.3769
      29    C9      15.467788   18.109025   22.857164 C.3        1 MOL1         0.1053
      30    H14     16.502155   18.464733   22.965312 H          1 MOL1         0.0783
      31    O8      15.184329   17.116763   23.851306 O.3        1 MOL1        -0.5519
      32    H15     15.139767   17.612020   24.699179 H          1 MOL1         0.3769
      33    C10     15.315736   17.491047   21.448947 C.3        1 MOL1         0.1018
      34    H16     14.365718   16.942175   21.404412 H          1 MOL1         0.0783
      35    C11     15.371155   18.571110   20.334703 C.3        1 MOL1         0.1043
      36    H17     16.396463   18.958707   20.312305 H          1 MOL1         0.0783
      37    O9      14.451274   19.654245   20.636166 O.3        1 MOL1        -0.3740
      38    C12     15.041004   18.037271   18.920250 C.3        1 MOL1         0.0138
      39    H18     15.882740   17.423279   18.573805 H          1 MOL1         0.0794
      40    H19     14.960764   18.889532   18.232558 H          1 MOL1         0.0794
      41    O10     13.831497   17.268072   18.902689 O.3        1 MOL1        -0.5486
      42    H20     13.650345   17.020310   17.970032 H          1 MOL1         0.3769
      43    C13     18.414746   24.102066   21.033952 C.3        1 MOL1         0.2972
      44    H21     18.828348   25.066151   20.711611 H          1 MOL1         0.0751
      45    O11     19.441224   23.229401   21.544204 O.3        1 MOL1        -0.3740
      46    C14     17.383043   24.328987   22.163368 C.3        1 MOL1         0.1003
      47    H22     16.588871   24.973053   21.763969 H          1 MOL1         0.0783
      48    O12     18.010730   24.979244   23.279975 O.3        1 MOL1        -0.5519
      49    H23     18.947420   24.663263   23.297827 H          1 MOL1         0.3769
      50    C15     16.740714   22.993359   22.607187 C.3        1 MOL1         0.1053
      51    H24     17.510367   22.408677   23.125376 H          1 MOL1         0.0783
      52    O13     15.661979   23.263513   23.508106 O.3        1 MOL1        -0.5519
      53    H25     16.025678   23.903194   24.159452 H          1 MOL1         0.3769
      54    C16     16.229062   22.161552   21.401687 C.3        1 MOL1         0.1018
      55    H26     15.294072   22.611437   21.043414 H          1 MOL1         0.0783
      56    C17     17.256663   22.104257   20.231467 C.3        1 MOL1         0.1043
      57    H27     18.094274   21.473667   20.551482 H          1 MOL1         0.0783
      58    O14     17.743404   23.440262   19.943629 O.3        1 MOL1        -0.3740
      59    C18     16.725945   21.505012   18.902778 C.3        1 MOL1         0.0138
      60    H28     16.941026   20.430355   18.892018 H          1 MOL1         0.0794
      61    H29     17.298805   21.938285   18.072256 H          1 MOL1         0.0794
      62    O15     15.325593   21.727787   18.696804 O.3        1 MOL1        -0.5486
      63    H30     14.847843   21.112632   19.301450 H          1 MOL1         0.3769
      64    C19     23.585301   22.576440   21.098309 C.3        1 MOL1         0.2972
      65    H31     24.625440   22.716596   20.777305 H          1 MOL1         0.0751
      66    O16     23.422122   21.350740   21.833943 O.3        1 MOL1        -0.3740
      67    C20     23.152724   23.731735   22.038361 C.3        1 MOL1         0.1003
      68    H32     23.331804   24.675120   21.506510 H          1 MOL1         0.0783
      69    O17     23.932666   23.706912   23.245337 O.3        1 MOL1        -0.5519
      70    H33     23.996960   22.758508   23.516826 H          1 MOL1         0.3769
      71    C21     21.642415   23.651945   22.378907 C.3        1 MOL1         0.1053
      72    H34     21.479350   22.768025   23.011424 H          1 MOL1         0.0783
      73    O18     21.249228   24.835501   23.084049 O.3        1 MOL1        -0.5519
      74    H35     21.931620   24.958544   23.780429 H          1 MOL1         0.3769
      75    C22     20.786254   23.487826   21.099814 C.3        1 MOL1         0.1018
      76    H36     20.852013   24.413661   20.513351 H          1 MOL1         0.0783
      77    C23     21.306264   22.299551   20.243228 C.3        1 MOL1         0.1043
      78    H37     21.205804   21.372161   20.822427 H          1 MOL1         0.0783
      79    O19     22.702196   22.552398   19.956852 O.3        1 MOL1        -0.3740
      80    C24     20.583675   22.072174   18.892010 C.3        1 MOL1         0.0138
      81    H38     19.720132   21.418336   19.062050 H          1 MOL1         0.0794
      82    H39     21.260519   21.518706   18.227736 H          1 MOL1         0.0794
      83    O20     20.161871   23.290342   18.266300 O.3        1 MOL1        -0.5486
      84    H40     19.312609   23.544205   18.695994 H          1 MOL1         0.3769
      85    C25     25.136743   17.567156   22.043994 C.3        1 MOL1         0.2972
      86    H41     25.825589   16.713625   22.082402 H          1 MOL1         0.0751
      87    O21     23.762967   17.137858   22.066523 O.3        1 MOL1        -0.3740
      88    C26     25.375082   18.479502   23.269929 C.3        1 MOL1         0.1003
      89    H42     26.417508   18.821610   23.232830 H          1 MOL1         0.0783
      90    O22     25.156534   17.742148   24.483431 O.3        1 MOL1        -0.5519
      91    H43     24.477628   17.054716   24.275715 H          1 MOL1         0.3769
      92    C27     24.459712   19.724248   23.219829 C.3        1 MOL1         0.1053
      93    H44     23.426093   19.385373   23.364963 H          1 MOL1         0.0783
      94    O23     24.825988   20.628045   24.269464 O.3        1 MOL1        -0.5519
      95    H45     24.886419   20.070698   25.076523 H          1 MOL1         0.3769
      96    C28     24.546683   20.448144   21.853271 C.3        1 MOL1         0.1018
      97    H46     25.500124   20.991080   21.814081 H          1 MOL1         0.0783
      98    C29     24.444737   19.459961   20.652090 C.3        1 MOL1         0.1043
      99    H47     23.412252   19.091055   20.608695 H          1 MOL1         0.0783
     100    O24     25.350976   18.342838   20.849591 O.3        1 MOL1        -0.3740
     101    C30     24.778845   20.075216   19.271524 C.3        1 MOL1         0.0138
     102    H48     23.928295   20.681320   18.938029 H          1 MOL1         0.0794
     103    H49     24.887229   19.259215   18.544655 H          1 MOL1         0.0794
     104    O25     25.972361   20.868919   19.304665 O.3        1 MOL1        -0.5486
     105    H50     26.149500   21.176469   18.389285 H          1 MOL1         0.3769
     106    C31     21.368248   13.865553   21.080623 C.3        1 MOL1         0.2972
     107    H51     21.004469   12.880788   20.760604 H          1 MOL1         0.0751
     108    O26     20.282061   14.755815   21.398217 O.3        1 MOL1        -0.3740
     109    C32     22.230392   13.714793   22.357501 C.3        1 MOL1         0.1003
     110    H52     23.072092   13.053099   22.115054 H          1 MOL1         0.0783
     111    O27     21.454195   13.130636   23.416178 O.3        1 MOL1        -0.5519
     112    H53     20.514783   13.399055   23.261937 H          1 MOL1         0.3769
     113    C33     22.805274   15.081905   22.797543 C.3        1 MOL1         0.1053
     114    H54     21.970460   15.716502   23.125343 H          1 MOL1         0.0783
     115    O28     23.721223   14.890468   23.881570 O.3        1 MOL1        -0.5519
     116    H55     23.257623   14.286008   24.502977 H          1 MOL1         0.3769
     117    C34     23.518508   15.790539   21.620758 C.3        1 MOL1         0.1018
     118    H56     24.449897   15.250500   21.405805 H          1 MOL1         0.0783
     119    C35     22.636272   15.821656   20.338462 C.3        1 MOL1         0.1043
     120    H57     21.772806   16.465005   20.532545 H          1 MOL1         0.0783
     121    O29     22.172756   14.477113   20.048408 O.3        1 MOL1        -0.3740
     122    C36     23.323812   16.385892   19.069730 C.3        1 MOL1         0.0138
     123    H58     23.171545   17.472397   19.049017 H          1 MOL1         0.0794
     124    H59     22.811829   15.982058   18.186360 H          1 MOL1         0.0794
     125    O30     24.723512   16.089807   19.005018 O.3        1 MOL1        -0.5486
     126    H60     25.176490   16.757784   19.570628 H          1 MOL1         0.3769
     127    C1      19.943160   18.823425   20.575247 C.2        1 MOL1         0.6021
     128    O1      18.888957   19.134747   20.055312 O.co2      1 MOL1        -0.6904
     129    O2      21.005786   18.814077   19.982660 O.co2      1 MOL1        -0.6904
     130    C2      19.916079   18.294471   22.011444 C.3        1 MOL1        -0.2102
     131    H1      20.544936   17.401556   22.045911 H          1 MOL1         0.0687
     132    H2      18.896720   17.969091   22.250472 H          1 MOL1         0.0687
     133    C3      20.422414   19.299135   23.073780 C.3        1 MOL1        -0.1974
     134    H3      20.704706   18.756999   23.986088 H          1 MOL1         0.0689
     135    H4      21.327293   19.795302   22.702136 H          1 MOL1         0.0689
     136    C4      19.356710   20.351676   23.422480 C.3        1 MOL1        -0.2987
     137    H5      18.476134   19.884670   23.881698 H          1 MOL1         0.0700
     138    H6      19.755465   21.098928   24.120075 H          1 MOL1         0.0700
     139    H7      19.031329   20.866630   22.513947 H          1 MOL1         0.0700
@<TRIPOS>BOND
    1     1     2    1
    2     1     3    1
    3     1     4    1
    4     4     5    1
    5     4     6    1
    6     6     7    1
    7     4     8    1
    8     8     9    1
    9     8    10    1
   10    10    11    1
   11     8    12    1
   12    12    13    1
   13    12    14    1
   14    14    15    1
   15     1    16    1
   16    14    16    1
   17    14    17    1
   18    17    18    1
   19    17    19    1
   20    17    20    1
   21    20    21    1
   22    22    23    1
   23    22    24    1
   24    22    25    1
   25    25    26    1
   26    25    27    1
   27    27    28    1
   28    25    29    1
   29    29    30    1
   30    29    31    1
   31    31    32    1
   32     3    33    1
   33    29    33    1
   34    33    34    1
   35    33    35    1
   36    35    36    1
   37    22    37    1
   38    35    37    1
   39    35    38    1
   40    38    39    1
   41    38    40    1
   42    38    41    1
   43    41    42    1
   44    43    44    1
   45    43    45    1
   46    43    46    1
   47    46    47    1
   48    46    48    1
   49    48    49    1
   50    46    50    1
   51    50    51    1
   52    50    52    1
   53    52    53    1
   54    24    54    1
   55    50    54    1
   56    54    55    1
   57    54    56    1
   58    56    57    1
   59    43    58    1
   60    56    58    1
   61    56    59    1
   62    59    60    1
   63    59    61    1
   64    59    62    1
   65    62    63    1
   66    64    65    1
   67    64    66    1
   68    64    67    1
   69    67    68    1
   70    67    69    1
   71    69    70    1
   72    67    71    1
   73    71    72    1
   74    71    73    1
   75    73    74    1
   76    45    75    1
   77    71    75    1
   78    75    76    1
   79    75    77    1
   80    77    78    1
   81    64    79    1
   82    77    79    1
   83    77    80    1
   84    80    81    1
   85    80    82    1
   86    80    83    1
   87    83    84    1
   88    85    86    1
   89    85    87    1
   90    85    88    1
   91    88    89    1
   92    88    90    1
   93    90    91    1
   94    88    92    1
   95    92    93    1
   96    92    94    1
   97    94    95    1
   98    66    96    1
   99    92    96    1
  100    96    97    1
  101    96    98    1
  102    98    99    1
  103    85   100    1
  104    98   100    1
  105    98   101    1
  106   101   102    1
  107   101   103    1
  108   101   104    1
  109   104   105    1
  110   106   107    1
  111    12   108    1
  112   106   108    1
  113   106   109    1
  114   109   110    1
  115   109   111    1
  116   111   112    1
  117   109   113    1
  118   113   114    1
  119   113   115    1
  120   115   116    1
  121    87   117    1
  122   113   117    1
  123   117   118    1
  124   117   119    1
  125   119   120    1
  126   106   121    1
  127   119   121    1
  128   119   122    1
  129   122   123    1
  130   122   124    1
  131   122   125    1
  132   125   126    1
  133   127   128    1
  134   127   129    2
  135   127   130    1
  136   130   131    1
  137   130   132    1
  138   130   133    1
  139   133   134    1
  140   133   135    1
  141   133   136    1
  142   136   137    1
  143   136   138    1
  144   136   139    1
@<TRIPOS>SUBSTRUCTURE
       1 MOL1            1 RESIDUE      1      MOL     
       2 MOL1          139 RESIDUE      1      MOL     
@<SCITEGIC>MOL_PROPERTY
feprocess Rank
SciTegic.value.IntegerValue
91

@<SCITEGIC>MOL_PROPERTY
Conf_Id
SciTegic.value.IntegerValue
676

@<SCITEGIC>MOL_PROPERTY
Probability
SciTegic.value.DoubleValue
0.00

@<SCITEGIC>MOL_PROPERTY
G
SciTegic.value.DoubleValue
497.520

@<SCITEGIC>MOL_PROPERTY
E
SciTegic.value.DoubleValue
321.457

@<SCITEGIC>MOL_PROPERTY
-TS
SciTegic.value.DoubleValue
176.064

@<SCITEGIC>MOL_PROPERTY
U+W
SciTegic.value.DoubleValue
198.945

@<SCITEGIC>MOL_PROPERTY
U
SciTegic.value.DoubleValue
264.858

@<SCITEGIC>MOL_PROPERTY
W
SciTegic.value.DoubleValue
-65.912

@<SCITEGIC>MOL_PROPERTY
W(PB)
SciTegic.value.DoubleValue
-71.780

@<SCITEGIC>MOL_PROPERTY
W(SA)
SciTegic.value.DoubleValue
5.868

@<SCITEGIC>MOL_PROPERTY
Valence
SciTegic.value.DoubleValue
154.578

@<SCITEGIC>MOL_PROPERTY
Coulomb
SciTegic.value.DoubleValue
138.075

@<SCITEGIC>MOL_PROPERTY
VdW
SciTegic.value.DoubleValue
-27.796

@<SCITEGIC>MOL_PROPERTY
VdW6
SciTegic.value.DoubleValue
-179.661

@<SCITEGIC>MOL_PROPERTY
VdW12
SciTegic.value.DoubleValue
151.865

@<SCITEGIC>MOL_PROPERTY
Bond
SciTegic.value.DoubleValue
4.468

@<SCITEGIC>MOL_PROPERTY
Angle
SciTegic.value.DoubleValue
13.457

@<SCITEGIC>MOL_PROPERTY
Pdih
SciTegic.value.DoubleValue
136.631

@<SCITEGIC>MOL_PROPERTY
Idih
SciTegic.value.DoubleValue
0.022

@<SCITEGIC>MOL_PROPERTY
Tether
SciTegic.value.DoubleValue
0.000

@<TRIPOS>MOLECULE
CD_guest-6_fast_vm2_rndm.mol2 : feprocess host+ligand conformer 92
         139         144           2
SMALL
USER_CHARGES
 
@<TRIPOS>ATOM
       1    C1      16.270568   15.246600   20.963015 C.3        1 MOL1         0.2972
       2    H1      15.251806   15.025820   20.619414 H          1 MOL1         0.0751
       3    O1      16.398167   16.621222   21.367676 O.3        1 MOL1        -0.3740
       4    C2      16.609370   14.361539   22.189589 C.3        1 MOL1         0.1003
       5    H2      16.492341   13.313611   21.884390 H          1 MOL1         0.0783
       6    O2      15.706008   14.645843   23.269188 O.3        1 MOL1        -0.5519
       7    H3      15.434943   15.589017   23.161047 H          1 MOL1         0.3769
       8    C3      18.074967   14.566722   22.642317 C.3        1 MOL1         0.1053
       9    H4      18.176021   15.589442   23.030346 H          1 MOL1         0.0783
      10    O3      18.396825   13.621286   23.668689 O.3        1 MOL1        -0.5519
      11    H5      17.641516   13.660682   24.296557 H          1 MOL1         0.3769
      12    C4      19.043679   14.405867   21.447628 C.3        1 MOL1         0.1018
      13    H6      19.040243   13.355012   21.129536 H          1 MOL1         0.0783
      14    C5      18.611835   15.299570   20.253197 C.3        1 MOL1         0.1043
      15    H7      18.689095   16.347606   20.569858 H          1 MOL1         0.0783
      16    O4      17.233449   14.991187   19.917336 O.3        1 MOL1        -0.3740
      17    C6      19.465610   15.140557   18.968925 C.3        1 MOL1         0.0138
      18    H8      20.318796   15.826624   19.030294 H          1 MOL1         0.0794
      19    H9      18.866733   15.466497   18.108473 H          1 MOL1         0.0794
      20    O5      19.931480   13.801180   18.763800 O.3        1 MOL1        -0.5486
      21    H10     20.685846   13.666712   19.383983 H          1 MOL1         0.3769
      22    C7      14.796483   20.414396   20.643966 C.3        1 MOL1         0.2972
      23    H11     14.208498   21.260090   20.265101 H          1 MOL1         0.0751
      24    O6      15.840339   20.848992   21.534867 O.3        1 MOL1        -0.3740
      25    C8      13.896138   19.445350   21.450801 C.3        1 MOL1         0.1003
      26    H12     13.088054   19.109771   20.787974 H          1 MOL1         0.0783
      27    O7      13.338678   20.122191   22.588750 O.3        1 MOL1        -0.5519
      28    H13     14.085322   20.613875   23.007859 H          1 MOL1         0.3769
      29    C9      14.692719   18.200031   21.916287 C.3        1 MOL1         0.1053
      30    H14     15.413062   18.527300   22.678073 H          1 MOL1         0.0783
      31    O8      13.793762   17.242343   22.486402 O.3        1 MOL1        -0.5519
      32    H15     13.224951   17.755510   23.101821 H          1 MOL1         0.3769
      33    C10     15.487358   17.553302   20.753436 C.3        1 MOL1         0.1018
      34    H16     14.777644   17.054508   20.080524 H          1 MOL1         0.0783
      35    C11     16.296440   18.612559   19.951591 C.3        1 MOL1         0.1043
      36    H17     17.076629   19.024187   20.601939 H          1 MOL1         0.0783
      37    O9      15.389565   19.670119   19.558373 O.3        1 MOL1        -0.3740
      38    C12     17.010945   18.091786   18.679390 C.3        1 MOL1         0.0138
      39    H18     18.011302   17.740749   18.962094 H          1 MOL1         0.0794
      40    H19     17.164682   18.938859   17.997972 H          1 MOL1         0.0794
      41    O10     16.291855   17.045411   18.014762 O.3        1 MOL1        -0.5486
      42    H20     16.470770   16.218432   18.519994 H          1 MOL1         0.3769
      43    C13     18.408325   24.094024   21.976655 C.3        1 MOL1         0.2972
      44    H21     18.841190   25.097462   22.078612 H          1 MOL1         0.0751
      45    O11     19.427051   23.077556   21.987787 O.3        1 MOL1        -0.3740
      46    C14     17.441576   23.828439   23.153280 C.3        1 MOL1         0.1003
      47    H22     16.659745   24.598280   23.119653 H          1 MOL1         0.0783
      48    O12     18.144223   23.917940   24.403428 O.3        1 MOL1        -0.5519
      49    H23     19.092428   23.715589   24.209566 H          1 MOL1         0.3769
      50    C15     16.759491   22.449135   23.010355 C.3        1 MOL1         0.1053
      51    H24     17.528918   21.675354   23.140565 H          1 MOL1         0.0783
      52    O13     15.754415   22.314744   24.022819 O.3        1 MOL1        -0.5519
      53    H25     16.198692   22.580355   24.858011 H          1 MOL1         0.3769
      54    C16     16.123611   22.260438   21.610302 C.3        1 MOL1         0.1018
      55    H26     15.203313   22.856947   21.561898 H          1 MOL1         0.0783
      56    C17     17.097458   22.675431   20.464135 C.3        1 MOL1         0.1043
      57    H27     17.897140   21.926121   20.418682 H          1 MOL1         0.0783
      58    O14     17.670949   23.980162   20.744605 O.3        1 MOL1        -0.3740
      59    C18     16.457096   22.764475   19.057202 C.3        1 MOL1         0.0138
      60    H28     16.324890   21.751810   18.659270 H          1 MOL1         0.0794
      61    H29     17.162378   23.274244   18.387167 H          1 MOL1         0.0794
      62    O15     15.202839   23.458440   19.074277 O.3        1 MOL1        -0.5486
      63    H30     14.896490   23.541081   18.145081 H          1 MOL1         0.3769
      64    C19     23.538029   22.682374   21.277995 C.3        1 MOL1         0.2972
      65    H31     24.580947   22.899306   21.013648 H          1 MOL1         0.0751
      66    O16     23.353801   21.292701   21.604807 O.3        1 MOL1        -0.3740
      67    C20     23.132480   23.512552   22.521701 C.3        1 MOL1         0.1003
      68    H32     23.270964   24.572560   22.272128 H          1 MOL1         0.0783
      69    O17     23.968023   23.175096   23.640711 O.3        1 MOL1        -0.5519
      70    H33     24.279667   22.248377   23.492935 H          1 MOL1         0.3769
      71    C21     21.641397   23.294524   22.872726 C.3        1 MOL1         0.1053
      72    H34     21.513249   22.254839   23.204193 H          1 MOL1         0.0783
      73    O18     21.259367   24.190306   23.922474 O.3        1 MOL1        -0.5519
      74    H35     21.978841   24.122224   24.589119 H          1 MOL1         0.3769
      75    C22     20.749052   23.521349   21.629715 C.3        1 MOL1         0.1018
      76    H36     20.770524   24.589012   21.374436 H          1 MOL1         0.0783
      77    C23     21.251954   22.700850   20.409794 C.3        1 MOL1         0.1043
      78    H37     21.149595   21.636677   20.648956 H          1 MOL1         0.0783
      79    O19     22.652146   23.009552   20.184471 O.3        1 MOL1        -0.3740
      80    C24     20.476967   22.944140   19.089736 C.3        1 MOL1         0.0138
      81    H38     19.614921   22.266002   19.063445 H          1 MOL1         0.0794
      82    H39     21.122941   22.661989   18.247992 H          1 MOL1         0.0794
      83    O20     20.032462   24.297632   18.938184 O.3        1 MOL1        -0.5486
      84    H40     19.230792   24.395703   19.503280 H          1 MOL1         0.3769
      85    C25     25.055779   17.537470   20.950898 C.3        1 MOL1         0.2972
      86    H41     25.687388   16.702276   20.621854 H          1 MOL1         0.0751
      87    O21     23.900275   17.081663   21.677768 O.3        1 MOL1        -0.3740
      88    C26     25.832732   18.467008   21.917286 C.3        1 MOL1         0.1003
      89    H42     26.719926   18.836647   21.387004 H          1 MOL1         0.0783
      90    O22     26.237195   17.737837   23.087893 O.3        1 MOL1        -0.5519
      91    H43     25.450502   17.212954   23.375867 H          1 MOL1         0.3769
      92    C27     24.965238   19.685147   22.326561 C.3        1 MOL1         0.1053
      93    H44     24.140922   19.319970   22.955030 H          1 MOL1         0.0783
      94    O23     25.760122   20.616258   23.069293 O.3        1 MOL1        -0.5519
      95    H45     26.249017   20.071957   23.725773 H          1 MOL1         0.3769
      96    C28     24.346541   20.385684   21.091829 C.3        1 MOL1         0.1018
      97    H46     25.145485   20.908306   20.549599 H          1 MOL1         0.0783
      98    C29     23.660857   19.369256   20.136815 C.3        1 MOL1         0.1043
      99    H47     22.805718   18.924240   20.654406 H          1 MOL1         0.0783
     100    O24     24.615962   18.327941   19.823287 O.3        1 MOL1        -0.3740
     101    C30     23.110797   19.961124   18.814784 C.3        1 MOL1         0.0138
     102    H48     22.081178   20.300150   18.989746 H          1 MOL1         0.0794
     103    H49     23.051473   19.154944   18.071761 H          1 MOL1         0.0794
     104    O25     23.899870   21.044544   18.308601 O.3        1 MOL1        -0.5486
     105    H50     23.631892   21.847255   18.813308 H          1 MOL1         0.3769
     106    C31     21.361096   13.811317   21.918610 C.3        1 MOL1         0.2972
     107    H51     20.925852   12.805109   21.971677 H          1 MOL1         0.0751
     108    O26     20.340624   14.825691   21.910400 O.3        1 MOL1        -0.3740
     109    C32     22.267891   14.049247   23.149009 C.3        1 MOL1         0.1003
     110    H52     23.056431   13.285732   23.133064 H          1 MOL1         0.0783
     111    O27     21.504512   13.921354   24.359231 O.3        1 MOL1        -0.5519
     112    H53     20.569603   14.141105   24.125351 H          1 MOL1         0.3769
     113    C33     22.944245   15.437499   23.078304 C.3        1 MOL1         0.1053
     114    H54     22.163384   16.202200   23.192977 H          1 MOL1         0.0783
     115    O28     23.901175   15.556937   24.138317 O.3        1 MOL1        -0.5519
     116    H55     23.425435   15.256859   24.944249 H          1 MOL1         0.3769
     117    C34     23.643428   15.666741   21.716284 C.3        1 MOL1         0.1018
     118    H56     24.573308   15.083439   21.696796 H          1 MOL1         0.0783
     119    C35     22.732658   15.279369   20.514381 C.3        1 MOL1         0.1043
     120    H57     21.930266   16.025316   20.455771 H          1 MOL1         0.0783
     121    O29     22.157406   13.962781   20.726697 O.3        1 MOL1        -0.3740
     122    C36     23.448221   15.254291   19.142157 C.3        1 MOL1         0.0138
     123    H58     23.606645   16.286244   18.806565 H          1 MOL1         0.0794
     124    H59     22.779852   14.782452   18.409478 H          1 MOL1         0.0794
     125    O30     24.698422   14.554926   19.195451 O.3        1 MOL1        -0.5486
     126    H60     25.060019   14.523056   18.283139 H          1 MOL1         0.3769
     127    C1      20.001484   19.088207   20.775457 C.2        1 MOL1         0.6021
     128    O1      20.467415   18.093891   20.252498 O.co2      1 MOL1        -0.6904
     129    O2      19.366290   19.925398   20.163950 O.co2      1 MOL1        -0.6904
     130    C2      20.358375   19.376504   22.236490 C.3        1 MOL1        -0.2102
     131    H1      19.995513   20.377264   22.497746 H          1 MOL1         0.0687
     132    H2      21.449402   19.411219   22.304289 H          1 MOL1         0.0687
     133    C3      19.830655   18.336038   23.256288 C.3        1 MOL1        -0.1974
     134    H3      19.999833   17.323356   22.868177 H          1 MOL1         0.0689
     135    H4      20.407643   18.417743   24.187016 H          1 MOL1         0.0689
     136    C4      18.337825   18.537145   23.577806 C.3        1 MOL1        -0.2987
     137    H5      17.740396   18.491576   22.663039 H          1 MOL1         0.0700
     138    H6      17.977120   17.759318   24.262523 H          1 MOL1         0.0700
     139    H7      18.165215   19.513188   24.048467 H          1 MOL1         0.0700
@<TRIPOS>BOND
    1     1     2    1
    2     1     3    1
    3     1     4    1
    4     4     5    1
    5     4     6    1
    6     6     7    1
    7     4     8    1
    8     8     9    1
    9     8    10    1
   10    10    11    1
   11     8    12    1
   12    12    13    1
   13    12    14    1
   14    14    15    1
   15     1    16    1
   16    14    16    1
   17    14    17    1
   18    17    18    1
   19    17    19    1
   20    17    20    1
   21    20    21    1
   22    22    23    1
   23    22    24    1
   24    22    25    1
   25    25    26    1
   26    25    27    1
   27    27    28    1
   28    25    29    1
   29    29    30    1
   30    29    31    1
   31    31    32    1
   32     3    33    1
   33    29    33    1
   34    33    34    1
   35    33    35    1
   36    35    36    1
   37    22    37    1
   38    35    37    1
   39    35    38    1
   40    38    39    1
   41    38    40    1
   42    38    41    1
   43    41    42    1
   44    43    44    1
   45    43    45    1
   46    43    46    1
   47    46    47    1
   48    46    48    1
   49    48    49    1
   50    46    50    1
   51    50    51    1
   52    50    52    1
   53    52    53    1
   54    24    54    1
   55    50    54    1
   56    54    55    1
   57    54    56    1
   58    56    57    1
   59    43    58    1
   60    56    58    1
   61    56    59    1
   62    59    60    1
   63    59    61    1
   64    59    62    1
   65    62    63    1
   66    64    65    1
   67    64    66    1
   68    64    67    1
   69    67    68    1
   70    67    69    1
   71    69    70    1
   72    67    71    1
   73    71    72    1
   74    71    73    1
   75    73    74    1
   76    45    75    1
   77    71    75    1
   78    75    76    1
   79    75    77    1
   80    77    78    1
   81    64    79    1
   82    77    79    1
   83    77    80    1
   84    80    81    1
   85    80    82    1
   86    80    83    1
   87    83    84    1
   88    85    86    1
   89    85    87    1
   90    85    88    1
   91    88    89    1
   92    88    90    1
   93    90    91    1
   94    88    92    1
   95    92    93    1
   96    92    94    1
   97    94    95    1
   98    66    96    1
   99    92    96    1
  100    96    97    1
  101    96    98    1
  102    98    99    1
  103    85   100    1
  104    98   100    1
  105    98   101    1
  106   101   102    1
  107   101   103    1
  108   101   104    1
  109   104   105    1
  110   106   107    1
  111    12   108    1
  112   106   108    1
  113   106   109    1
  114   109   110    1
  115   109   111    1
  116   111   112    1
  117   109   113    1
  118   113   114    1
  119   113   115    1
  120   115   116    1
  121    87   117    1
  122   113   117    1
  123   117   118    1
  124   117   119    1
  125   119   120    1
  126   106   121    1
  127   119   121    1
  128   119   122    1
  129   122   123    1
  130   122   124    1
  131   122   125    1
  132   125   126    1
  133   127   128    1
  134   127   129    2
  135   127   130    1
  136   130   131    1
  137   130   132    1
  138   130   133    1
  139   133   134    1
  140   133   135    1
  141   133   136    1
  142   136   137    1
  143   136   138    1
  144   136   139    1
@<TRIPOS>SUBSTRUCTURE
       1 MOL1            1 RESIDUE      1      MOL     
       2 MOL1          139 RESIDUE      1      MOL     
@<SCITEGIC>MOL_PROPERTY
feprocess Rank
SciTegic.value.IntegerValue
92

@<SCITEGIC>MOL_PROPERTY
Conf_Id
SciTegic.value.IntegerValue
171

@<SCITEGIC>MOL_PROPERTY
Probability
SciTegic.value.DoubleValue
0.00

@<SCITEGIC>MOL_PROPERTY
G
SciTegic.value.DoubleValue
498.216

@<SCITEGIC>MOL_PROPERTY
E
SciTegic.value.DoubleValue
322.572

@<SCITEGIC>MOL_PROPERTY
-TS
SciTegic.value.DoubleValue
175.645

@<SCITEGIC>MOL_PROPERTY
U+W
SciTegic.value.DoubleValue
200.061

@<SCITEGIC>MOL_PROPERTY
U
SciTegic.value.DoubleValue
264.628

@<SCITEGIC>MOL_PROPERTY
W
SciTegic.value.DoubleValue
-64.567

@<SCITEGIC>MOL_PROPERTY
W(PB)
SciTegic.value.DoubleValue
-70.438

@<SCITEGIC>MOL_PROPERTY
W(SA)
SciTegic.value.DoubleValue
5.871

@<SCITEGIC>MOL_PROPERTY
Valence
SciTegic.value.DoubleValue
154.400

@<SCITEGIC>MOL_PROPERTY
Coulomb
SciTegic.value.DoubleValue
137.575

@<SCITEGIC>MOL_PROPERTY
VdW
SciTegic.value.DoubleValue
-27.347

@<SCITEGIC>MOL_PROPERTY
VdW6
SciTegic.value.DoubleValue
-179.220

@<SCITEGIC>MOL_PROPERTY
VdW12
SciTegic.value.DoubleValue
151.873

@<SCITEGIC>MOL_PROPERTY
Bond
SciTegic.value.DoubleValue
4.449

@<SCITEGIC>MOL_PROPERTY
Angle
SciTegic.value.DoubleValue
13.765

@<SCITEGIC>MOL_PROPERTY
Pdih
SciTegic.value.DoubleValue
136.155

@<SCITEGIC>MOL_PROPERTY
Idih
SciTegic.value.DoubleValue
0.031

@<SCITEGIC>MOL_PROPERTY
Tether
SciTegic.value.DoubleValue
0.000

@<TRIPOS>MOLECULE
CD_guest-6_fast_vm2_rndm.mol2 : feprocess host+ligand conformer 93
         139         144           2
SMALL
USER_CHARGES
 
@<TRIPOS>ATOM
       1    C1      16.095582   15.070427   21.490205 C.3        1 MOL1         0.2972
       2    H1      15.025713   14.874974   21.344156 H          1 MOL1         0.0751
       3    O1      16.337289   16.459901   21.776824 O.3        1 MOL1        -0.3740
       4    C2      16.616699   14.233468   22.686052 C.3        1 MOL1         0.1003
       5    H2      16.388569   13.181048   22.473559 H          1 MOL1         0.0783
       6    O2      15.946522   14.630522   23.891980 O.3        1 MOL1        -0.5519
       7    H3      15.885199   15.616743   23.856000 H          1 MOL1         0.3769
       8    C3      18.150379   14.361366   22.857655 C.3        1 MOL1         0.1053
       9    H4      18.373769   15.380163   23.203812 H          1 MOL1         0.0783
      10    O3      18.595305   13.406513   23.829851 O.3        1 MOL1        -0.5519
      11    H5      18.014806   13.548664   24.609405 H          1 MOL1         0.3769
      12    C4      18.898039   14.135221   21.520652 C.3        1 MOL1         0.1018
      13    H6      18.851651   13.068072   21.267773 H          1 MOL1         0.0783
      14    C5      18.270572   14.985668   20.380419 C.3        1 MOL1         0.1043
      15    H7      18.425242   16.041794   20.633871 H          1 MOL1         0.0783
      16    O4      16.847543   14.711899   20.311721 O.3        1 MOL1        -0.3740
      17    C6      18.864084   14.760066   18.967081 C.3        1 MOL1         0.0138
      18    H8      19.736832   15.413168   18.848109 H          1 MOL1         0.0794
      19    H9      18.125268   15.082587   18.221722 H          1 MOL1         0.0794
      20    O5      19.238631   13.400772   18.721683 O.3        1 MOL1        -0.5486
      21    H10     20.190161   13.328868   18.957410 H          1 MOL1         0.3769
      22    C7      14.721909   20.270145   21.059636 C.3        1 MOL1         0.2972
      23    H11     14.031378   21.072422   20.770380 H          1 MOL1         0.0751
      24    O6      15.995187   20.801535   21.473162 O.3        1 MOL1        -0.3740
      25    C8      14.128160   19.483681   22.255115 C.3        1 MOL1         0.1003
      26    H12     13.139900   19.117000   21.948694 H          1 MOL1         0.0783
      27    O7      13.981105   20.352467   23.389895 O.3        1 MOL1        -0.5519
      28    H13     14.754301   20.967490   23.371909 H          1 MOL1         0.3769
      29    C9      14.997193   18.255246   22.622490 C.3        1 MOL1         0.1053
      30    H14     15.944778   18.616987   23.045322 H          1 MOL1         0.0783
      31    O8      14.299329   17.462422   23.589954 O.3        1 MOL1        -0.5519
      32    H15     14.031165   18.093827   24.292958 H          1 MOL1         0.3769
      33    C10     15.320675   17.398826   21.373132 C.3        1 MOL1         0.1018
      34    H16     14.400958   16.895020   21.048463 H          1 MOL1         0.0783
      35    C11     15.868965   18.280708   20.216800 C.3        1 MOL1         0.1043
      36    H17     16.828529   18.700568   20.540863 H          1 MOL1         0.0783
      37    O9      14.932742   19.358288   19.960700 O.3        1 MOL1        -0.3740
      38    C12     16.124763   17.541435   18.879191 C.3        1 MOL1         0.0138
      39    H18     17.138650   17.125001   18.902772 H          1 MOL1         0.0794
      40    H19     16.103833   18.275131   18.062949 H          1 MOL1         0.0794
      41    O10     15.179258   16.499123   18.618483 O.3        1 MOL1        -0.5486
      42    H20     15.510323   15.698506   19.086990 H          1 MOL1         0.3769
      43    C13     18.570877   24.018499   20.700700 C.3        1 MOL1         0.2972
      44    H21     18.996017   24.975449   20.371752 H          1 MOL1         0.0751
      45    O11     19.594989   23.114894   21.158209 O.3        1 MOL1        -0.3740
      46    C14     17.535020   24.226310   21.838190 C.3        1 MOL1         0.1003
      47    H22     16.741380   24.870123   21.437327 H          1 MOL1         0.0783
      48    O12     18.122549   24.870697   22.978971 O.3        1 MOL1        -0.5519
      49    H23     18.890315   24.314341   23.267272 H          1 MOL1         0.3769
      50    C15     16.888991   22.878934   22.248191 C.3        1 MOL1         0.1053
      51    H24     17.664803   22.250155   22.707419 H          1 MOL1         0.0783
      52    O13     15.837810   23.122410   23.190077 O.3        1 MOL1        -0.5519
      53    H25     16.216791   23.753928   23.840846 H          1 MOL1         0.3769
      54    C16     16.323877   22.129822   21.015052 C.3        1 MOL1         0.1018
      55    H26     15.435757   22.672468   20.665760 H          1 MOL1         0.0783
      56    C17     17.372544   22.048977   19.866935 C.3        1 MOL1         0.1043
      57    H27     18.194463   21.403307   20.198182 H          1 MOL1         0.0783
      58    O14     17.885475   23.378959   19.602777 O.3        1 MOL1        -0.3740
      59    C18     16.855800   21.469295   18.526549 C.3        1 MOL1         0.0138
      60    H28     16.951765   20.378145   18.559188 H          1 MOL1         0.0794
      61    H29     17.513891   21.819073   17.720000 H          1 MOL1         0.0794
      62    O15     15.498758   21.824516   18.241051 O.3        1 MOL1        -0.5486
      63    H30     14.938947   21.113346   18.626339 H          1 MOL1         0.3769
      64    C19     23.621657   22.768302   21.984002 C.3        1 MOL1         0.2972
      65    H31     24.684909   22.903737   22.220461 H          1 MOL1         0.0751
      66    O16     23.326785   21.406859   21.607737 O.3        1 MOL1        -0.3740
      67    C20     22.746131   23.167117   23.199922 C.3        1 MOL1         0.1003
      68    H32     22.911650   24.236844   23.383216 H          1 MOL1         0.0783
      69    O17     23.101315   22.432355   24.381278 O.3        1 MOL1        -0.5519
      70    H33     23.730317   21.720995   24.104745 H          1 MOL1         0.3769
      71    C21     21.249598   22.967662   22.877638 C.3        1 MOL1         0.1053
      72    H34     21.077518   21.892737   22.744259 H          1 MOL1         0.0783
      73    O18     20.464591   23.452078   23.971825 O.3        1 MOL1        -0.5519
      74    H35     20.908330   23.090132   24.771910 H          1 MOL1         0.3769
      75    C22     20.849127   23.693626   21.569269 C.3        1 MOL1         0.1018
      76    H36     20.756311   24.767096   21.781239 H          1 MOL1         0.0783
      77    C23     21.868266   23.460459   20.413702 C.3        1 MOL1         0.1043
      78    H37     21.736541   22.433634   20.049664 H          1 MOL1         0.0783
      79    O19     23.233283   23.619476   20.884914 O.3        1 MOL1        -0.3740
      80    C24     21.655490   24.400216   19.203040 C.3        1 MOL1         0.0138
      81    H38     20.733515   24.099799   18.686948 H          1 MOL1         0.0794
      82    H39     22.485139   24.256056   18.498001 H          1 MOL1         0.0794
      83    O20     21.567236   25.776007   19.594769 O.3        1 MOL1        -0.5486
      84    H40     21.514357   26.316021   18.776091 H          1 MOL1         0.3769
      85    C25     25.080874   17.650652   21.316373 C.3        1 MOL1         0.2972
      86    H41     25.757615   16.800365   21.163258 H          1 MOL1         0.0751
      87    O21     23.735811   17.219946   21.598843 O.3        1 MOL1        -0.3740
      88    C26     25.563977   18.496530   22.517897 C.3        1 MOL1         0.1003
      89    H42     26.568458   18.868216   22.276945 H          1 MOL1         0.0783
      90    O22     25.629738   17.693626   23.707189 O.3        1 MOL1        -0.5519
      91    H43     24.937054   16.991517   23.617903 H          1 MOL1         0.3769
      92    C27     24.642441   19.719378   22.739463 C.3        1 MOL1         0.1053
      93    H44     23.657911   19.354251   23.065481 H          1 MOL1         0.0783
      94    O23     25.218677   20.547460   23.753536 O.3        1 MOL1        -0.5519
      95    H45     25.521563   19.918684   24.447798 H          1 MOL1         0.3769
      96    C28     24.452679   20.524920   21.427621 C.3        1 MOL1         0.1018
      97    H46     25.374372   21.079998   21.210996 H          1 MOL1         0.0783
      98    C29     24.117305   19.608646   20.216925 C.3        1 MOL1         0.1043
      99    H47     23.109969   19.208135   20.363257 H          1 MOL1         0.0783
     100    O24     25.051915   18.501120   20.148641 O.3        1 MOL1        -0.3740
     101    C30     24.102709   20.346062   18.855135 C.3        1 MOL1         0.0138
     102    H48     23.172222   20.924951   18.783911 H          1 MOL1         0.0794
     103    H49     24.078477   19.596911   18.052589 H          1 MOL1         0.0794
     104    O25     25.225723   21.218156   18.681782 O.3        1 MOL1        -0.5486
     105    H50     25.062233   22.016736   19.229109 H          1 MOL1         0.3769
     106    C31     21.324451   13.791264   21.222093 C.3        1 MOL1         0.2972
     107    H51     20.995064   12.773487   20.978207 H          1 MOL1         0.0751
     108    O26     20.248022   14.572856   21.763450 O.3        1 MOL1        -0.3740
     109    C32     22.433247   13.741698   22.306156 C.3        1 MOL1         0.1003
     110    H52     23.245571   13.112415   21.920229 H          1 MOL1         0.0783
     111    O27     21.913474   13.162667   23.513585 O.3        1 MOL1        -0.5519
     112    H53     21.003611   13.534287   23.623735 H          1 MOL1         0.3769
     113    C33     23.012962   15.150294   22.593658 C.3        1 MOL1         0.1053
     114    H54     22.233319   15.754663   23.078996 H          1 MOL1         0.0783
     115    O28     24.150152   15.029882   23.456675 O.3        1 MOL1        -0.5519
     116    H55     23.855572   14.437183   24.183367 H          1 MOL1         0.3769
     117    C34     23.419758   15.852730   21.277457 C.3        1 MOL1         0.1018
     118    H56     24.278351   15.322135   20.845548 H          1 MOL1         0.0783
     119    C35     22.249728   15.839961   20.260664 C.3        1 MOL1         0.1043
     120    H57     21.417576   16.411725   20.693196 H          1 MOL1         0.0783
     121    O29     21.840077   14.463354   20.050234 O.3        1 MOL1        -0.3740
     122    C36     22.582540   16.475498   18.886220 C.3        1 MOL1         0.0138
     123    H58     22.414744   17.556860   18.956300 H          1 MOL1         0.0794
     124    H59     21.875347   16.090765   18.140159 H          1 MOL1         0.0794
     125    O30     23.927643   16.230127   18.459926 O.3        1 MOL1        -0.5486
     126    H60     24.496597   16.884779   18.926855 H          1 MOL1         0.3769
     127    C1      19.288082   18.133294   23.015000 C.2        1 MOL1         0.6021
     128    O1      18.314849   17.898142   23.703875 O.co2      1 MOL1        -0.6904
     129    O2      20.250748   17.395666   22.934718 O.co2      1 MOL1        -0.6904
     130    C2      19.312868   19.478652   22.286546 C.3        1 MOL1        -0.2102
     131    H1      19.589287   20.225586   23.037610 H          1 MOL1         0.0687
     132    H2      18.292604   19.716082   21.975997 H          1 MOL1         0.0687
     133    C3      20.280240   19.582903   21.077030 C.3        1 MOL1        -0.1974
     134    H3      20.420089   20.637031   20.815457 H          1 MOL1         0.0689
     135    H4      21.261687   19.203965   21.383611 H          1 MOL1         0.0689
     136    C4      19.785226   18.826751   19.827512 C.3        1 MOL1        -0.2987
     137    H5      18.816130   19.210305   19.492724 H          1 MOL1         0.0700
     138    H6      20.495877   18.942684   19.000306 H          1 MOL1         0.0700
     139    H7      19.678374   17.758581   20.040955 H          1 MOL1         0.0700
@<TRIPOS>BOND
    1     1     2    1
    2     1     3    1
    3     1     4    1
    4     4     5    1
    5     4     6    1
    6     6     7    1
    7     4     8    1
    8     8     9    1
    9     8    10    1
   10    10    11    1
   11     8    12    1
   12    12    13    1
   13    12    14    1
   14    14    15    1
   15     1    16    1
   16    14    16    1
   17    14    17    1
   18    17    18    1
   19    17    19    1
   20    17    20    1
   21    20    21    1
   22    22    23    1
   23    22    24    1
   24    22    25    1
   25    25    26    1
   26    25    27    1
   27    27    28    1
   28    25    29    1
   29    29    30    1
   30    29    31    1
   31    31    32    1
   32     3    33    1
   33    29    33    1
   34    33    34    1
   35    33    35    1
   36    35    36    1
   37    22    37    1
   38    35    37    1
   39    35    38    1
   40    38    39    1
   41    38    40    1
   42    38    41    1
   43    41    42    1
   44    43    44    1
   45    43    45    1
   46    43    46    1
   47    46    47    1
   48    46    48    1
   49    48    49    1
   50    46    50    1
   51    50    51    1
   52    50    52    1
   53    52    53    1
   54    24    54    1
   55    50    54    1
   56    54    55    1
   57    54    56    1
   58    56    57    1
   59    43    58    1
   60    56    58    1
   61    56    59    1
   62    59    60    1
   63    59    61    1
   64    59    62    1
   65    62    63    1
   66    64    65    1
   67    64    66    1
   68    64    67    1
   69    67    68    1
   70    67    69    1
   71    69    70    1
   72    67    71    1
   73    71    72    1
   74    71    73    1
   75    73    74    1
   76    45    75    1
   77    71    75    1
   78    75    76    1
   79    75    77    1
   80    77    78    1
   81    64    79    1
   82    77    79    1
   83    77    80    1
   84    80    81    1
   85    80    82    1
   86    80    83    1
   87    83    84    1
   88    85    86    1
   89    85    87    1
   90    85    88    1
   91    88    89    1
   92    88    90    1
   93    90    91    1
   94    88    92    1
   95    92    93    1
   96    92    94    1
   97    94    95    1
   98    66    96    1
   99    92    96    1
  100    96    97    1
  101    96    98    1
  102    98    99    1
  103    85   100    1
  104    98   100    1
  105    98   101    1
  106   101   102    1
  107   101   103    1
  108   101   104    1
  109   104   105    1
  110   106   107    1
  111    12   108    1
  112   106   108    1
  113   106   109    1
  114   109   110    1
  115   109   111    1
  116   111   112    1
  117   109   113    1
  118   113   114    1
  119   113   115    1
  120   115   116    1
  121    87   117    1
  122   113   117    1
  123   117   118    1
  124   117   119    1
  125   119   120    1
  126   106   121    1
  127   119   121    1
  128   119   122    1
  129   122   123    1
  130   122   124    1
  131   122   125    1
  132   125   126    1
  133   127   128    1
  134   127   129    2
  135   127   130    1
  136   130   131    1
  137   130   132    1
  138   130   133    1
  139   133   134    1
  140   133   135    1
  141   133   136    1
  142   136   137    1
  143   136   138    1
  144   136   139    1
@<TRIPOS>SUBSTRUCTURE
       1 MOL1            1 RESIDUE      1      MOL     
       2 MOL1          139 RESIDUE      1      MOL     
@<SCITEGIC>MOL_PROPERTY
feprocess Rank
SciTegic.value.IntegerValue
93

@<SCITEGIC>MOL_PROPERTY
Conf_Id
SciTegic.value.IntegerValue
540

@<SCITEGIC>MOL_PROPERTY
Probability
SciTegic.value.DoubleValue
0.00

@<SCITEGIC>MOL_PROPERTY
G
SciTegic.value.DoubleValue
499.764

@<SCITEGIC>MOL_PROPERTY
E
SciTegic.value.DoubleValue
325.570

@<SCITEGIC>MOL_PROPERTY
-TS
SciTegic.value.DoubleValue
174.194

@<SCITEGIC>MOL_PROPERTY
U+W
SciTegic.value.DoubleValue
203.059

@<SCITEGIC>MOL_PROPERTY
U
SciTegic.value.DoubleValue
279.653

@<SCITEGIC>MOL_PROPERTY
W
SciTegic.value.DoubleValue
-76.594

@<SCITEGIC>MOL_PROPERTY
W(PB)
SciTegic.value.DoubleValue
-82.494

@<SCITEGIC>MOL_PROPERTY
W(SA)
SciTegic.value.DoubleValue
5.900

@<SCITEGIC>MOL_PROPERTY
Valence
SciTegic.value.DoubleValue
156.421

@<SCITEGIC>MOL_PROPERTY
Coulomb
SciTegic.value.DoubleValue
149.760

@<SCITEGIC>MOL_PROPERTY
VdW
SciTegic.value.DoubleValue
-26.528

@<SCITEGIC>MOL_PROPERTY
VdW6
SciTegic.value.DoubleValue
-176.512

@<SCITEGIC>MOL_PROPERTY
VdW12
SciTegic.value.DoubleValue
149.984

@<SCITEGIC>MOL_PROPERTY
Bond
SciTegic.value.DoubleValue
4.639

@<SCITEGIC>MOL_PROPERTY
Angle
SciTegic.value.DoubleValue
14.342

@<SCITEGIC>MOL_PROPERTY
Pdih
SciTegic.value.DoubleValue
137.431

@<SCITEGIC>MOL_PROPERTY
Idih
SciTegic.value.DoubleValue
0.010

@<SCITEGIC>MOL_PROPERTY
Tether
SciTegic.value.DoubleValue
0.000

@<TRIPOS>MOLECULE
CD_guest-6_fast_vm2_rndm.mol2 : feprocess host+ligand conformer 94
         139         144           2
SMALL
USER_CHARGES
 
@<TRIPOS>ATOM
       1    C1      16.188765   15.142194   20.989338 C.3        1 MOL1         0.2972
       2    H1      15.121022   14.984767   20.790376 H          1 MOL1         0.0751
       3    O1      16.472576   16.511692   21.332715 O.3        1 MOL1        -0.3740
       4    C2      16.637661   14.258009   22.176314 C.3        1 MOL1         0.1003
       5    H2      16.470440   13.211632   21.889370 H          1 MOL1         0.0783
       6    O2      15.863708   14.555711   23.349208 O.3        1 MOL1        -0.5519
       7    H3      15.595568   15.506588   23.281715 H          1 MOL1         0.3769
       8    C3      18.147355   14.439304   22.462428 C.3        1 MOL1         0.1053
       9    H4      18.307167   15.461586   22.834443 H          1 MOL1         0.0783
      10    O3      18.538748   13.488173   23.456821 O.3        1 MOL1        -0.5519
      11    H5      17.813746   13.510150   24.122538 H          1 MOL1         0.3769
      12    C4      18.990576   14.253030   21.173416 C.3        1 MOL1         0.1018
      13    H6      19.024842   13.186191   20.918058 H          1 MOL1         0.0783
      14    C5      18.406358   15.042442   19.967788 C.3        1 MOL1         0.1043
      15    H7      18.554195   16.109406   20.157739 H          1 MOL1         0.0783
      16    O4      16.984264   14.786863   19.836900 O.3        1 MOL1        -0.3740
      17    C6      19.103097   14.735499   18.619272 C.3        1 MOL1         0.0138
      18    H8      20.076319   15.244200   18.607497 H          1 MOL1         0.0794
      19    H9      18.502331   15.169860   17.809140 H          1 MOL1         0.0794
      20    O5      19.290476   13.332965   18.396385 O.3        1 MOL1        -0.5486
      21    H10     20.035771   13.043383   18.966061 H          1 MOL1         0.3769
      22    C7      14.710646   20.321647   21.037774 C.3        1 MOL1         0.2972
      23    H11     14.004021   21.124891   20.794209 H          1 MOL1         0.0751
      24    O6      15.894488   20.839996   21.664469 O.3        1 MOL1        -0.3740
      25    C8      14.062942   19.336740   22.046475 C.3        1 MOL1         0.1003
      26    H12     13.134621   18.963511   21.595117 H          1 MOL1         0.0783
      27    O7      13.756527   20.020520   23.271986 O.3        1 MOL1        -0.5519
      28    H13     14.523947   20.618710   23.448746 H          1 MOL1         0.3769
      29    C9      14.982700   18.120842   22.326734 C.3        1 MOL1         0.1053
      30    H14     15.867974   18.473822   22.874648 H          1 MOL1         0.0783
      31    O8      14.271050   17.156625   23.111802 O.3        1 MOL1        -0.5519
      32    H15     13.865026   17.674013   23.842284 H          1 MOL1         0.3769
      33    C10     15.458041   17.478355   21.002851 C.3        1 MOL1         0.1018
      34    H16     14.595307   17.016338   20.505377 H          1 MOL1         0.0783
      35    C11     16.076588   18.543982   20.062106 C.3        1 MOL1         0.1043
      36    H17     16.963450   18.961180   20.557761 H          1 MOL1         0.0783
      37    O9      15.096332   19.593357   19.849597 O.3        1 MOL1        -0.3740
      38    C12     16.530775   18.000530   18.682868 C.3        1 MOL1         0.0138
      39    H18     17.549851   17.608803   18.784997 H          1 MOL1         0.0794
      40    H19     16.580494   18.837092   17.974036 H          1 MOL1         0.0794
      41    O10     15.675634   16.972505   18.169716 O.3        1 MOL1        -0.5486
      42    H20     15.935221   16.136172   18.620942 H          1 MOL1         0.3769
      43    C13     18.403576   24.197729   21.665942 C.3        1 MOL1         0.2972
      44    H21     18.772842   25.227759   21.583483 H          1 MOL1         0.0751
      45    O11     19.472729   23.282951   21.967855 O.3        1 MOL1        -0.3740
      46    C14     17.359255   24.111342   22.807791 C.3        1 MOL1         0.1003
      47    H22     16.571458   24.843188   22.587413 H          1 MOL1         0.0783
      48    O12     17.975499   24.440110   24.062177 O.3        1 MOL1        -0.5519
      49    H23     18.862846   24.003747   24.051588 H          1 MOL1         0.3769
      50    C15     16.699542   22.712370   22.884238 C.3        1 MOL1         0.1053
      51    H24     17.453775   21.995304   23.237337 H          1 MOL1         0.0783
      52    O13     15.602269   22.760566   23.805410 O.3        1 MOL1        -0.5519
      53    H25     15.974264   23.158556   24.622798 H          1 MOL1         0.3769
      54    C16     16.199644   22.237200   21.497800 C.3        1 MOL1         0.1018
      55    H26     15.311329   22.821451   21.224954 H          1 MOL1         0.0783
      56    C17     17.306377   22.405962   20.418811 C.3        1 MOL1         0.1043
      57    H27     18.131994   21.734254   20.685068 H          1 MOL1         0.0783
      58    O14     17.779118   23.777444   20.434638 O.3        1 MOL1        -0.3740
      59    C18     16.887806   22.067458   18.965907 C.3        1 MOL1         0.0138
      60    H28     17.026342   20.991605   18.805716 H          1 MOL1         0.0794
      61    H29     17.571888   22.579266   18.276383 H          1 MOL1         0.0794
      62    O15     15.536412   22.431960   18.667454 O.3        1 MOL1        -0.5486
      63    H30     14.989538   21.634064   18.841965 H          1 MOL1         0.3769
      64    C19     23.612591   22.814451   21.435635 C.3        1 MOL1         0.2972
      65    H31     24.666165   23.027964   21.215292 H          1 MOL1         0.0751
      66    O16     23.416729   21.421855   21.747769 O.3        1 MOL1        -0.3740
      67    C20     23.164836   23.642021   22.666443 C.3        1 MOL1         0.1003
      68    H32     23.356382   24.698695   22.438941 H          1 MOL1         0.0783
      69    O17     23.930033   23.258897   23.820503 O.3        1 MOL1        -0.5519
      70    H33     24.081092   22.285320   23.744215 H          1 MOL1         0.3769
      71    C21     21.649283   23.483746   22.944234 C.3        1 MOL1         0.1053
      72    H34     21.467541   22.457075   23.291236 H          1 MOL1         0.0783
      73    O18     21.259776   24.419720   23.956164 O.3        1 MOL1        -0.5519
      74    H35     21.901685   24.287501   24.687781 H          1 MOL1         0.3769
      75    C22     20.813015   23.716166   21.661448 C.3        1 MOL1         0.1018
      76    H36     20.852520   24.783787   21.409000 H          1 MOL1         0.0783
      77    C23     21.363795   22.877545   20.474461 C.3        1 MOL1         0.1043
      78    H37     21.231642   21.817922   20.722338 H          1 MOL1         0.0783
      79    O19     22.776549   23.161768   20.311223 O.3        1 MOL1        -0.3740
      80    C24     20.666921   23.114717   19.110964 C.3        1 MOL1         0.0138
      81    H38     19.799305   22.447551   19.045745 H          1 MOL1         0.0794
      82    H39     21.354802   22.817677   18.308703 H          1 MOL1         0.0794
      83    O20     20.250716   24.470072   18.915915 O.3        1 MOL1        -0.5486
      84    H40     19.362105   24.551170   19.332562 H          1 MOL1         0.3769
      85    C25     24.977749   17.643064   20.807112 C.3        1 MOL1         0.2972
      86    H41     25.620251   16.827705   20.453272 H          1 MOL1         0.0751
      87    O21     23.665612   17.163989   21.162379 O.3        1 MOL1        -0.3740
      88    C26     25.615094   18.368290   22.022905 C.3        1 MOL1         0.1003
      89    H42     26.579784   18.769725   21.686161 H          1 MOL1         0.0783
      90    O22     25.848084   17.467915   23.116231 O.3        1 MOL1        -0.5519
      91    H43     24.969012   17.095278   23.381047 H          1 MOL1         0.3769
      92    C27     24.739233   19.564520   22.472666 C.3        1 MOL1         0.1053
      93    H44     23.788873   19.171244   22.860408 H          1 MOL1         0.0783
      94    O23     25.421291   20.294916   23.498682 O.3        1 MOL1        -0.5519
      95    H45     25.756408   19.612940   24.121905 H          1 MOL1         0.3769
      96    C28     24.427646   20.504308   21.280545 C.3        1 MOL1         0.1018
      97    H46     25.355026   21.024372   21.007119 H          1 MOL1         0.0783
      98    C29     23.894183   19.708672   20.053060 C.3        1 MOL1         0.1043
      99    H47     22.912806   19.294766   20.313301 H          1 MOL1         0.0783
     100    O24     24.810048   18.622967   19.760967 O.3        1 MOL1        -0.3740
     101    C30     23.707207   20.529361   18.752639 C.3        1 MOL1         0.0138
     102    H48     22.711233   20.986153   18.769528 H          1 MOL1         0.0794
     103    H49     23.721807   19.837532   17.899932 H          1 MOL1         0.0794
     104    O25     24.699699   21.545841   18.576653 O.3        1 MOL1        -0.5486
     105    H50     24.342974   22.358283   19.001482 H          1 MOL1         0.3769
     106    C31     21.316908   13.845666   21.847103 C.3        1 MOL1         0.2972
     107    H51     20.889328   12.855928   22.053040 H          1 MOL1         0.0751
     108    O26     20.308249   14.784804   21.419513 O.3        1 MOL1        -0.3740
     109    C32     22.035120   14.393686   23.107021 C.3        1 MOL1         0.1003
     110    H52     22.863991   13.709748   23.331685 H          1 MOL1         0.0783
     111    O27     21.159579   14.452124   24.243513 O.3        1 MOL1        -0.5519
     112    H53     20.253845   14.212934   23.926983 H          1 MOL1         0.3769
     113    C33     22.633329   15.788580   22.825562 C.3        1 MOL1         0.1053
     114    H54     21.797969   16.477611   22.654367 H          1 MOL1         0.0783
     115    O28     23.385502   16.212778   23.966180 O.3        1 MOL1        -0.5519
     116    H55     22.805058   16.005241   24.733264 H          1 MOL1         0.3769
     117    C34     23.530446   15.784776   21.561606 C.3        1 MOL1         0.1018
     118    H56     24.496668   15.333905   21.821251 H          1 MOL1         0.0783
     119    C35     22.881254   15.023360   20.366791 C.3        1 MOL1         0.1043
     120    H57     22.080583   15.656230   19.962267 H          1 MOL1         0.0783
     121    O29     22.307791   13.761973   20.801628 O.3        1 MOL1        -0.3740
     122    C36     23.861961   14.735803   19.204059 C.3        1 MOL1         0.0138
     123    H58     24.172599   15.690366   18.758148 H          1 MOL1         0.0794
     124    H59     23.321401   14.179380   18.426880 H          1 MOL1         0.0794
     125    O30     25.012236   13.989578   19.624441 O.3        1 MOL1        -0.5486
     126    H60     25.547851   14.552836   20.219596 H          1 MOL1         0.3769
     127    C1      19.390325   19.824565   23.007379 C.2        1 MOL1         0.6021
     128    O1      19.625622   20.743076   23.767583 O.co2      1 MOL1        -0.6904
     129    O2      18.282582   19.352052   22.844294 O.co2      1 MOL1        -0.6904
     130    C2      20.587236   19.190386   22.295819 C.3        1 MOL1        -0.2102
     131    H1      21.073104   18.547571   23.036527 H          1 MOL1         0.0687
     132    H2      21.301114   19.982799   22.060109 H          1 MOL1         0.0687
     133    C3      20.266291   18.361105   21.023088 C.3        1 MOL1        -0.1974
     134    H3      21.130237   17.738299   20.767470 H          1 MOL1         0.0689
     135    H4      19.444323   17.674553   21.254214 H          1 MOL1         0.0689
     136    C4      19.905968   19.228650   19.800150 C.3        1 MOL1        -0.2987
     137    H5      20.726497   19.905464   19.541165 H          1 MOL1         0.0700
     138    H6      19.702864   18.597597   18.926438 H          1 MOL1         0.0700
     139    H7      19.014286   19.829710   20.003715 H          1 MOL1         0.0700
@<TRIPOS>BOND
    1     1     2    1
    2     1     3    1
    3     1     4    1
    4     4     5    1
    5     4     6    1
    6     6     7    1
    7     4     8    1
    8     8     9    1
    9     8    10    1
   10    10    11    1
   11     8    12    1
   12    12    13    1
   13    12    14    1
   14    14    15    1
   15     1    16    1
   16    14    16    1
   17    14    17    1
   18    17    18    1
   19    17    19    1
   20    17    20    1
   21    20    21    1
   22    22    23    1
   23    22    24    1
   24    22    25    1
   25    25    26    1
   26    25    27    1
   27    27    28    1
   28    25    29    1
   29    29    30    1
   30    29    31    1
   31    31    32    1
   32     3    33    1
   33    29    33    1
   34    33    34    1
   35    33    35    1
   36    35    36    1
   37    22    37    1
   38    35    37    1
   39    35    38    1
   40    38    39    1
   41    38    40    1
   42    38    41    1
   43    41    42    1
   44    43    44    1
   45    43    45    1
   46    43    46    1
   47    46    47    1
   48    46    48    1
   49    48    49    1
   50    46    50    1
   51    50    51    1
   52    50    52    1
   53    52    53    1
   54    24    54    1
   55    50    54    1
   56    54    55    1
   57    54    56    1
   58    56    57    1
   59    43    58    1
   60    56    58    1
   61    56    59    1
   62    59    60    1
   63    59    61    1
   64    59    62    1
   65    62    63    1
   66    64    65    1
   67    64    66    1
   68    64    67    1
   69    67    68    1
   70    67    69    1
   71    69    70    1
   72    67    71    1
   73    71    72    1
   74    71    73    1
   75    73    74    1
   76    45    75    1
   77    71    75    1
   78    75    76    1
   79    75    77    1
   80    77    78    1
   81    64    79    1
   82    77    79    1
   83    77    80    1
   84    80    81    1
   85    80    82    1
   86    80    83    1
   87    83    84    1
   88    85    86    1
   89    85    87    1
   90    85    88    1
   91    88    89    1
   92    88    90    1
   93    90    91    1
   94    88    92    1
   95    92    93    1
   96    92    94    1
   97    94    95    1
   98    66    96    1
   99    92    96    1
  100    96    97    1
  101    96    98    1
  102    98    99    1
  103    85   100    1
  104    98   100    1
  105    98   101    1
  106   101   102    1
  107   101   103    1
  108   101   104    1
  109   104   105    1
  110   106   107    1
  111    12   108    1
  112   106   108    1
  113   106   109    1
  114   109   110    1
  115   109   111    1
  116   111   112    1
  117   109   113    1
  118   113   114    1
  119   113   115    1
  120   115   116    1
  121    87   117    1
  122   113   117    1
  123   117   118    1
  124   117   119    1
  125   119   120    1
  126   106   121    1
  127   119   121    1
  128   119   122    1
  129   122   123    1
  130   122   124    1
  131   122   125    1
  132   125   126    1
  133   127   128    1
  134   127   129    2
  135   127   130    1
  136   130   131    1
  137   130   132    1
  138   130   133    1
  139   133   134    1
  140   133   135    1
  141   133   136    1
  142   136   137    1
  143   136   138    1
  144   136   139    1
@<TRIPOS>SUBSTRUCTURE
       1 MOL1            1 RESIDUE      1      MOL     
       2 MOL1          139 RESIDUE      1      MOL     
@<SCITEGIC>MOL_PROPERTY
feprocess Rank
SciTegic.value.IntegerValue
94

@<SCITEGIC>MOL_PROPERTY
Conf_Id
SciTegic.value.IntegerValue
40

@<SCITEGIC>MOL_PROPERTY
Probability
SciTegic.value.DoubleValue
0.00

@<SCITEGIC>MOL_PROPERTY
G
SciTegic.value.DoubleValue
501.650

@<SCITEGIC>MOL_PROPERTY
E
SciTegic.value.DoubleValue
327.514

@<SCITEGIC>MOL_PROPERTY
-TS
SciTegic.value.DoubleValue
174.136

@<SCITEGIC>MOL_PROPERTY
U+W
SciTegic.value.DoubleValue
205.002

@<SCITEGIC>MOL_PROPERTY
U
SciTegic.value.DoubleValue
281.352

@<SCITEGIC>MOL_PROPERTY
W
SciTegic.value.DoubleValue
-76.349

@<SCITEGIC>MOL_PROPERTY
W(PB)
SciTegic.value.DoubleValue
-82.221

@<SCITEGIC>MOL_PROPERTY
W(SA)
SciTegic.value.DoubleValue
5.872

@<SCITEGIC>MOL_PROPERTY
Valence
SciTegic.value.DoubleValue
157.051

@<SCITEGIC>MOL_PROPERTY
Coulomb
SciTegic.value.DoubleValue
151.030

@<SCITEGIC>MOL_PROPERTY
VdW
SciTegic.value.DoubleValue
-26.730

@<SCITEGIC>MOL_PROPERTY
VdW6
SciTegic.value.DoubleValue
-176.496

@<SCITEGIC>MOL_PROPERTY
VdW12
SciTegic.value.DoubleValue
149.767

@<SCITEGIC>MOL_PROPERTY
Bond
SciTegic.value.DoubleValue
4.648

@<SCITEGIC>MOL_PROPERTY
Angle
SciTegic.value.DoubleValue
14.770

@<SCITEGIC>MOL_PROPERTY
Pdih
SciTegic.value.DoubleValue
137.623

@<SCITEGIC>MOL_PROPERTY
Idih
SciTegic.value.DoubleValue
0.010

@<SCITEGIC>MOL_PROPERTY
Tether
SciTegic.value.DoubleValue
0.000

@<TRIPOS>MOLECULE
CD_guest-6_fast_vm2_rndm.mol2 : feprocess host+ligand conformer 95
         139         144           2
SMALL
USER_CHARGES
 
@<TRIPOS>ATOM
       1    C1      15.779566   15.110012   21.057305 C.3        1 MOL1         0.2972
       2    H1      14.772321   14.809116   20.741553 H          1 MOL1         0.0751
       3    O1      15.721280   16.268361   21.913855 O.3        1 MOL1        -0.3740
       4    C2      16.445949   13.963673   21.865532 C.3        1 MOL1         0.1003
       5    H2      16.425908   13.063892   21.236934 H          1 MOL1         0.0783
       6    O2      15.710551   13.716098   23.072939 O.3        1 MOL1        -0.5519
       7    H3      15.517021   14.602979   23.455073 H          1 MOL1         0.3769
       8    C3      17.926596   14.278628   22.201498 C.3        1 MOL1         0.1053
       9    H4      17.951640   15.112392   22.916120 H          1 MOL1         0.0783
      10    O3      18.538545   13.119794   22.779345 O.3        1 MOL1        -0.5519
      11    H5      17.908312   12.810521   23.467042 H          1 MOL1         0.3769
      12    C4      18.702827   14.704158   20.933991 C.3        1 MOL1         0.1018
      13    H6      18.767943   13.832288   20.269803 H          1 MOL1         0.0783
      14    C5      17.957636   15.849263   20.196313 C.3        1 MOL1         0.1043
      15    H7      17.914294   16.718257   20.857231 H          1 MOL1         0.0783
      16    O4      16.612052   15.402368   19.911291 O.3        1 MOL1        -0.3740
      17    C6      18.599417   16.325807   18.870469 C.3        1 MOL1         0.0138
      18    H8      19.390744   17.047541   19.109279 H          1 MOL1         0.0794
      19    H9      17.839495   16.865097   18.289498 H          1 MOL1         0.0794
      20    O5      19.142272   15.255234   18.091502 O.3        1 MOL1        -0.5486
      21    H10     20.089421   15.178612   18.348238 H          1 MOL1         0.3769
      22    C7      14.571160   20.168541   21.587220 C.3        1 MOL1         0.2972
      23    H11     14.102782   21.157176   21.494437 H          1 MOL1         0.0751
      24    O6      16.008816   20.269775   21.626141 O.3        1 MOL1        -0.3740
      25    C8      14.054270   19.477573   22.865273 C.3        1 MOL1         0.1003
      26    H12     12.969783   19.348794   22.753115 H          1 MOL1         0.0783
      27    O7      14.319404   20.293136   24.017818 O.3        1 MOL1        -0.5519
      28    H13     14.990799   20.964210   23.741485 H          1 MOL1         0.3769
      29    C9      14.685132   18.079887   23.032488 C.3        1 MOL1         0.1053
      30    H14     15.735826   18.234850   23.299640 H          1 MOL1         0.0783
      31    O8      14.027755   17.401550   24.107941 O.3        1 MOL1        -0.5519
      32    H15     14.017706   18.049385   24.846897 H          1 MOL1         0.3769
      33    C10     14.630350   17.210156   21.742267 C.3        1 MOL1         0.1018
      34    H16     13.666374   16.685991   21.730339 H          1 MOL1         0.0783
      35    C11     14.810785   18.016809   20.408831 C.3        1 MOL1         0.1043
      36    H17     15.886390   18.127329   20.232950 H          1 MOL1         0.0783
      37    O9      14.209386   19.336371   20.474980 O.3        1 MOL1        -0.3740
      38    C12     14.182390   17.347174   19.157398 C.3        1 MOL1         0.0138
      39    H18     14.785685   16.489807   18.843902 H          1 MOL1         0.0794
      40    H19     14.213624   18.067649   18.328749 H          1 MOL1         0.0794
      41    O10     12.832228   16.927807   19.390246 O.3        1 MOL1        -0.5486
      42    H20     12.472327   16.594957   18.539167 H          1 MOL1         0.3769
      43    C13     18.748854   23.369218   20.678660 C.3        1 MOL1         0.2972
      44    H21     19.090650   24.294118   20.196961 H          1 MOL1         0.0751
      45    O11     19.821101   22.738354   21.407341 O.3        1 MOL1        -0.3740
      46    C14     17.603377   23.714201   21.670093 C.3        1 MOL1         0.1003
      47    H22     16.850429   24.279949   21.106090 H          1 MOL1         0.0783
      48    O12     18.096642   24.533980   22.741549 O.3        1 MOL1        -0.5519
      49    H23     19.068674   24.360411   22.808956 H          1 MOL1         0.3769
      50    C15     16.910848   22.448227   22.231215 C.3        1 MOL1         0.1053
      51    H24     17.617857   21.935135   22.894411 H          1 MOL1         0.0783
      52    O13     15.743389   22.830859   22.966501 O.3        1 MOL1        -0.5519
      53    H25     16.036753   23.574921   23.538613 H          1 MOL1         0.3769
      54    C16     16.532469   21.493853   21.073719 C.3        1 MOL1         0.1018
      55    H26     15.789941   21.990979   20.434781 H          1 MOL1         0.0783
      56    C17     17.775591   21.176437   20.205899 C.3        1 MOL1         0.1043
      57    H27     18.540905   20.705397   20.836706 H          1 MOL1         0.0783
      58    O14     18.274104   22.432830   19.683771 O.3        1 MOL1        -0.3740
      59    C18     17.501408   20.218856   19.019043 C.3        1 MOL1         0.0138
      60    H28     17.581945   19.188320   19.385591 H          1 MOL1         0.0794
      61    H29     18.291556   20.352166   18.268238 H          1 MOL1         0.0794
      62    O15     16.214914   20.420916   18.420575 O.3        1 MOL1        -0.5486
      63    H30     15.534800   20.178254   19.090816 H          1 MOL1         0.3769
      64    C19     24.067223   22.806787   21.284119 C.3        1 MOL1         0.2972
      65    H31     25.084211   23.088162   20.982313 H          1 MOL1         0.0751
      66    O16     24.095940   21.749640   22.258528 O.3        1 MOL1        -0.3740
      67    C20     23.350548   24.014562   21.948704 C.3        1 MOL1         0.1003
      68    H32     23.374396   24.846787   21.233234 H          1 MOL1         0.0783
      69    O17     24.036215   24.399643   23.149421 O.3        1 MOL1        -0.5519
      70    H33     24.210783   23.560825   23.635229 H          1 MOL1         0.3769
      71    C21     21.865563   23.696487   22.266252 C.3        1 MOL1         0.1053
      72    H34     21.831203   22.922960   23.046646 H          1 MOL1         0.0783
      73    O18     21.209951   24.886182   22.721081 O.3        1 MOL1        -0.5519
      74    H35     21.816371   25.274802   23.389865 H          1 MOL1         0.3769
      75    C22     21.149735   23.148035   21.012096 C.3        1 MOL1         0.1018
      76    H36     21.122476   23.947799   20.260364 H          1 MOL1         0.0783
      77    C23     21.930493   21.944114   20.424237 C.3        1 MOL1         0.1043
      78    H37     21.950458   21.138798   21.169260 H          1 MOL1         0.0783
      79    O19     23.283055   22.382196   20.144185 O.3        1 MOL1        -0.3740
      80    C24     21.337418   21.361381   19.117038 C.3        1 MOL1         0.0138
      81    H38     20.541259   20.655127   19.384397 H          1 MOL1         0.0794
      82    H39     22.121160   20.786852   18.606112 H          1 MOL1         0.0794
      83    O20     20.819778   22.362447   18.233882 O.3        1 MOL1        -0.5486
      84    H40     19.906191   22.565262   18.542360 H          1 MOL1         0.3769
      85    C25     25.175628   17.773817   22.200928 C.3        1 MOL1         0.2972
      86    H41     25.661095   16.789998   22.221558 H          1 MOL1         0.0751
      87    O21     23.761219   17.644636   21.989545 O.3        1 MOL1        -0.3740
      88    C26     25.451031   18.514519   23.530807 C.3        1 MOL1         0.1003
      89    H42     26.540812   18.588398   23.636974 H          1 MOL1         0.0783
      90    O22     24.914217   17.784636   24.644260 O.3        1 MOL1        -0.5519
      91    H43     23.923650   17.771470   24.511589 H          1 MOL1         0.3769
      92    C27     24.873337   19.945815   23.533166 C.3        1 MOL1         0.1053
      93    H44     23.786386   19.852826   23.621818 H          1 MOL1         0.0783
      94    O23     25.381274   20.645074   24.676163 O.3        1 MOL1        -0.5519
      95    H45     25.201249   20.048893   25.435992 H          1 MOL1         0.3769
      96    C28     25.157553   20.759382   22.243264 C.3        1 MOL1         0.1018
      97    H46     26.139470   21.238616   22.342259 H          1 MOL1         0.0783
      98    C29     25.113970   19.895083   20.939147 C.3        1 MOL1         0.1043
      99    H47     24.061017   19.774412   20.667747 H          1 MOL1         0.0783
     100    O24     25.708924   18.583081   21.135765 O.3        1 MOL1        -0.3740
     101    C30     25.860769   20.510903   19.725610 C.3        1 MOL1         0.0138
     102    H48     25.274520   21.332241   19.301268 H          1 MOL1         0.0794
     103    H49     25.933762   19.745651   18.941039 H          1 MOL1         0.0794
     104    O25     27.168887   20.979980   20.074924 O.3        1 MOL1        -0.5486
     105    H50     27.611391   21.272624   19.248335 H          1 MOL1         0.3769
     106    C31     21.117826   14.627425   20.606683 C.3        1 MOL1         0.2972
     107    H51     20.808669   13.765721   20.001925 H          1 MOL1         0.0751
     108    O26     20.008416   15.148943   21.365518 O.3        1 MOL1        -0.3740
     109    C32     22.233012   14.175105   21.588262 C.3        1 MOL1         0.1003
     110    H52     22.989969   13.657870   20.984463 H          1 MOL1         0.0783
     111    O27     21.701351   13.251925   22.552800 O.3        1 MOL1        -0.5519
     112    H53     20.756608   13.506853   22.699573 H          1 MOL1         0.3769
     113    C33     22.945428   15.356356   22.299115 C.3        1 MOL1         0.1053
     114    H54     22.261098   15.788426   23.043422 H          1 MOL1         0.0783
     115    O28     24.120304   14.843388   22.936855 O.3        1 MOL1        -0.5519
     116    H55     23.804381   14.109695   23.507442 H          1 MOL1         0.3769
     117    C34     23.319895   16.467086   21.285048 C.3        1 MOL1         0.1018
     118    H56     24.100604   16.094152   20.609242 H          1 MOL1         0.0783
     119    C35     22.077905   16.858243   20.448635 C.3        1 MOL1         0.1043
     120    H57     21.299500   17.226357   21.131643 H          1 MOL1         0.0783
     121    O29     21.614264   15.677955   19.751415 O.3        1 MOL1        -0.3740
     122    C36     22.341205   17.973476   19.412963 C.3        1 MOL1         0.0138
     123    H58     22.273512   18.928083   19.946562 H          1 MOL1         0.0794
     124    H59     21.540284   17.963980   18.662711 H          1 MOL1         0.0794
     125    O30     23.620604   17.855790   18.777574 O.3        1 MOL1        -0.5486
     126    H60     24.299469   17.922873   19.486774 H          1 MOL1         0.3769
     127    C1      21.330800   18.882737   23.914355 C.2        1 MOL1         0.6021
     128    O1      22.108472   18.133911   24.478544 O.co2      1 MOL1        -0.6904
     129    O2      21.519216   19.358585   22.809103 O.co2      1 MOL1        -0.6904
     130    C2      20.052459   19.261023   24.661916 C.3        1 MOL1        -0.2102
     131    H1      20.256252   20.191773   25.202885 H          1 MOL1         0.0687
     132    H2      19.847642   18.488315   25.412483 H          1 MOL1         0.0687
     133    C3      18.816674   19.450343   23.749152 C.3        1 MOL1        -0.1974
     134    H3      17.964420   19.812591   24.339385 H          1 MOL1         0.0689
     135    H4      19.046054   20.223716   23.006240 H          1 MOL1         0.0689
     136    C4      18.430960   18.146448   23.028090 C.3        1 MOL1        -0.2987
     137    H5      18.062140   17.397306   23.739732 H          1 MOL1         0.0700
     138    H6      17.649052   18.344348   22.289612 H          1 MOL1         0.0700
     139    H7      19.290717   17.720837   22.495659 H          1 MOL1         0.0700
@<TRIPOS>BOND
    1     1     2    1
    2     1     3    1
    3     1     4    1
    4     4     5    1
    5     4     6    1
    6     6     7    1
    7     4     8    1
    8     8     9    1
    9     8    10    1
   10    10    11    1
   11     8    12    1
   12    12    13    1
   13    12    14    1
   14    14    15    1
   15     1    16    1
   16    14    16    1
   17    14    17    1
   18    17    18    1
   19    17    19    1
   20    17    20    1
   21    20    21    1
   22    22    23    1
   23    22    24    1
   24    22    25    1
   25    25    26    1
   26    25    27    1
   27    27    28    1
   28    25    29    1
   29    29    30    1
   30    29    31    1
   31    31    32    1
   32     3    33    1
   33    29    33    1
   34    33    34    1
   35    33    35    1
   36    35    36    1
   37    22    37    1
   38    35    37    1
   39    35    38    1
   40    38    39    1
   41    38    40    1
   42    38    41    1
   43    41    42    1
   44    43    44    1
   45    43    45    1
   46    43    46    1
   47    46    47    1
   48    46    48    1
   49    48    49    1
   50    46    50    1
   51    50    51    1
   52    50    52    1
   53    52    53    1
   54    24    54    1
   55    50    54    1
   56    54    55    1
   57    54    56    1
   58    56    57    1
   59    43    58    1
   60    56    58    1
   61    56    59    1
   62    59    60    1
   63    59    61    1
   64    59    62    1
   65    62    63    1
   66    64    65    1
   67    64    66    1
   68    64    67    1
   69    67    68    1
   70    67    69    1
   71    69    70    1
   72    67    71    1
   73    71    72    1
   74    71    73    1
   75    73    74    1
   76    45    75    1
   77    71    75    1
   78    75    76    1
   79    75    77    1
   80    77    78    1
   81    64    79    1
   82    77    79    1
   83    77    80    1
   84    80    81    1
   85    80    82    1
   86    80    83    1
   87    83    84    1
   88    85    86    1
   89    85    87    1
   90    85    88    1
   91    88    89    1
   92    88    90    1
   93    90    91    1
   94    88    92    1
   95    92    93    1
   96    92    94    1
   97    94    95    1
   98    66    96    1
   99    92    96    1
  100    96    97    1
  101    96    98    1
  102    98    99    1
  103    85   100    1
  104    98   100    1
  105    98   101    1
  106   101   102    1
  107   101   103    1
  108   101   104    1
  109   104   105    1
  110   106   107    1
  111    12   108    1
  112   106   108    1
  113   106   109    1
  114   109   110    1
  115   109   111    1
  116   111   112    1
  117   109   113    1
  118   113   114    1
  119   113   115    1
  120   115   116    1
  121    87   117    1
  122   113   117    1
  123   117   118    1
  124   117   119    1
  125   119   120    1
  126   106   121    1
  127   119   121    1
  128   119   122    1
  129   122   123    1
  130   122   124    1
  131   122   125    1
  132   125   126    1
  133   127   128    1
  134   127   129    2
  135   127   130    1
  136   130   131    1
  137   130   132    1
  138   130   133    1
  139   133   134    1
  140   133   135    1
  141   133   136    1
  142   136   137    1
  143   136   138    1
  144   136   139    1
@<TRIPOS>SUBSTRUCTURE
       1 MOL1            1 RESIDUE      1      MOL     
       2 MOL1          139 RESIDUE      1      MOL     
@<SCITEGIC>MOL_PROPERTY
feprocess Rank
SciTegic.value.IntegerValue
95

@<SCITEGIC>MOL_PROPERTY
Conf_Id
SciTegic.value.IntegerValue
468

@<SCITEGIC>MOL_PROPERTY
Probability
SciTegic.value.DoubleValue
0.00

@<SCITEGIC>MOL_PROPERTY
G
SciTegic.value.DoubleValue
507.151

@<SCITEGIC>MOL_PROPERTY
E
SciTegic.value.DoubleValue
330.208

@<SCITEGIC>MOL_PROPERTY
-TS
SciTegic.value.DoubleValue
176.943

@<SCITEGIC>MOL_PROPERTY
U+W
SciTegic.value.DoubleValue
207.697

@<SCITEGIC>MOL_PROPERTY
U
SciTegic.value.DoubleValue
277.043

@<SCITEGIC>MOL_PROPERTY
W
SciTegic.value.DoubleValue
-69.347

@<SCITEGIC>MOL_PROPERTY
W(PB)
SciTegic.value.DoubleValue
-75.205

@<SCITEGIC>MOL_PROPERTY
W(SA)
SciTegic.value.DoubleValue
5.858

@<SCITEGIC>MOL_PROPERTY
Valence
SciTegic.value.DoubleValue
153.929

@<SCITEGIC>MOL_PROPERTY
Coulomb
SciTegic.value.DoubleValue
147.700

@<SCITEGIC>MOL_PROPERTY
VdW
SciTegic.value.DoubleValue
-24.586

@<SCITEGIC>MOL_PROPERTY
VdW6
SciTegic.value.DoubleValue
-177.369

@<SCITEGIC>MOL_PROPERTY
VdW12
SciTegic.value.DoubleValue
152.783

@<SCITEGIC>MOL_PROPERTY
Bond
SciTegic.value.DoubleValue
5.113

@<SCITEGIC>MOL_PROPERTY
Angle
SciTegic.value.DoubleValue
16.930

@<SCITEGIC>MOL_PROPERTY
Pdih
SciTegic.value.DoubleValue
131.885

@<SCITEGIC>MOL_PROPERTY
Idih
SciTegic.value.DoubleValue
0.001

@<SCITEGIC>MOL_PROPERTY
Tether
SciTegic.value.DoubleValue
0.000

