VeraChem MOL file


 20 19  0  0  0  0  0  0  0  0999 V2000     
   19.7357   18.9392   25.6479 N   0  3  0  0  0  0  0  0  0  0  0  0
   18.8387   19.4316   25.7040 H   0  0  0  0  0  0  0  0  0  0  0  0
   19.5330   17.9363   25.7060 H   0  0  0  0  0  0  0  0  0  0  0  0
   20.2631   19.1852   26.4922 H   0  0  0  0  0  0  0  0  0  0  0  0
   20.4973   19.2911   24.3858 C   0  0  0  0  0  0  0  0  0  0  0  0
   21.4511   18.7569   24.4071 H   0  0  0  0  0  0  0  0  0  0  0  0
   20.7046   20.3645   24.4050 H   0  0  0  0  0  0  0  0  0  0  0  0
   19.7326   18.9344   23.0985 C   0  0  0  0  0  0  0  0  0  0  0  0
   19.5127   17.8584   23.0910 H   0  0  0  0  0  0  0  0  0  0  0  0
   18.7686   19.4604   23.0890 H   0  0  0  0  0  0  0  0  0  0  0  0
   20.5421   19.3089   21.8371 C   0  0  0  0  0  0  0  0  0  0  0  0
   21.5081   18.7850   21.8525 H   0  0  0  0  0  0  0  0  0  0  0  0
   20.7648   20.3851   21.8505 H   0  0  0  0  0  0  0  0  0  0  0  0
   19.7839   18.9551   20.5381 C   0  0  0  0  0  0  0  0  0  0  0  0
   19.5612   17.8790   20.5195 H   0  0  0  0  0  0  0  0  0  0  0  0
   18.8177   19.4787   20.5177 H   0  0  0  0  0  0  0  0  0  0  0  0
   20.5964   19.3312   19.2806 C   0  0  0  0  0  0  0  0  0  0  0  0
   21.5547   18.7964   19.2548 H   0  0  0  0  0  0  0  0  0  0  0  0
   20.0420   19.0726   18.3691 H   0  0  0  0  0  0  0  0  0  0  0  0
   20.8054   20.4086   19.2530 H   0  0  0  0  0  0  0  0  0  0  0  0
  1  2  1  0  0  0  0
  1  3  1  0  0  0  0
  1  4  1  0  0  0  0
  1  5  1  0  0  0  0
  5  6  1  0  0  0  0
  5  7  1  0  0  0  0
  5  8  1  0  0  0  0
  8  9  1  0  0  0  0
  8 10  1  0  0  0  0
  8 11  1  0  0  0  0
 11 12  1  0  0  0  0
 11 13  1  0  0  0  0
 11 14  1  0  0  0  0
 14 15  1  0  0  0  0
 14 16  1  0  0  0  0
 14 17  1  0  0  0  0
 17 18  1  0  0  0  0
 17 19  1  0  0  0  0
 17 20  1  0  0  0  0
M  END
> <VM2 Rank>
1

> <Conf_Id>
371

> <Probability>
19.94

> <Sum Probability>
19.94

> <Delta G>
0.000

> <G>
27.004

> <E>
4.315

> <-TS>
22.689

> <U+W>
-11.781

> <U>
45.772

> <W>
-57.552

> <W(PB)>
-59.512

> <W(SA)>
1.960

> <Valence>
1.299

> <Coulomb>
44.177

> <VdW>
0.297

> <VdW6>
-3.490

> <VdW12>
3.786

> <Bond>
0.096

> <Angle>
0.381

> <Pdih>
0.822

> <Idih>
0.000

> <Tether>
0.000

$$$$
VeraChem MOL file


 20 19  0  0  0  0  0  0  0  0999 V2000     
   20.6069   18.3920   25.0324 N   0  3  0  0  0  0  0  0  0  0  0  0
   20.9677   18.5359   25.9814 H   0  0  0  0  0  0  0  0  0  0  0  0
   19.9890   17.5753   25.0695 H   0  0  0  0  0  0  0  0  0  0  0  0
   21.4068   18.1400   24.4443 H   0  0  0  0  0  0  0  0  0  0  0  0
   19.8879   19.6214   24.5113 C   0  0  0  0  0  0  0  0  0  0  0  0
   20.5933   20.4567   24.5202 H   0  0  0  0  0  0  0  0  0  0  0  0
   19.0785   19.8525   25.2092 H   0  0  0  0  0  0  0  0  0  0  0  0
   19.3062   19.4490   23.0944 C   0  0  0  0  0  0  0  0  0  0  0  0
   18.6022   18.6062   23.0873 H   0  0  0  0  0  0  0  0  0  0  0  0
   18.7228   20.3460   22.8474 H   0  0  0  0  0  0  0  0  0  0  0  0
   20.3992   19.2368   22.0200 C   0  0  0  0  0  0  0  0  0  0  0  0
   20.9648   18.3209   22.2377 H   0  0  0  0  0  0  0  0  0  0  0  0
   21.1153   20.0696   22.0565 H   0  0  0  0  0  0  0  0  0  0  0  0
   19.7980   19.1368   20.6002 C   0  0  0  0  0  0  0  0  0  0  0  0
   19.0802   18.3055   20.5588 H   0  0  0  0  0  0  0  0  0  0  0  0
   19.2354   20.0524   20.3695 H   0  0  0  0  0  0  0  0  0  0  0  0
   20.8898   18.9241   19.5298 C   0  0  0  0  0  0  0  0  0  0  0  0
   21.4475   17.9965   19.7131 H   0  0  0  0  0  0  0  0  0  0  0  0
   20.4436   18.8562   18.5291 H   0  0  0  0  0  0  0  0  0  0  0  0
   21.6046   19.7572   19.5237 H   0  0  0  0  0  0  0  0  0  0  0  0
  1  2  1  0  0  0  0
  1  3  1  0  0  0  0
  1  4  1  0  0  0  0
  1  5  1  0  0  0  0
  5  6  1  0  0  0  0
  5  7  1  0  0  0  0
  5  8  1  0  0  0  0
  8  9  1  0  0  0  0
  8 10  1  0  0  0  0
  8 11  1  0  0  0  0
 11 12  1  0  0  0  0
 11 13  1  0  0  0  0
 11 14  1  0  0  0  0
 14 15  1  0  0  0  0
 14 16  1  0  0  0  0
 14 17  1  0  0  0  0
 17 18  1  0  0  0  0
 17 19  1  0  0  0  0
 17 20  1  0  0  0  0
M  END
> <VM2 Rank>
2

> <Conf_Id>
117

> <Probability>
12.00

> <Sum Probability>
31.94

> <Delta G>
0.303

> <G>
27.307

> <E>
4.518

> <-TS>
22.789

> <U+W>
-11.579

> <U>
46.423

> <W>
-58.002

> <W(PB)>
-59.940

> <W(SA)>
1.939

> <Valence>
1.410

> <Coulomb>
44.613

> <VdW>
0.400

> <VdW6>
-4.001

> <VdW12>
4.401

> <Bond>
0.117

> <Angle>
0.430

> <Pdih>
0.863

> <Idih>
0.000

> <Tether>
0.000

$$$$
VeraChem MOL file


 20 19  0  0  0  0  0  0  0  0999 V2000     
   19.8798   19.9563   25.0305 N   0  3  0  0  0  0  0  0  0  0  0  0
   18.8570   20.0103   25.0664 H   0  0  0  0  0  0  0  0  0  0  0  0
   20.2214   20.1412   25.9794 H   0  0  0  0  0  0  0  0  0  0  0  0
   20.2033   20.7290   24.4411 H   0  0  0  0  0  0  0  0  0  0  0  0
   20.3566   18.6131   24.5125 C   0  0  0  0  0  0  0  0  0  0  0  0
   20.0109   17.8467   25.2116 H   0  0  0  0  0  0  0  0  0  0  0  0
   21.4499   18.6139   24.5225 H   0  0  0  0  0  0  0  0  0  0  0  0
   19.8512   18.2766   23.0959 C   0  0  0  0  0  0  0  0  0  0  0  0
   20.1612   17.2519   22.8512 H   0  0  0  0  0  0  0  0  0  0  0  0
   18.7531   18.2817   23.0877 H   0  0  0  0  0  0  0  0  0  0  0  0
   20.3946   19.2469   22.0200 C   0  0  0  0  0  0  0  0  0  0  0  0
   21.4928   19.2575   22.0575 H   0  0  0  0  0  0  0  0  0  0  0  0
   20.0587   20.2700   22.2353 H   0  0  0  0  0  0  0  0  0  0  0  0
   19.9318   18.8488   20.6005 C   0  0  0  0  0  0  0  0  0  0  0  0
   20.2693   17.8280   20.3722 H   0  0  0  0  0  0  0  0  0  0  0  0
   18.8336   18.8359   20.5582 H   0  0  0  0  0  0  0  0  0  0  0  0
   20.4740   19.8184   19.5287 C   0  0  0  0  0  0  0  0  0  0  0  0
   21.5718   19.8277   19.5235 H   0  0  0  0  0  0  0  0  0  0  0  0
   20.1354   19.5191   18.5283 H   0  0  0  0  0  0  0  0  0  0  0  0
   20.1244   20.8432   19.7097 H   0  0  0  0  0  0  0  0  0  0  0  0
  1  2  1  0  0  0  0
  1  3  1  0  0  0  0
  1  4  1  0  0  0  0
  1  5  1  0  0  0  0
  5  6  1  0  0  0  0
  5  7  1  0  0  0  0
  5  8  1  0  0  0  0
  8  9  1  0  0  0  0
  8 10  1  0  0  0  0
  8 11  1  0  0  0  0
 11 12  1  0  0  0  0
 11 13  1  0  0  0  0
 11 14  1  0  0  0  0
 14 15  1  0  0  0  0
 14 16  1  0  0  0  0
 14 17  1  0  0  0  0
 17 18  1  0  0  0  0
 17 19  1  0  0  0  0
 17 20  1  0  0  0  0
M  END
> <VM2 Rank>
3

> <Conf_Id>
430

> <Probability>
11.21

> <Sum Probability>
43.15

> <Delta G>
0.343

> <G>
27.347

> <E>
4.558

> <-TS>
22.789

> <U+W>
-11.538

> <U>
46.423

> <W>
-57.961

> <W(PB)>
-59.894

> <W(SA)>
1.932

> <Valence>
1.410

> <Coulomb>
44.613

> <VdW>
0.400

> <VdW6>
-4.001

> <VdW12>
4.401

> <Bond>
0.117

> <Angle>
0.430

> <Pdih>
0.863

> <Idih>
0.000

> <Tether>
0.000

$$$$
VeraChem MOL file


 20 19  0  0  0  0  0  0  0  0999 V2000     
   19.9686   18.6227   25.4434 N   0  3  0  0  0  0  0  0  0  0  0  0
   19.0580   18.1528   25.4596 H   0  0  0  0  0  0  0  0  0  0  0  0
   20.6123   18.0427   25.9918 H   0  0  0  0  0  0  0  0  0  0  0  0
   19.8602   19.5068   25.9504 H   0  0  0  0  0  0  0  0  0  0  0  0
   20.4698   18.8383   24.0296 C   0  0  0  0  0  0  0  0  0  0  0  0
   20.5905   17.8571   23.5635 H   0  0  0  0  0  0  0  0  0  0  0  0
   21.4525   19.3141   24.0887 H   0  0  0  0  0  0  0  0  0  0  0  0
   19.5241   19.7072   23.1787 C   0  0  0  0  0  0  0  0  0  0  0  0
   18.5368   19.2300   23.1201 H   0  0  0  0  0  0  0  0  0  0  0  0
   19.3768   20.6733   23.6797 H   0  0  0  0  0  0  0  0  0  0  0  0
   20.0653   19.9595   21.7515 C   0  0  0  0  0  0  0  0  0  0  0  0
   21.0416   20.4601   21.8126 H   0  0  0  0  0  0  0  0  0  0  0  0
   19.3907   20.6578   21.2369 H   0  0  0  0  0  0  0  0  0  0  0  0
   20.1938   18.6663   20.9118 C   0  0  0  0  0  0  0  0  0  0  0  0
   20.9045   17.9755   21.3854 H   0  0  0  0  0  0  0  0  0  0  0  0
   19.2246   18.1494   20.8760 H   0  0  0  0  0  0  0  0  0  0  0  0
   20.6663   18.9659   19.4730 C   0  0  0  0  0  0  0  0  0  0  0  0
   20.7528   18.0384   18.8923 H   0  0  0  0  0  0  0  0  0  0  0  0
   19.9576   19.6234   18.9529 H   0  0  0  0  0  0  0  0  0  0  0  0
   21.6490   19.4553   19.4740 H   0  0  0  0  0  0  0  0  0  0  0  0
  1  2  1  0  0  0  0
  1  3  1  0  0  0  0
  1  4  1  0  0  0  0
  1  5  1  0  0  0  0
  5  6  1  0  0  0  0
  5  7  1  0  0  0  0
  5  8  1  0  0  0  0
  8  9  1  0  0  0  0
  8 10  1  0  0  0  0
  8 11  1  0  0  0  0
 11 12  1  0  0  0  0
 11 13  1  0  0  0  0
 11 14  1  0  0  0  0
 14 15  1  0  0  0  0
 14 16  1  0  0  0  0
 14 17  1  0  0  0  0
 17 18  1  0  0  0  0
 17 19  1  0  0  0  0
 17 20  1  0  0  0  0
M  END
> <VM2 Rank>
4

> <Conf_Id>
602

> <Probability>
8.60

> <Sum Probability>
51.76

> <Delta G>
0.501

> <G>
27.505

> <E>
4.721

> <-TS>
22.784

> <U+W>
-11.375

> <U>
46.508

> <W>
-57.883

> <W(PB)>
-59.814

> <W(SA)>
1.931

> <Valence>
1.610

> <Coulomb>
44.536

> <VdW>
0.363

> <VdW6>
-4.056

> <VdW12>
4.419

> <Bond>
0.118

> <Angle>
0.515

> <Pdih>
0.977

> <Idih>
0.000

> <Tether>
0.000

$$$$
VeraChem MOL file


 20 19  0  0  0  0  0  0  0  0999 V2000     
   19.4823   19.4057   25.4133 N   0  3  0  0  0  0  0  0  0  0  0  0
   19.0969   20.3465   25.2838 H   0  0  0  0  0  0  0  0  0  0  0  0
   18.6901   18.7559   25.4357 H   0  0  0  0  0  0  0  0  0  0  0  0
   19.9097   19.3853   26.3453 H   0  0  0  0  0  0  0  0  0  0  0  0
   20.4786   19.0472   24.3291 C   0  0  0  0  0  0  0  0  0  0  0  0
   20.8694   18.0495   24.5466 H   0  0  0  0  0  0  0  0  0  0  0  0
   21.3066   19.7593   24.3827 H   0  0  0  0  0  0  0  0  0  0  0  0
   19.8689   19.0678   22.9160 C   0  0  0  0  0  0  0  0  0  0  0  0
   19.0278   18.3631   22.8713 H   0  0  0  0  0  0  0  0  0  0  0  0
   19.4644   20.0679   22.7155 H   0  0  0  0  0  0  0  0  0  0  0  0
   20.9189   18.6940   21.8432 C   0  0  0  0  0  0  0  0  0  0  0  0
   21.3667   17.7247   22.1033 H   0  0  0  0  0  0  0  0  0  0  0  0
   21.7385   19.4259   21.8567 H   0  0  0  0  0  0  0  0  0  0  0  0
   20.3340   18.5983   20.4130 C   0  0  0  0  0  0  0  0  0  0  0  0
   21.1168   18.2285   19.7359 H   0  0  0  0  0  0  0  0  0  0  0  0
   19.5295   17.8500   20.3895 H   0  0  0  0  0  0  0  0  0  0  0  0
   19.8053   19.9470   19.8734 C   0  0  0  0  0  0  0  0  0  0  0  0
   20.5832   20.7205   19.9125 H   0  0  0  0  0  0  0  0  0  0  0  0
   19.4872   19.8441   18.8278 H   0  0  0  0  0  0  0  0  0  0  0  0
   18.9396   20.2999   20.4474 H   0  0  0  0  0  0  0  0  0  0  0  0
  1  2  1  0  0  0  0
  1  3  1  0  0  0  0
  1  4  1  0  0  0  0
  1  5  1  0  0  0  0
  5  6  1  0  0  0  0
  5  7  1  0  0  0  0
  5  8  1  0  0  0  0
  8  9  1  0  0  0  0
  8 10  1  0  0  0  0
  8 11  1  0  0  0  0
 11 12  1  0  0  0  0
 11 13  1  0  0  0  0
 11 14  1  0  0  0  0
 14 15  1  0  0  0  0
 14 16  1  0  0  0  0
 14 17  1  0  0  0  0
 17 18  1  0  0  0  0
 17 19  1  0  0  0  0
 17 20  1  0  0  0  0
M  END
> <VM2 Rank>
5

> <Conf_Id>
510

> <Probability>
7.08

> <Sum Probability>
58.84

> <Delta G>
0.617

> <G>
27.621

> <E>
4.823

> <-TS>
22.798

> <U+W>
-11.274

> <U>
46.486

> <W>
-57.760

> <W(PB)>
-59.707

> <W(SA)>
1.947

> <Valence>
1.806

> <Coulomb>
44.248

> <VdW>
0.433

> <VdW6>
-4.089

> <VdW12>
4.522

> <Bond>
0.131

> <Angle>
0.628

> <Pdih>
1.047

> <Idih>
0.000

> <Tether>
0.000

$$$$
VeraChem MOL file


 20 19  0  0  0  0  0  0  0  0999 V2000     
   19.9289   18.4438   25.4144 N   0  3  0  0  0  0  0  0  0  0  0  0
   20.1882   18.7853   26.3459 H   0  0  0  0  0  0  0  0  0  0  0  0
   18.9214   18.2577   25.4361 H   0  0  0  0  0  0  0  0  0  0  0  0
   20.3993   17.5422   25.2871 H   0  0  0  0  0  0  0  0  0  0  0  0
   20.2988   19.4343   24.3287 C   0  0  0  0  0  0  0  0  0  0  0  0
   21.3770   19.6076   24.3829 H   0  0  0  0  0  0  0  0  0  0  0  0
   19.7884   20.3769   24.5439 H   0  0  0  0  0  0  0  0  0  0  0  0
   19.9224   18.9524   22.9161 C   0  0  0  0  0  0  0  0  0  0  0  0
   20.4257   17.9976   22.7180 H   0  0  0  0  0  0  0  0  0  0  0  0
   18.8415   18.7645   22.8707 H   0  0  0  0  0  0  0  0  0  0  0  0
   20.3157   19.9936   21.8416 C   0  0  0  0  0  0  0  0  0  0  0  0
   21.4037   20.1473   21.8559 H   0  0  0  0  0  0  0  0  0  0  0  0
   19.8640   20.9617   22.0994 H   0  0  0  0  0  0  0  0  0  0  0  0
   19.8665   19.6057   20.4118 C   0  0  0  0  0  0  0  0  0  0  0  0
   18.7756   19.4744   20.3874 H   0  0  0  0  0  0  0  0  0  0  0  0
   20.0901   20.4409   19.7332 H   0  0  0  0  0  0  0  0  0  0  0  0
   20.5557   18.3302   19.8755 C   0  0  0  0  0  0  0  0  0  0  0  0
   20.2657   17.4424   20.4509 H   0  0  0  0  0  0  0  0  0  0  0  0
   20.2730   18.1517   18.8299 H   0  0  0  0  0  0  0  0  0  0  0  0
   21.6486   18.4249   19.9156 H   0  0  0  0  0  0  0  0  0  0  0  0
  1  2  1  0  0  0  0
  1  3  1  0  0  0  0
  1  4  1  0  0  0  0
  1  5  1  0  0  0  0
  5  6  1  0  0  0  0
  5  7  1  0  0  0  0
  5  8  1  0  0  0  0
  8  9  1  0  0  0  0
  8 10  1  0  0  0  0
  8 11  1  0  0  0  0
 11 12  1  0  0  0  0
 11 13  1  0  0  0  0
 11 14  1  0  0  0  0
 14 15  1  0  0  0  0
 14 16  1  0  0  0  0
 14 17  1  0  0  0  0
 17 18  1  0  0  0  0
 17 19  1  0  0  0  0
 17 20  1  0  0  0  0
M  END
> <VM2 Rank>
6

> <Conf_Id>
284

> <Probability>
6.96

> <Sum Probability>
65.80

> <Delta G>
0.628

> <G>
27.631

> <E>
4.833

> <-TS>
22.799

> <U+W>
-11.263

> <U>
46.486

> <W>
-57.750

> <W(PB)>
-59.686

> <W(SA)>
1.936

> <Valence>
1.806

> <Coulomb>
44.248

> <VdW>
0.433

> <VdW6>
-4.089

> <VdW12>
4.522

> <Bond>
0.131

> <Angle>
0.628

> <Pdih>
1.047

> <Idih>
0.000

> <Tether>
0.000

$$$$
VeraChem MOL file


 20 19  0  0  0  0  0  0  0  0999 V2000     
   19.4805   19.1732   25.1477 N   0  3  0  0  0  0  0  0  0  0  0  0
   18.8426   19.8673   24.7475 H   0  0  0  0  0  0  0  0  0  0  0  0
   18.9743   18.2830   25.1857 H   0  0  0  0  0  0  0  0  0  0  0  0
   19.6590   19.4559   26.1171 H   0  0  0  0  0  0  0  0  0  0  0  0
   20.7649   19.0592   24.3494 C   0  0  0  0  0  0  0  0  0  0  0  0
   21.4081   18.3370   24.8597 H   0  0  0  0  0  0  0  0  0  0  0  0
   21.2644   20.0316   24.3680 H   0  0  0  0  0  0  0  0  0  0  0  0
   20.5554   18.6117   22.8893 C   0  0  0  0  0  0  0  0  0  0  0  0
   21.5430   18.4474   22.4407 H   0  0  0  0  0  0  0  0  0  0  0  0
   20.0380   17.6433   22.8735 H   0  0  0  0  0  0  0  0  0  0  0  0
   19.7662   19.6500   22.0525 C   0  0  0  0  0  0  0  0  0  0  0  0
   20.3014   20.6097   22.0540 H   0  0  0  0  0  0  0  0  0  0  0  0
   18.7936   19.8380   22.5261 H   0  0  0  0  0  0  0  0  0  0  0  0
   19.5138   19.2014   20.5923 C   0  0  0  0  0  0  0  0  0  0  0  0
   18.9664   18.2484   20.5854 H   0  0  0  0  0  0  0  0  0  0  0  0
   18.8562   19.9362   20.1070 H   0  0  0  0  0  0  0  0  0  0  0  0
   20.8072   19.0645   19.7568 C   0  0  0  0  0  0  0  0  0  0  0  0
   21.3890   19.9953   19.7736 H   0  0  0  0  0  0  0  0  0  0  0  0
   21.4448   18.2531   20.1287 H   0  0  0  0  0  0  0  0  0  0  0  0
   20.5658   18.8394   18.7099 H   0  0  0  0  0  0  0  0  0  0  0  0
  1  2  1  0  0  0  0
  1  3  1  0  0  0  0
  1  4  1  0  0  0  0
  1  5  1  0  0  0  0
  5  6  1  0  0  0  0
  5  7  1  0  0  0  0
  5  8  1  0  0  0  0
  8  9  1  0  0  0  0
  8 10  1  0  0  0  0
  8 11  1  0  0  0  0
 11 12  1  0  0  0  0
 11 13  1  0  0  0  0
 11 14  1  0  0  0  0
 14 15  1  0  0  0  0
 14 16  1  0  0  0  0
 14 17  1  0  0  0  0
 17 18  1  0  0  0  0
 17 19  1  0  0  0  0
 17 20  1  0  0  0  0
M  END
> <VM2 Rank>
7

> <Conf_Id>
427

> <Probability>
4.42

> <Sum Probability>
70.21

> <Delta G>
0.899

> <G>
27.903

> <E>
5.021

> <-TS>
22.881

> <U+W>
-11.075

> <U>
47.080

> <W>
-58.155

> <W(PB)>
-60.054

> <W(SA)>
1.899

> <Valence>
1.943

> <Coulomb>
44.572

> <VdW>
0.565

> <VdW6>
-4.575

> <VdW12>
5.139

> <Bond>
0.158

> <Angle>
0.700

> <Pdih>
1.085

> <Idih>
0.000

> <Tether>
0.000

$$$$
VeraChem MOL file


 20 19  0  0  0  0  0  0  0  0999 V2000     
   19.8955   19.9225   24.9639 N   0  3  0  0  0  0  0  0  0  0  0  0
   20.6353   20.6233   24.8552 H   0  0  0  0  0  0  0  0  0  0  0  0
   19.0608   20.2886   24.4968 H   0  0  0  0  0  0  0  0  0  0  0  0
   19.6791   19.8701   25.9649 H   0  0  0  0  0  0  0  0  0  0  0  0
   20.3084   18.5742   24.4060 C   0  0  0  0  0  0  0  0  0  0  0  0
   19.4885   17.8710   24.5758 H   0  0  0  0  0  0  0  0  0  0  0  0
   21.1751   18.2300   24.9770 H   0  0  0  0  0  0  0  0  0  0  0  0
   20.6638   18.6042   22.9067 C   0  0  0  0  0  0  0  0  0  0  0  0
   21.4885   19.3103   22.7470 H   0  0  0  0  0  0  0  0  0  0  0  0
   21.0378   17.6129   22.6183 H   0  0  0  0  0  0  0  0  0  0  0  0
   19.4529   18.9757   22.0145 C   0  0  0  0  0  0  0  0  0  0  0  0
   19.1233   20.0000   22.2343 H   0  0  0  0  0  0  0  0  0  0  0  0
   18.6090   18.3178   22.2646 H   0  0  0  0  0  0  0  0  0  0  0  0
   19.7441   18.8485   20.4995 C   0  0  0  0  0  0  0  0  0  0  0  0
   20.0466   17.8186   20.2639 H   0  0  0  0  0  0  0  0  0  0  0  0
   18.8128   19.0293   19.9446 H   0  0  0  0  0  0  0  0  0  0  0  0
   20.8232   19.8349   19.9973 C   0  0  0  0  0  0  0  0  0  0  0  0
   21.8042   19.6180   20.4376 H   0  0  0  0  0  0  0  0  0  0  0  0
   20.9290   19.7661   18.9069 H   0  0  0  0  0  0  0  0  0  0  0  0
   20.5567   20.8710   20.2434 H   0  0  0  0  0  0  0  0  0  0  0  0
  1  2  1  0  0  0  0
  1  3  1  0  0  0  0
  1  4  1  0  0  0  0
  1  5  1  0  0  0  0
  5  6  1  0  0  0  0
  5  7  1  0  0  0  0
  5  8  1  0  0  0  0
  8  9  1  0  0  0  0
  8 10  1  0  0  0  0
  8 11  1  0  0  0  0
 11 12  1  0  0  0  0
 11 13  1  0  0  0  0
 11 14  1  0  0  0  0
 14 15  1  0  0  0  0
 14 16  1  0  0  0  0
 14 17  1  0  0  0  0
 17 18  1  0  0  0  0
 17 19  1  0  0  0  0
 17 20  1  0  0  0  0
M  END
> <VM2 Rank>
8

> <Conf_Id>
542

> <Probability>
4.38

> <Sum Probability>
74.60

> <Delta G>
0.903

> <G>
27.907

> <E>
5.001

> <-TS>
22.906

> <U+W>
-11.095

> <U>
47.052

> <W>
-58.148

> <W(PB)>
-60.063

> <W(SA)>
1.915

> <Valence>
1.909

> <Coulomb>
44.625

> <VdW>
0.518

> <VdW6>
-4.612

> <VdW12>
5.130

> <Bond>
0.153

> <Angle>
0.652

> <Pdih>
1.104

> <Idih>
0.000

> <Tether>
0.000

$$$$
VeraChem MOL file


 20 19  0  0  0  0  0  0  0  0999 V2000     
   20.5954   18.4291   24.9659 N   0  3  0  0  0  0  0  0  0  0  0  0
   21.6074   18.5489   24.8580 H   0  0  0  0  0  0  0  0  0  0  0  0
   20.4156   18.2985   25.9670 H   0  0  0  0  0  0  0  0  0  0  0  0
   20.3431   17.5523   24.5005 H   0  0  0  0  0  0  0  0  0  0  0  0
   19.8240   19.6079   24.4046 C   0  0  0  0  0  0  0  0  0  0  0  0
   20.1135   20.4954   24.9739 H   0  0  0  0  0  0  0  0  0  0  0  0
   18.7589   19.4281   24.5736 H   0  0  0  0  0  0  0  0  0  0  0  0
   20.0761   19.8584   22.9050 C   0  0  0  0  0  0  0  0  0  0  0  0
   19.5539   20.7795   22.6140 H   0  0  0  0  0  0  0  0  0  0  0  0
   21.1466   20.0400   22.7460 H   0  0  0  0  0  0  0  0  0  0  0  0
   19.5875   18.6883   22.0149 C   0  0  0  0  0  0  0  0  0  0  0  0
   18.5416   18.4615   22.2643 H   0  0  0  0  0  0  0  0  0  0  0  0
   20.1634   17.7800   22.2374 H   0  0  0  0  0  0  0  0  0  0  0  0
   19.6780   18.9900   20.4993 C   0  0  0  0  0  0  0  0  0  0  0  0
   19.2213   18.1575   19.9457 H   0  0  0  0  0  0  0  0  0  0  0  0
   19.0806   19.8811   20.2610 H   0  0  0  0  0  0  0  0  0  0  0  0
   21.1270   19.1864   19.9983 C   0  0  0  0  0  0  0  0  0  0  0  0
   21.5879   20.0799   20.4371 H   0  0  0  0  0  0  0  0  0  0  0  0
   21.7522   18.3190   20.2471 H   0  0  0  0  0  0  0  0  0  0  0  0
   21.1431   19.3092   18.9076 H   0  0  0  0  0  0  0  0  0  0  0  0
  1  2  1  0  0  0  0
  1  3  1  0  0  0  0
  1  4  1  0  0  0  0
  1  5  1  0  0  0  0
  5  6  1  0  0  0  0
  5  7  1  0  0  0  0
  5  8  1  0  0  0  0
  8  9  1  0  0  0  0
  8 10  1  0  0  0  0
  8 11  1  0  0  0  0
 11 12  1  0  0  0  0
 11 13  1  0  0  0  0
 11 14  1  0  0  0  0
 14 15  1  0  0  0  0
 14 16  1  0  0  0  0
 14 17  1  0  0  0  0
 17 18  1  0  0  0  0
 17 19  1  0  0  0  0
 17 20  1  0  0  0  0
M  END
> <VM2 Rank>
9

> <Conf_Id>
569

> <Probability>
4.22

> <Sum Probability>
78.81

> <Delta G>
0.926

> <G>
27.930

> <E>
5.025

> <-TS>
22.906

> <U+W>
-11.072

> <U>
47.052

> <W>
-58.124

> <W(PB)>
-60.036

> <W(SA)>
1.912

> <Valence>
1.910

> <Coulomb>
44.625

> <VdW>
0.518

> <VdW6>
-4.612

> <VdW12>
5.129

> <Bond>
0.153

> <Angle>
0.652

> <Pdih>
1.104

> <Idih>
0.000

> <Tether>
0.000

$$$$
VeraChem MOL file


 20 19  0  0  0  0  0  0  0  0999 V2000     
   19.9266   19.7543   25.1737 N   0  3  0  0  0  0  0  0  0  0  0  0
   20.6492   20.1540   25.7816 H   0  0  0  0  0  0  0  0  0  0  0  0
   19.2428   20.4968   24.9967 H   0  0  0  0  0  0  0  0  0  0  0  0
   19.4492   19.0286   25.7175 H   0  0  0  0  0  0  0  0  0  0  0  0
   20.5123   19.2053   23.8884 C   0  0  0  0  0  0  0  0  0  0  0  0
   21.2504   18.4430   24.1518 H   0  0  0  0  0  0  0  0  0  0  0  0
   21.0288   20.0228   23.3787 H   0  0  0  0  0  0  0  0  0  0  0  0
   19.4517   18.5973   22.9513 C   0  0  0  0  0  0  0  0  0  0  0  0
   18.9110   17.8057   23.4868 H   0  0  0  0  0  0  0  0  0  0  0  0
   18.7052   19.3593   22.6935 H   0  0  0  0  0  0  0  0  0  0  0  0
   20.0648   17.9983   21.6608 C   0  0  0  0  0  0  0  0  0  0  0  0
   19.2584   17.5735   21.0472 H   0  0  0  0  0  0  0  0  0  0  0  0
   20.7137   17.1542   21.9329 H   0  0  0  0  0  0  0  0  0  0  0  0
   20.8812   18.9986   20.8029 C   0  0  0  0  0  0  0  0  0  0  0  0
   21.7553   19.3552   21.3645 H   0  0  0  0  0  0  0  0  0  0  0  0
   21.2818   18.4652   19.9294 H   0  0  0  0  0  0  0  0  0  0  0  0
   20.0514   20.2063   20.3109 C   0  0  0  0  0  0  0  0  0  0  0  0
   19.7275   20.8395   21.1463 H   0  0  0  0  0  0  0  0  0  0  0  0
   20.6475   20.8323   19.6344 H   0  0  0  0  0  0  0  0  0  0  0  0
   19.1593   19.8757   19.7633 H   0  0  0  0  0  0  0  0  0  0  0  0
  1  2  1  0  0  0  0
  1  3  1  0  0  0  0
  1  4  1  0  0  0  0
  1  5  1  0  0  0  0
  5  6  1  0  0  0  0
  5  7  1  0  0  0  0
  5  8  1  0  0  0  0
  8  9  1  0  0  0  0
  8 10  1  0  0  0  0
  8 11  1  0  0  0  0
 11 12  1  0  0  0  0
 11 13  1  0  0  0  0
 11 14  1  0  0  0  0
 14 15  1  0  0  0  0
 14 16  1  0  0  0  0
 14 17  1  0  0  0  0
 17 18  1  0  0  0  0
 17 19  1  0  0  0  0
 17 20  1  0  0  0  0
M  END
> <VM2 Rank>
10

> <Conf_Id>
268

> <Probability>
3.52

> <Sum Probability>
82.33

> <Delta G>
1.034

> <G>
28.038

> <E>
5.024

> <-TS>
23.014

> <U+W>
-11.073

> <U>
47.077

> <W>
-58.150

> <W(PB)>
-60.056

> <W(SA)>
1.906

> <Valence>
2.039

> <Coulomb>
44.655

> <VdW>
0.383

> <VdW6>
-4.912

> <VdW12>
5.295

> <Bond>
0.159

> <Angle>
0.856

> <Pdih>
1.024

> <Idih>
0.000

> <Tether>
0.000

$$$$
VeraChem MOL file


 20 19  0  0  0  0  0  0  0  0999 V2000     
   19.7504   18.5919   25.1484 N   0  3  0  0  0  0  0  0  0  0  0  0
   19.8697   17.6559   24.7501 H   0  0  0  0  0  0  0  0  0  0  0  0
   20.0807   18.5478   26.1182 H   0  0  0  0  0  0  0  0  0  0  0  0
   18.7436   18.7795   25.1851 H   0  0  0  0  0  0  0  0  0  0  0  0
   20.4926   19.6453   24.3487 C   0  0  0  0  0  0  0  0  0  0  0  0
   21.5579   19.3998   24.3689 H   0  0  0  0  0  0  0  0  0  0  0  0
   20.3553   20.6037   24.8570 H   0  0  0  0  0  0  0  0  0  0  0  0
   20.0169   19.7710   22.8879 C   0  0  0  0  0  0  0  0  0  0  0  0
   18.9433   20.0003   22.8706 H   0  0  0  0  0  0  0  0  0  0  0  0
   20.5290   20.6307   22.4381 H   0  0  0  0  0  0  0  0  0  0  0  0
   20.3020   18.4965   22.0539 C   0  0  0  0  0  0  0  0  0  0  0  0
   19.8178   17.6330   22.5287 H   0  0  0  0  0  0  0  0  0  0  0  0
   21.3806   18.2864   22.0568 H   0  0  0  0  0  0  0  0  0  0  0  0
   19.7977   18.5901   20.5931 C   0  0  0  0  0  0  0  0  0  0  0  0
   19.9354   17.6127   20.1099 H   0  0  0  0  0  0  0  0  0  0  0  0
   18.7164   18.7866   20.5848 H   0  0  0  0  0  0  0  0  0  0  0  0
   20.5282   19.6651   19.7560 C   0  0  0  0  0  0  0  0  0  0  0  0
   20.2013   19.6238   18.7089 H   0  0  0  0  0  0  0  0  0  0  0  0
   20.3192   20.6764   20.1258 H   0  0  0  0  0  0  0  0  0  0  0  0
   21.6147   19.5093   19.7741 H   0  0  0  0  0  0  0  0  0  0  0  0
  1  2  1  0  0  0  0
  1  3  1  0  0  0  0
  1  4  1  0  0  0  0
  1  5  1  0  0  0  0
  5  6  1  0  0  0  0
  5  7  1  0  0  0  0
  5  8  1  0  0  0  0
  8  9  1  0  0  0  0
  8 10  1  0  0  0  0
  8 11  1  0  0  0  0
 11 12  1  0  0  0  0
 11 13  1  0  0  0  0
 11 14  1  0  0  0  0
 14 15  1  0  0  0  0
 14 16  1  0  0  0  0
 14 17  1  0  0  0  0
 17 18  1  0  0  0  0
 17 19  1  0  0  0  0
 17 20  1  0  0  0  0
M  END
> <VM2 Rank>
11

> <Conf_Id>
140

> <Probability>
3.48

> <Sum Probability>
85.81

> <Delta G>
1.041

> <G>
28.045

> <E>
5.164

> <-TS>
22.881

> <U+W>
-10.933

> <U>
47.080

> <W>
-58.012

> <W(PB)>
-59.915

> <W(SA)>
1.903

> <Valence>
1.943

> <Coulomb>
44.572

> <VdW>
0.565

> <VdW6>
-4.575

> <VdW12>
5.139

> <Bond>
0.158

> <Angle>
0.700

> <Pdih>
1.085

> <Idih>
0.000

> <Tether>
0.000

$$$$
VeraChem MOL file


 20 19  0  0  0  0  0  0  0  0999 V2000     
   20.5216   19.9304   24.7152 N   0  3  0  0  0  0  0  0  0  0  0  0
   20.1659   20.6593   25.3425 H   0  0  0  0  0  0  0  0  0  0  0  0
   21.1738   19.3591   25.2614 H   0  0  0  0  0  0  0  0  0  0  0  0
   21.0673   20.4011   23.9873 H   0  0  0  0  0  0  0  0  0  0  0  0
   19.3999   19.0978   24.1255 C   0  0  0  0  0  0  0  0  0  0  0  0
   18.7275   19.7686   23.5847 H   0  0  0  0  0  0  0  0  0  0  0  0
   18.8413   18.6566   24.9556 H   0  0  0  0  0  0  0  0  0  0  0  0
   19.8870   17.9766   23.1846 C   0  0  0  0  0  0  0  0  0  0  0  0
   20.5243   17.2844   23.7507 H   0  0  0  0  0  0  0  0  0  0  0  0
   19.0181   17.3915   22.8551 H   0  0  0  0  0  0  0  0  0  0  0  0
   20.6605   18.4856   21.9422 C   0  0  0  0  0  0  0  0  0  0  0  0
   20.9848   17.6170   21.3525 H   0  0  0  0  0  0  0  0  0  0  0  0
   21.5788   18.9988   22.2574 H   0  0  0  0  0  0  0  0  0  0  0  0
   19.8204   19.4226   21.0421 C   0  0  0  0  0  0  0  0  0  0  0  0
   18.8918   18.9157   20.7444 H   0  0  0  0  0  0  0  0  0  0  0  0
   19.5260   20.3218   21.5998 H   0  0  0  0  0  0  0  0  0  0  0  0
   20.5986   19.8471   19.7784 C   0  0  0  0  0  0  0  0  0  0  0  0
   20.8755   18.9743   19.1728 H   0  0  0  0  0  0  0  0  0  0  0  0
   19.9886   20.5110   19.1522 H   0  0  0  0  0  0  0  0  0  0  0  0
   21.5183   20.3851   20.0429 H   0  0  0  0  0  0  0  0  0  0  0  0
  1  2  1  0  0  0  0
  1  3  1  0  0  0  0
  1  4  1  0  0  0  0
  1  5  1  0  0  0  0
  5  6  1  0  0  0  0
  5  7  1  0  0  0  0
  5  8  1  0  0  0  0
  8  9  1  0  0  0  0
  8 10  1  0  0  0  0
  8 11  1  0  0  0  0
 11 12  1  0  0  0  0
 11 13  1  0  0  0  0
 11 14  1  0  0  0  0
 14 15  1  0  0  0  0
 14 16  1  0  0  0  0
 14 17  1  0  0  0  0
 17 18  1  0  0  0  0
 17 19  1  0  0  0  0
 17 20  1  0  0  0  0
M  END
> <VM2 Rank>
12

> <Conf_Id>
465

> <Probability>
3.41

> <Sum Probability>
89.21

> <Delta G>
1.054

> <G>
28.058

> <E>
5.090

> <-TS>
22.967

> <U+W>
-11.006

> <U>
47.126

> <W>
-58.132

> <W(PB)>
-60.041

> <W(SA)>
1.910

> <Valence>
1.704

> <Coulomb>
45.049

> <VdW>
0.372

> <VdW6>
-4.760

> <VdW12>
5.132

> <Bond>
0.143

> <Angle>
0.634

> <Pdih>
0.927

> <Idih>
0.000

> <Tether>
0.000

$$$$
VeraChem MOL file


 20 19  0  0  0  0  0  0  0  0999 V2000     
   20.4832   18.5589   25.1751 N   0  3  0  0  0  0  0  0  0  0  0  0
   20.6115   17.5573   25.0003 H   0  0  0  0  0  0  0  0  0  0  0  0
   21.2537   18.8559   25.7831 H   0  0  0  0  0  0  0  0  0  0  0  0
   19.6201   18.6617   25.7180 H   0  0  0  0  0  0  0  0  0  0  0  0
   20.4412   19.3579   23.8882 C   0  0  0  0  0  0  0  0  0  0  0  0
   21.3999   19.2259   23.3796 H   0  0  0  0  0  0  0  0  0  0  0  0
   20.3328   20.4140   24.1493 H   0  0  0  0  0  0  0  0  0  0  0  0
   19.2941   18.9357   22.9508 C   0  0  0  0  0  0  0  0  0  0  0  0
   19.3969   17.8733   22.6955 H   0  0  0  0  0  0  0  0  0  0  0  0
   18.3398   19.0327   23.4852 H   0  0  0  0  0  0  0  0  0  0  0  0
   19.2317   19.7877   21.6585 C   0  0  0  0  0  0  0  0  0  0  0  0
   19.0032   20.8282   21.9280 H   0  0  0  0  0  0  0  0  0  0  0  0
   18.3881   19.4426   21.0448 H   0  0  0  0  0  0  0  0  0  0  0  0
   20.5236   19.7667   20.8019 C   0  0  0  0  0  0  0  0  0  0  0  0
   20.3742   20.4147   19.9269 H   0  0  0  0  0  0  0  0  0  0  0  0
   21.3586   20.2073   21.3635 H   0  0  0  0  0  0  0  0  0  0  0  0
   20.9142   18.3532   20.3135 C   0  0  0  0  0  0  0  0  0  0  0  0
   21.7777   18.4049   19.6378 H   0  0  0  0  0  0  0  0  0  0  0  0
   21.1894   17.6996   21.1506 H   0  0  0  0  0  0  0  0  0  0  0  0
   20.0875   17.8821   19.7661 H   0  0  0  0  0  0  0  0  0  0  0  0
  1  2  1  0  0  0  0
  1  3  1  0  0  0  0
  1  4  1  0  0  0  0
  1  5  1  0  0  0  0
  5  6  1  0  0  0  0
  5  7  1  0  0  0  0
  5  8  1  0  0  0  0
  8  9  1  0  0  0  0
  8 10  1  0  0  0  0
  8 11  1  0  0  0  0
 11 12  1  0  0  0  0
 11 13  1  0  0  0  0
 11 14  1  0  0  0  0
 14 15  1  0  0  0  0
 14 16  1  0  0  0  0
 14 17  1  0  0  0  0
 17 18  1  0  0  0  0
 17 19  1  0  0  0  0
 17 20  1  0  0  0  0
M  END
> <VM2 Rank>
13

> <Conf_Id>
342

> <Probability>
3.38

> <Sum Probability>
92.59

> <Delta G>
1.058

> <G>
28.062

> <E>
5.047

> <-TS>
23.015

> <U+W>
-11.049

> <U>
47.078

> <W>
-58.127

> <W(PB)>
-60.031

> <W(SA)>
1.905

> <Valence>
2.039

> <Coulomb>
44.655

> <VdW>
0.383

> <VdW6>
-4.913

> <VdW12>
5.296

> <Bond>
0.159

> <Angle>
0.856

> <Pdih>
1.024

> <Idih>
0.000

> <Tether>
0.000

$$$$
VeraChem MOL file


 20 19  0  0  0  0  0  0  0  0999 V2000     
   21.0018   18.9030   24.7165 N   0  3  0  0  0  0  0  0  0  0  0  0
   20.9814   19.7712   25.2606 H   0  0  0  0  0  0  0  0  0  0  0  0
   21.3323   18.1642   25.3460 H   0  0  0  0  0  0  0  0  0  0  0  0
   21.7137   19.0180   23.9891 H   0  0  0  0  0  0  0  0  0  0  0  0
   19.6442   18.5751   24.1263 C   0  0  0  0  0  0  0  0  0  0  0  0
   18.9467   18.4315   24.9560 H   0  0  0  0  0  0  0  0  0  0  0  0
   19.7282   17.6277   23.5878 H   0  0  0  0  0  0  0  0  0  0  0  0
   19.0974   19.6656   23.1823 C   0  0  0  0  0  0  0  0  0  0  0  0
   18.0916   19.3734   22.8523 H   0  0  0  0  0  0  0  0  0  0  0  0
   18.9744   20.5999   23.7460 H   0  0  0  0  0  0  0  0  0  0  0  0
   19.9854   19.9298   21.9401 C   0  0  0  0  0  0  0  0  0  0  0  0
   20.9677   20.3061   22.2556 H   0  0  0  0  0  0  0  0  0  0  0  0
   19.5276   20.7343   21.3481 H   0  0  0  0  0  0  0  0  0  0  0  0
   20.1665   18.6823   21.0432 C   0  0  0  0  0  0  0  0  0  0  0  0
   20.6671   17.8810   21.6033 H   0  0  0  0  0  0  0  0  0  0  0  0
   19.1824   18.2941   20.7453 H   0  0  0  0  0  0  0  0  0  0  0  0
   20.9927   19.0042   19.7796 C   0  0  0  0  0  0  0  0  0  0  0  0
   20.5011   19.7749   19.1717 H   0  0  0  0  0  0  0  0  0  0  0  0
   21.9950   19.3654   20.0443 H   0  0  0  0  0  0  0  0  0  0  0  0
   21.1115   18.1089   19.1556 H   0  0  0  0  0  0  0  0  0  0  0  0
  1  2  1  0  0  0  0
  1  3  1  0  0  0  0
  1  4  1  0  0  0  0
  1  5  1  0  0  0  0
  5  6  1  0  0  0  0
  5  7  1  0  0  0  0
  5  8  1  0  0  0  0
  8  9  1  0  0  0  0
  8 10  1  0  0  0  0
  8 11  1  0  0  0  0
 11 12  1  0  0  0  0
 11 13  1  0  0  0  0
 11 14  1  0  0  0  0
 14 15  1  0  0  0  0
 14 16  1  0  0  0  0
 14 17  1  0  0  0  0
 17 18  1  0  0  0  0
 17 19  1  0  0  0  0
 17 20  1  0  0  0  0
M  END
> <VM2 Rank>
14

> <Conf_Id>
269

> <Probability>
3.36

> <Sum Probability>
95.95

> <Delta G>
1.062

> <G>
28.065

> <E>
5.098

> <-TS>
22.967

> <U+W>
-10.998

> <U>
47.126

> <W>
-58.124

> <W(PB)>
-60.037

> <W(SA)>
1.913

> <Valence>
1.704

> <Coulomb>
45.050

> <VdW>
0.372

> <VdW6>
-4.760

> <VdW12>
5.132

> <Bond>
0.143

> <Angle>
0.634

> <Pdih>
0.927

> <Idih>
0.000

> <Tether>
0.000

$$$$
VeraChem MOL file


 20 19  0  0  0  0  0  0  0  0999 V2000     
   19.3250   19.3699   24.7368 N   0  3  0  0  0  0  0  0  0  0  0  0
   19.0712   20.1629   25.3352 H   0  0  0  0  0  0  0  0  0  0  0  0
   18.5130   19.1672   24.1465 H   0  0  0  0  0  0  0  0  0  0  0  0
   19.4603   18.5625   25.3531 H   0  0  0  0  0  0  0  0  0  0  0  0
   20.5617   19.6611   23.9093 C   0  0  0  0  0  0  0  0  0  0  0  0
   21.3760   19.8978   24.5994 H   0  0  0  0  0  0  0  0  0  0  0  0
   20.3633   20.5482   23.3021 H   0  0  0  0  0  0  0  0  0  0  0  0
   20.9868   18.4919   22.9980 C   0  0  0  0  0  0  0  0  0  0  0  0
   21.9266   18.7574   22.4971 H   0  0  0  0  0  0  0  0  0  0  0  0
   21.2161   17.6166   23.6200 H   0  0  0  0  0  0  0  0  0  0  0  0
   19.9242   18.1003   21.9376 C   0  0  0  0  0  0  0  0  0  0  0  0
   19.0438   17.6810   22.4429 H   0  0  0  0  0  0  0  0  0  0  0  0
   20.3262   17.2869   21.3179 H   0  0  0  0  0  0  0  0  0  0  0  0
   19.4686   19.2595   21.0147 C   0  0  0  0  0  0  0  0  0  0  0  0
   18.7052   18.8774   20.3226 H   0  0  0  0  0  0  0  0  0  0  0  0
   18.9751   20.0439   21.6044 H   0  0  0  0  0  0  0  0  0  0  0  0
   20.6218   19.8773   20.1916 C   0  0  0  0  0  0  0  0  0  0  0  0
   21.3563   20.3743   20.8374 H   0  0  0  0  0  0  0  0  0  0  0  0
   21.1430   19.1100   19.6047 H   0  0  0  0  0  0  0  0  0  0  0  0
   20.2349   20.6295   19.4921 H   0  0  0  0  0  0  0  0  0  0  0  0
  1  2  1  0  0  0  0
  1  3  1  0  0  0  0
  1  4  1  0  0  0  0
  1  5  1  0  0  0  0
  5  6  1  0  0  0  0
  5  7  1  0  0  0  0
  5  8  1  0  0  0  0
  8  9  1  0  0  0  0
  8 10  1  0  0  0  0
  8 11  1  0  0  0  0
 11 12  1  0  0  0  0
 11 13  1  0  0  0  0
 11 14  1  0  0  0  0
 14 15  1  0  0  0  0
 14 16  1  0  0  0  0
 14 17  1  0  0  0  0
 17 18  1  0  0  0  0
 17 19  1  0  0  0  0
 17 20  1  0  0  0  0
M  END
> <VM2 Rank>
15

> <Conf_Id>
90

> <Probability>
1.55

> <Sum Probability>
97.50

> <Delta G>
1.524

> <G>
28.527

> <E>
5.310

> <-TS>
23.217

> <U+W>
-10.786

> <U>
47.562

> <W>
-58.348

> <W(PB)>
-60.223

> <W(SA)>
1.875

> <Valence>
2.149

> <Coulomb>
45.034

> <VdW>
0.378

> <VdW6>
-5.598

> <VdW12>
5.977

> <Bond>
0.185

> <Angle>
0.935

> <Pdih>
1.029

> <Idih>
0.000

> <Tether>
0.000

$$$$
VeraChem MOL file


 20 19  0  0  0  0  0  0  0  0999 V2000     
   19.8009   18.3453   24.7380 N   0  3  0  0  0  0  0  0  0  0  0  0
   19.2707   18.9708   25.3526 H   0  0  0  0  0  0  0  0  0  0  0  0
   19.1228   17.8544   24.1480 H   0  0  0  0  0  0  0  0  0  0  0  0
   20.2426   17.6411   25.3382 H   0  0  0  0  0  0  0  0  0  0  0  0
   20.8219   19.1009   23.9099 C   0  0  0  0  0  0  0  0  0  0  0  0
   21.3724   18.3760   23.3047 H   0  0  0  0  0  0  0  0  0  0  0  0
   21.5274   19.5719   24.5998 H   0  0  0  0  0  0  0  0  0  0  0  0
   20.2035   20.1782   22.9959 C   0  0  0  0  0  0  0  0  0  0  0  0
   19.6820   20.9192   23.6160 H   0  0  0  0  0  0  0  0  0  0  0  0
   21.0130   20.7241   22.4947 H   0  0  0  0  0  0  0  0  0  0  0  0
   19.2198   19.6166   21.9357 C   0  0  0  0  0  0  0  0  0  0  0  0
   18.8581   20.4473   21.3141 H   0  0  0  0  0  0  0  0  0  0  0  0
   18.3310   19.2155   22.4410 H   0  0  0  0  0  0  0  0  0  0  0  0
   19.8126   18.5189   21.0156 C   0  0  0  0  0  0  0  0  0  0  0  0
   20.0930   17.6371   21.6074 H   0  0  0  0  0  0  0  0  0  0  0  0
   19.0288   18.1807   20.3234 H   0  0  0  0  0  0  0  0  0  0  0  0
   21.0293   19.0000   20.1928 C   0  0  0  0  0  0  0  0  0  0  0  0
   21.8823   19.2418   20.8390 H   0  0  0  0  0  0  0  0  0  0  0  0
   21.3552   18.2178   19.4951 H   0  0  0  0  0  0  0  0  0  0  0  0
   20.7798   19.8921   19.6038 H   0  0  0  0  0  0  0  0  0  0  0  0
  1  2  1  0  0  0  0
  1  3  1  0  0  0  0
  1  4  1  0  0  0  0
  1  5  1  0  0  0  0
  5  6  1  0  0  0  0
  5  7  1  0  0  0  0
  5  8  1  0  0  0  0
  8  9  1  0  0  0  0
  8 10  1  0  0  0  0
  8 11  1  0  0  0  0
 11 12  1  0  0  0  0
 11 13  1  0  0  0  0
 11 14  1  0  0  0  0
 14 15  1  0  0  0  0
 14 16  1  0  0  0  0
 14 17  1  0  0  0  0
 17 18  1  0  0  0  0
 17 19  1  0  0  0  0
 17 20  1  0  0  0  0
M  END
> <VM2 Rank>
16

> <Conf_Id>
317

> <Probability>
1.45

> <Sum Probability>
98.95

> <Delta G>
1.564

> <G>
28.568

> <E>
5.350

> <-TS>
23.218

> <U+W>
-10.746

> <U>
47.562

> <W>
-58.308

> <W(PB)>
-60.185

> <W(SA)>
1.877

> <Valence>
2.149

> <Coulomb>
45.034

> <VdW>
0.378

> <VdW6>
-5.599

> <VdW12>
5.977

> <Bond>
0.185

> <Angle>
0.935

> <Pdih>
1.029

> <Idih>
0.000

> <Tether>
0.000

$$$$
VeraChem MOL file


 20 19  0  0  0  0  0  0  0  0999 V2000     
   20.4974   18.6695   25.2001 N   0  3  0  0  0  0  0  0  0  0  0  0
   19.8993   17.8506   25.3479 H   0  0  0  0  0  0  0  0  0  0  0  0
   21.4155   18.4428   25.5966 H   0  0  0  0  0  0  0  0  0  0  0  0
   20.1098   19.4314   25.7655 H   0  0  0  0  0  0  0  0  0  0  0  0
   20.5933   19.0438   23.7347 C   0  0  0  0  0  0  0  0  0  0  0  0
   21.0395   18.1989   23.2053 H   0  0  0  0  0  0  0  0  0  0  0  0
   21.2644   19.9026   23.6480 H   0  0  0  0  0  0  0  0  0  0  0  0
   19.2297   19.3849   23.1078 C   0  0  0  0  0  0  0  0  0  0  0  0
   18.5798   18.5005   23.1426 H   0  0  0  0  0  0  0  0  0  0  0  0
   18.7410   20.1529   23.7221 H   0  0  0  0  0  0  0  0  0  0  0  0
   19.3207   19.9067   21.6513 C   0  0  0  0  0  0  0  0  0  0  0  0
   19.9218   20.8257   21.6149 H   0  0  0  0  0  0  0  0  0  0  0  0
   18.3082   20.2022   21.3431 H   0  0  0  0  0  0  0  0  0  0  0  0
   19.8536   18.8773   20.6209 C   0  0  0  0  0  0  0  0  0  0  0  0
   19.4948   17.8686   20.8691 H   0  0  0  0  0  0  0  0  0  0  0  0
   19.4221   19.1176   19.6390 H   0  0  0  0  0  0  0  0  0  0  0  0
   21.3934   18.8777   20.4731 C   0  0  0  0  0  0  0  0  0  0  0  0
   21.7000   18.1911   19.6734 H   0  0  0  0  0  0  0  0  0  0  0  0
   21.7635   19.8775   20.2114 H   0  0  0  0  0  0  0  0  0  0  0  0
   21.8993   18.5571   21.3897 H   0  0  0  0  0  0  0  0  0  0  0  0
  1  2  1  0  0  0  0
  1  3  1  0  0  0  0
  1  4  1  0  0  0  0
  1  5  1  0  0  0  0
  5  6  1  0  0  0  0
  5  7  1  0  0  0  0
  5  8  1  0  0  0  0
  8  9  1  0  0  0  0
  8 10  1  0  0  0  0
  8 11  1  0  0  0  0
 11 12  1  0  0  0  0
 11 13  1  0  0  0  0
 11 14  1  0  0  0  0
 14 15  1  0  0  0  0
 14 16  1  0  0  0  0
 14 17  1  0  0  0  0
 17 18  1  0  0  0  0
 17 19  1  0  0  0  0
 17 20  1  0  0  0  0
M  END
> <VM2 Rank>
17

> <Conf_Id>
557

> <Probability>
0.24

> <Sum Probability>
99.19

> <Delta G>
2.636

> <G>
29.640

> <E>
6.956

> <-TS>
22.685

> <U+W>
-9.141

> <U>
48.916

> <W>
-58.057

> <W(PB)>
-59.980

> <W(SA)>
1.924

> <Valence>
3.785

> <Coulomb>
44.716

> <VdW>
0.415

> <VdW6>
-4.836

> <VdW12>
5.251

> <Bond>
0.175

> <Angle>
1.196

> <Pdih>
2.414

> <Idih>
0.000

> <Tether>
0.000

$$$$
VeraChem MOL file


 20 19  0  0  0  0  0  0  0  0999 V2000     
   20.0211   19.6940   25.1988 N   0  3  0  0  0  0  0  0  0  0  0  0
   20.4391   20.5429   25.5940 H   0  0  0  0  0  0  0  0  0  0  0  0
   19.0093   19.7648   25.3456 H   0  0  0  0  0  0  0  0  0  0  0  0
   20.3534   18.9078   25.7661 H   0  0  0  0  0  0  0  0  0  0  0  0
   20.3704   19.5231   23.7341 C   0  0  0  0  0  0  0  0  0  0  0  0
   21.4596   19.4826   23.6485 H   0  0  0  0  0  0  0  0  0  0  0  0
   20.0124   20.4077   23.2026 H   0  0  0  0  0  0  0  0  0  0  0  0
   19.7530   18.2594   23.1093 C   0  0  0  0  0  0  0  0  0  0  0  0
   20.0247   17.3920   23.7256 H   0  0  0  0  0  0  0  0  0  0  0  0
   18.6579   18.3326   23.1429 H   0  0  0  0  0  0  0  0  0  0  0  0
   20.2119   17.9898   21.6537 C   0  0  0  0  0  0  0  0  0  0  0  0
   19.7855   17.0245   21.3470 H   0  0  0  0  0  0  0  0  0  0  0  0
   21.3021   17.8569   21.6186 H   0  0  0  0  0  0  0  0  0  0  0  0
   19.7693   19.0585   20.6207 C   0  0  0  0  0  0  0  0  0  0  0  0
   19.6758   18.5717   19.6397 H   0  0  0  0  0  0  0  0  0  0  0  0
   18.7667   19.4349   20.8672 H   0  0  0  0  0  0  0  0  0  0  0  0
   20.7623   20.2352   20.4713 C   0  0  0  0  0  0  0  0  0  0  0  0
   20.8424   20.8305   21.3868 H   0  0  0  0  0  0  0  0  0  0  0  0
   21.7655   19.8733   20.2113 H   0  0  0  0  0  0  0  0  0  0  0  0
   20.4357   20.9105   19.6700 H   0  0  0  0  0  0  0  0  0  0  0  0
  1  2  1  0  0  0  0
  1  3  1  0  0  0  0
  1  4  1  0  0  0  0
  1  5  1  0  0  0  0
  5  6  1  0  0  0  0
  5  7  1  0  0  0  0
  5  8  1  0  0  0  0
  8  9  1  0  0  0  0
  8 10  1  0  0  0  0
  8 11  1  0  0  0  0
 11 12  1  0  0  0  0
 11 13  1  0  0  0  0
 11 14  1  0  0  0  0
 14 15  1  0  0  0  0
 14 16  1  0  0  0  0
 14 17  1  0  0  0  0
 17 18  1  0  0  0  0
 17 19  1  0  0  0  0
 17 20  1  0  0  0  0
M  END
> <VM2 Rank>
18

> <Conf_Id>
138

> <Probability>
0.23

> <Sum Probability>
99.42

> <Delta G>
2.667

> <G>
29.671

> <E>
6.986

> <-TS>
22.685

> <U+W>
-9.111

> <U>
48.916

> <W>
-58.027

> <W(PB)>
-59.936

> <W(SA)>
1.909

> <Valence>
3.785

> <Coulomb>
44.716

> <VdW>
0.415

> <VdW6>
-4.836

> <VdW12>
5.251

> <Bond>
0.175

> <Angle>
1.196

> <Pdih>
2.414

> <Idih>
0.000

> <Tether>
0.000

$$$$
VeraChem MOL file


 20 19  0  0  0  0  0  0  0  0999 V2000     
   18.9507   19.5071   24.3939 N   0  3  0  0  0  0  0  0  0  0  0  0
   18.5751   19.8379   23.5014 H   0  0  0  0  0  0  0  0  0  0  0  0
   18.4532   18.6428   24.6298 H   0  0  0  0  0  0  0  0  0  0  0  0
   18.6938   20.2006   25.1043 H   0  0  0  0  0  0  0  0  0  0  0  0
   20.4512   19.2939   24.3336 C   0  0  0  0  0  0  0  0  0  0  0  0
   20.7644   18.9560   25.3253 H   0  0  0  0  0  0  0  0  0  0  0  0
   20.9325   20.2557   24.1370 H   0  0  0  0  0  0  0  0  0  0  0  0
   20.9050   18.2568   23.2849 C   0  0  0  0  0  0  0  0  0  0  0  0
   21.8928   17.8856   23.5887 H   0  0  0  0  0  0  0  0  0  0  0  0
   20.2374   17.3852   23.3039 H   0  0  0  0  0  0  0  0  0  0  0  0
   21.0296   18.8108   21.8422 C   0  0  0  0  0  0  0  0  0  0  0  0
   21.4669   18.0248   21.2110 H   0  0  0  0  0  0  0  0  0  0  0  0
   21.7452   19.6447   21.8308 H   0  0  0  0  0  0  0  0  0  0  0  0
   19.6929   19.2697   21.2137 C   0  0  0  0  0  0  0  0  0  0  0  0
   18.9389   18.4769   21.3184 H   0  0  0  0  0  0  0  0  0  0  0  0
   19.3135   20.1540   21.7408 H   0  0  0  0  0  0  0  0  0  0  0  0
   19.8585   19.6217   19.7198 C   0  0  0  0  0  0  0  0  0  0  0  0
   18.9040   19.9542   19.2915 H   0  0  0  0  0  0  0  0  0  0  0  0
   20.5887   20.4301   19.5832 H   0  0  0  0  0  0  0  0  0  0  0  0
   20.2001   18.7518   19.1437 H   0  0  0  0  0  0  0  0  0  0  0  0
  1  2  1  0  0  0  0
  1  3  1  0  0  0  0
  1  4  1  0  0  0  0
  1  5  1  0  0  0  0
  5  6  1  0  0  0  0
  5  7  1  0  0  0  0
  5  8  1  0  0  0  0
  8  9  1  0  0  0  0
  8 10  1  0  0  0  0
  8 11  1  0  0  0  0
 11 12  1  0  0  0  0
 11 13  1  0  0  0  0
 11 14  1  0  0  0  0
 14 15  1  0  0  0  0
 14 16  1  0  0  0  0
 14 17  1  0  0  0  0
 17 18  1  0  0  0  0
 17 19  1  0  0  0  0
 17 20  1  0  0  0  0
M  END
> <VM2 Rank>
19

> <Conf_Id>
289

> <Probability>
0.15

> <Sum Probability>
99.56

> <Delta G>
2.926

> <G>
29.930

> <E>
7.127

> <-TS>
22.803

> <U+W>
-8.969

> <U>
49.216

> <W>
-58.186

> <W(PB)>
-60.089

> <W(SA)>
1.903

> <Valence>
2.929

> <Coulomb>
46.006

> <VdW>
0.281

> <VdW6>
-4.909

> <VdW12>
5.190

> <Bond>
0.156

> <Angle>
0.974

> <Pdih>
1.799

> <Idih>
0.000

> <Tether>
0.000

$$$$
VeraChem MOL file


 20 19  0  0  0  0  0  0  0  0999 V2000     
   19.6638   17.9704   24.3956 N   0  3  0  0  0  0  0  0  0  0  0  0
   20.0269   17.3279   25.1076 H   0  0  0  0  0  0  0  0  0  0  0  0
   18.6823   18.1490   24.6303 H   0  0  0  0  0  0  0  0  0  0  0  0
   19.6747   17.4683   23.5041 H   0  0  0  0  0  0  0  0  0  0  0  0
   20.4698   19.2538   24.3337 C   0  0  0  0  0  0  0  0  0  0  0  0
   21.5152   19.0000   24.1385 H   0  0  0  0  0  0  0  0  0  0  0  0
   20.4131   19.7130   25.3244 H   0  0  0  0  0  0  0  0  0  0  0  0
   19.9718   20.2679   23.2825 C   0  0  0  0  0  0  0  0  0  0  0  0
   18.8751   20.3209   23.3005 H   0  0  0  0  0  0  0  0  0  0  0  0
   20.3257   21.2626   23.5847 H   0  0  0  0  0  0  0  0  0  0  0  0
   20.4765   20.0027   21.8408 C   0  0  0  0  0  0  0  0  0  0  0  0
   21.5753   20.0108   21.8303 H   0  0  0  0  0  0  0  0  0  0  0  0
   20.1591   20.8428   21.2077 H   0  0  0  0  0  0  0  0  0  0  0  0
   19.9646   18.6844   21.2144 C   0  0  0  0  0  0  0  0  0  0  0  0
   20.3946   17.8247   21.7435 H   0  0  0  0  0  0  0  0  0  0  0  0
   18.8723   18.6205   21.3184 H   0  0  0  0  0  0  0  0  0  0  0  0
   20.3415   18.5808   19.7210 C   0  0  0  0  0  0  0  0  0  0  0  0
   19.9797   17.6363   19.2943 H   0  0  0  0  0  0  0  0  0  0  0  0
   19.8980   19.4021   19.1430 H   0  0  0  0  0  0  0  0  0  0  0  0
   21.4303   18.6163   19.5852 H   0  0  0  0  0  0  0  0  0  0  0  0
  1  2  1  0  0  0  0
  1  3  1  0  0  0  0
  1  4  1  0  0  0  0
  1  5  1  0  0  0  0
  5  6  1  0  0  0  0
  5  7  1  0  0  0  0
  5  8  1  0  0  0  0
  8  9  1  0  0  0  0
  8 10  1  0  0  0  0
  8 11  1  0  0  0  0
 11 12  1  0  0  0  0
 11 13  1  0  0  0  0
 11 14  1  0  0  0  0
 14 15  1  0  0  0  0
 14 16  1  0  0  0  0
 14 17  1  0  0  0  0
 17 18  1  0  0  0  0
 17 19  1  0  0  0  0
 17 20  1  0  0  0  0
M  END
> <VM2 Rank>
20

> <Conf_Id>
558

> <Probability>
0.15

> <Sum Probability>
99.71

> <Delta G>
2.928

> <G>
29.932

> <E>
7.129

> <-TS>
22.804

> <U+W>
-8.968

> <U>
49.216

> <W>
-58.184

> <W(PB)>
-60.065

> <W(SA)>
1.881

> <Valence>
2.929

> <Coulomb>
46.006

> <VdW>
0.281

> <VdW6>
-4.909

> <VdW12>
5.190

> <Bond>
0.156

> <Angle>
0.974

> <Pdih>
1.799

> <Idih>
0.000

> <Tether>
0.000

$$$$
VeraChem MOL file


 20 19  0  0  0  0  0  0  0  0999 V2000     
   20.8341   18.6167   24.6868 N   0  3  0  0  0  0  0  0  0  0  0  0
   20.1101   18.2855   25.3319 H   0  0  0  0  0  0  0  0  0  0  0  0
   21.0995   17.8233   24.0962 H   0  0  0  0  0  0  0  0  0  0  0  0
   21.6538   18.8539   25.2553 H   0  0  0  0  0  0  0  0  0  0  0  0
   20.3590   19.7982   23.8634 C   0  0  0  0  0  0  0  0  0  0  0  0
   21.1846   20.1169   23.2252 H   0  0  0  0  0  0  0  0  0  0  0  0
   20.1364   20.6135   24.5571 H   0  0  0  0  0  0  0  0  0  0  0  0
   19.1056   19.5016   23.0126 C   0  0  0  0  0  0  0  0  0  0  0  0
   18.3042   19.1763   23.6891 H   0  0  0  0  0  0  0  0  0  0  0  0
   18.7501   20.4328   22.5520 H   0  0  0  0  0  0  0  0  0  0  0  0
   19.3056   18.4215   21.9155 C   0  0  0  0  0  0  0  0  0  0  0  0
   18.3199   17.9990   21.6759 H   0  0  0  0  0  0  0  0  0  0  0  0
   19.8971   17.5816   22.3019 H   0  0  0  0  0  0  0  0  0  0  0  0
   19.9223   18.9381   20.5900 C   0  0  0  0  0  0  0  0  0  0  0  0
   19.9270   18.1105   19.8669 H   0  0  0  0  0  0  0  0  0  0  0  0
   19.2749   19.7138   20.1575 H   0  0  0  0  0  0  0  0  0  0  0  0
   21.3614   19.4839   20.7197 C   0  0  0  0  0  0  0  0  0  0  0  0
   21.3783   20.4446   21.2477 H   0  0  0  0  0  0  0  0  0  0  0  0
   22.0099   18.7767   21.2528 H   0  0  0  0  0  0  0  0  0  0  0  0
   21.7963   19.6537   19.7263 H   0  0  0  0  0  0  0  0  0  0  0  0
  1  2  1  0  0  0  0
  1  3  1  0  0  0  0
  1  4  1  0  0  0  0
  1  5  1  0  0  0  0
  5  6  1  0  0  0  0
  5  7  1  0  0  0  0
  5  8  1  0  0  0  0
  8  9  1  0  0  0  0
  8 10  1  0  0  0  0
  8 11  1  0  0  0  0
 11 12  1  0  0  0  0
 11 13  1  0  0  0  0
 11 14  1  0  0  0  0
 14 15  1  0  0  0  0
 14 16  1  0  0  0  0
 14 17  1  0  0  0  0
 17 18  1  0  0  0  0
 17 19  1  0  0  0  0
 17 20  1  0  0  0  0
M  END
> <VM2 Rank>
21

> <Conf_Id>
128

> <Probability>
0.09

> <Sum Probability>
99.80

> <Delta G>
3.226

> <G>
30.230

> <E>
7.240

> <-TS>
22.990

> <U+W>
-8.856

> <U>
49.435

> <W>
-58.291

> <W(PB)>
-60.170

> <W(SA)>
1.879

> <Valence>
3.798

> <Coulomb>
45.253

> <VdW>
0.384

> <VdW6>
-5.595

> <VdW12>
5.979

> <Bond>
0.198

> <Angle>
1.370

> <Pdih>
2.230

> <Idih>
0.000

> <Tether>
0.000

$$$$
VeraChem MOL file


 20 19  0  0  0  0  0  0  0  0999 V2000     
   20.1976   19.9846   24.6851 N   0  3  0  0  0  0  0  0  0  0  0  0
   19.4772   19.6452   25.3301 H   0  0  0  0  0  0  0  0  0  0  0  0
   20.9064   20.4600   25.2534 H   0  0  0  0  0  0  0  0  0  0  0  0
   19.7621   20.6973   24.0926 H   0  0  0  0  0  0  0  0  0  0  0  0
   20.7963   18.8585   23.8645 C   0  0  0  0  0  0  0  0  0  0  0  0
   21.2760   18.1646   24.5601 H   0  0  0  0  0  0  0  0  0  0  0  0
   21.5724   19.2836   23.2262 H   0  0  0  0  0  0  0  0  0  0  0  0
   19.7630   18.0889   23.0144 C   0  0  0  0  0  0  0  0  0  0  0  0
   20.2469   17.2163   22.5560 H   0  0  0  0  0  0  0  0  0  0  0  0
   18.9974   17.6867   23.6910 H   0  0  0  0  0  0  0  0  0  0  0  0
   19.0665   18.9352   21.9148 C   0  0  0  0  0  0  0  0  0  0  0  0
   18.8046   19.9295   22.2990 H   0  0  0  0  0  0  0  0  0  0  0  0
   18.1087   18.4529   21.6753 H   0  0  0  0  0  0  0  0  0  0  0  0
   19.8601   19.0716   20.5898 C   0  0  0  0  0  0  0  0  0  0  0  0
   20.0369   18.0759   20.1594 H   0  0  0  0  0  0  0  0  0  0  0  0
   19.2307   19.6069   19.8651 H   0  0  0  0  0  0  0  0  0  0  0  0
   21.2045   19.8212   20.7193 C   0  0  0  0  0  0  0  0  0  0  0  0
   21.0807   20.7738   21.2504 H   0  0  0  0  0  0  0  0  0  0  0  0
   21.9498   19.2163   21.2491 H   0  0  0  0  0  0  0  0  0  0  0  0
   21.6154   20.0425   19.7258 H   0  0  0  0  0  0  0  0  0  0  0  0
  1  2  1  0  0  0  0
  1  3  1  0  0  0  0
  1  4  1  0  0  0  0
  1  5  1  0  0  0  0
  5  6  1  0  0  0  0
  5  7  1  0  0  0  0
  5  8  1  0  0  0  0
  8  9  1  0  0  0  0
  8 10  1  0  0  0  0
  8 11  1  0  0  0  0
 11 12  1  0  0  0  0
 11 13  1  0  0  0  0
 11 14  1  0  0  0  0
 14 15  1  0  0  0  0
 14 16  1  0  0  0  0
 14 17  1  0  0  0  0
 17 18  1  0  0  0  0
 17 19  1  0  0  0  0
 17 20  1  0  0  0  0
M  END
> <VM2 Rank>
22

> <Conf_Id>
225

> <Probability>
0.08

> <Sum Probability>
99.89

> <Delta G>
3.254

> <G>
30.258

> <E>
7.268

> <-TS>
22.990

> <U+W>
-8.829

> <U>
49.435

> <W>
-58.263

> <W(PB)>
-60.125

> <W(SA)>
1.862

> <Valence>
3.797

> <Coulomb>
45.253

> <VdW>
0.384

> <VdW6>
-5.596

> <VdW12>
5.980

> <Bond>
0.198

> <Angle>
1.370

> <Pdih>
2.230

> <Idih>
0.000

> <Tether>
0.000

$$$$
VeraChem MOL file


 20 19  0  0  0  0  0  0  0  0999 V2000     
   21.1754   18.9019   24.3538 N   0  3  0  0  0  0  0  0  0  0  0  0
   21.6395   18.4489   23.5611 H   0  0  0  0  0  0  0  0  0  0  0  0
   21.8919   19.4291   24.8636 H   0  0  0  0  0  0  0  0  0  0  0  0
   20.8488   18.1593   24.9799 H   0  0  0  0  0  0  0  0  0  0  0  0
   20.0375   19.7934   23.8964 C   0  0  0  0  0  0  0  0  0  0  0  0
   20.4504   20.5828   23.2647 H   0  0  0  0  0  0  0  0  0  0  0  0
   19.6086   20.2661   24.7842 H   0  0  0  0  0  0  0  0  0  0  0  0
   18.9282   19.0422   23.1350 C   0  0  0  0  0  0  0  0  0  0  0  0
   18.4615   18.3217   23.8197 H   0  0  0  0  0  0  0  0  0  0  0  0
   18.1394   19.7578   22.8678 H   0  0  0  0  0  0  0  0  0  0  0  0
   19.3914   18.2913   21.8576 C   0  0  0  0  0  0  0  0  0  0  0  0
   18.5213   17.7438   21.4693 H   0  0  0  0  0  0  0  0  0  0  0  0
   20.1315   17.5197   22.1078 H   0  0  0  0  0  0  0  0  0  0  0  0
   19.9244   19.1992   20.7188 C   0  0  0  0  0  0  0  0  0  0  0  0
   19.7638   18.6802   19.7633 H   0  0  0  0  0  0  0  0  0  0  0  0
   19.3340   20.1243   20.6617 H   0  0  0  0  0  0  0  0  0  0  0  0
   21.4311   19.5319   20.8264 C   0  0  0  0  0  0  0  0  0  0  0  0
   21.6567   20.1597   21.6945 H   0  0  0  0  0  0  0  0  0  0  0  0
   22.0344   18.6176   20.8946 H   0  0  0  0  0  0  0  0  0  0  0  0
   21.7630   20.0807   19.9355 H   0  0  0  0  0  0  0  0  0  0  0  0
  1  2  1  0  0  0  0
  1  3  1  0  0  0  0
  1  4  1  0  0  0  0
  1  5  1  0  0  0  0
  5  6  1  0  0  0  0
  5  7  1  0  0  0  0
  5  8  1  0  0  0  0
  8  9  1  0  0  0  0
  8 10  1  0  0  0  0
  8 11  1  0  0  0  0
 11 12  1  0  0  0  0
 11 13  1  0  0  0  0
 11 14  1  0  0  0  0
 14 15  1  0  0  0  0
 14 16  1  0  0  0  0
 14 17  1  0  0  0  0
 17 18  1  0  0  0  0
 17 19  1  0  0  0  0
 17 20  1  0  0  0  0
M  END
> <VM2 Rank>
23

> <Conf_Id>
457

> <Probability>
0.04

> <Sum Probability>
99.93

> <Delta G>
3.679

> <G>
30.683

> <E>
7.494

> <-TS>
23.189

> <U+W>
-8.602

> <U>
49.667

> <W>
-58.270

> <W(PB)>
-60.120

> <W(SA)>
1.851

> <Valence>
3.949

> <Coulomb>
45.464

> <VdW>
0.254

> <VdW6>
-5.831

> <VdW12>
6.085

> <Bond>
0.203

> <Angle>
1.495

> <Pdih>
2.250

> <Idih>
0.000

> <Tether>
0.000

$$$$
VeraChem MOL file


 20 19  0  0  0  0  0  0  0  0999 V2000     
   20.6350   20.0618   24.3523 N   0  3  0  0  0  0  0  0  0  0  0  0
   21.4991   20.2723   24.8624 H   0  0  0  0  0  0  0  0  0  0  0  0
   20.5875   20.7069   23.5581 H   0  0  0  0  0  0  0  0  0  0  0  0
   19.8558   20.2908   24.9771 H   0  0  0  0  0  0  0  0  0  0  0  0
   20.5860   18.6161   23.8979 C   0  0  0  0  0  0  0  0  0  0  0  0
   20.6710   17.9856   24.7871 H   0  0  0  0  0  0  0  0  0  0  0  0
   21.4566   18.4231   23.2675 H   0  0  0  0  0  0  0  0  0  0  0  0
   19.2980   18.2485   23.1360 C   0  0  0  0  0  0  0  0  0  0  0  0
   19.3387   17.1837   22.8711 H   0  0  0  0  0  0  0  0  0  0  0  0
   18.4455   18.3561   23.8197 H   0  0  0  0  0  0  0  0  0  0  0  0
   19.0223   19.0835   21.8566 C   0  0  0  0  0  0  0  0  0  0  0  0
   18.9074   20.1470   22.1045 H   0  0  0  0  0  0  0  0  0  0  0  0
   18.0438   18.7687   21.4680 H   0  0  0  0  0  0  0  0  0  0  0  0
   20.0614   18.9052   20.7191 C   0  0  0  0  0  0  0  0  0  0  0  0
   20.3899   17.8580   20.6645 H   0  0  0  0  0  0  0  0  0  0  0  0
   19.5616   19.1141   19.7628 H   0  0  0  0  0  0  0  0  0  0  0  0
   21.2853   19.8448   20.8261 C   0  0  0  0  0  0  0  0  0  0  0  0
   20.9733   20.8951   20.8920 H   0  0  0  0  0  0  0  0  0  0  0  0
   21.9103   19.6154   21.6951 H   0  0  0  0  0  0  0  0  0  0  0  0
   21.9198   19.7442   19.9360 H   0  0  0  0  0  0  0  0  0  0  0  0
  1  2  1  0  0  0  0
  1  3  1  0  0  0  0
  1  4  1  0  0  0  0
  1  5  1  0  0  0  0
  5  6  1  0  0  0  0
  5  7  1  0  0  0  0
  5  8  1  0  0  0  0
  8  9  1  0  0  0  0
  8 10  1  0  0  0  0
  8 11  1  0  0  0  0
 11 12  1  0  0  0  0
 11 13  1  0  0  0  0
 11 14  1  0  0  0  0
 14 15  1  0  0  0  0
 14 16  1  0  0  0  0
 14 17  1  0  0  0  0
 17 18  1  0  0  0  0
 17 19  1  0  0  0  0
 17 20  1  0  0  0  0
M  END
> <VM2 Rank>
24

> <Conf_Id>
560

> <Probability>
0.03

> <Sum Probability>
99.96

> <Delta G>
3.800

> <G>
30.804

> <E>
7.615

> <-TS>
23.189

> <U+W>
-8.481

> <U>
49.667

> <W>
-58.149

> <W(PB)>
-60.002

> <W(SA)>
1.853

> <Valence>
3.949

> <Coulomb>
45.464

> <VdW>
0.254

> <VdW6>
-5.831

> <VdW12>
6.085

> <Bond>
0.203

> <Angle>
1.495

> <Pdih>
2.250

> <Idih>
0.000

> <Tether>
0.000

$$$$
VeraChem MOL file


 20 19  0  0  0  0  0  0  0  0999 V2000     
   18.8233   19.0137   24.0373 N   0  3  0  0  0  0  0  0  0  0  0  0
   18.4422   19.9646   24.0586 H   0  0  0  0  0  0  0  0  0  0  0  0
   18.5479   18.5973   23.1434 H   0  0  0  0  0  0  0  0  0  0  0  0
   18.3496   18.4864   24.7784 H   0  0  0  0  0  0  0  0  0  0  0  0
   20.3288   19.0087   24.2170 C   0  0  0  0  0  0  0  0  0  0  0  0
   20.6677   17.9711   24.2796 H   0  0  0  0  0  0  0  0  0  0  0  0
   20.5377   19.4909   25.1758 H   0  0  0  0  0  0  0  0  0  0  0  0
   21.1041   19.7436   23.1035 C   0  0  0  0  0  0  0  0  0  0  0  0
   20.6102   20.6927   22.8594 H   0  0  0  0  0  0  0  0  0  0  0  0
   22.0865   20.0184   23.5097 H   0  0  0  0  0  0  0  0  0  0  0  0
   21.3439   18.8981   21.8238 C   0  0  0  0  0  0  0  0  0  0  0  0
   21.9208   18.0028   22.0940 H   0  0  0  0  0  0  0  0  0  0  0  0
   21.9873   19.4720   21.1426 H   0  0  0  0  0  0  0  0  0  0  0  0
   20.0762   18.4564   21.0498 C   0  0  0  0  0  0  0  0  0  0  0  0
   20.3916   17.8676   20.1770 H   0  0  0  0  0  0  0  0  0  0  0  0
   19.4741   17.7728   21.6613 H   0  0  0  0  0  0  0  0  0  0  0  0
   19.2118   19.6396   20.5566 C   0  0  0  0  0  0  0  0  0  0  0  0
   18.3655   19.2755   19.9597 H   0  0  0  0  0  0  0  0  0  0  0  0
   18.8031   20.2241   21.3892 H   0  0  0  0  0  0  0  0  0  0  0  0
   19.7998   20.3165   19.9233 H   0  0  0  0  0  0  0  0  0  0  0  0
  1  2  1  0  0  0  0
  1  3  1  0  0  0  0
  1  4  1  0  0  0  0
  1  5  1  0  0  0  0
  5  6  1  0  0  0  0
  5  7  1  0  0  0  0
  5  8  1  0  0  0  0
  8  9  1  0  0  0  0
  8 10  1  0  0  0  0
  8 11  1  0  0  0  0
 11 12  1  0  0  0  0
 11 13  1  0  0  0  0
 11 14  1  0  0  0  0
 14 15  1  0  0  0  0
 14 16  1  0  0  0  0
 14 17  1  0  0  0  0
 17 18  1  0  0  0  0
 17 19  1  0  0  0  0
 17 20  1  0  0  0  0
M  END
> <VM2 Rank>
25

> <Conf_Id>
112

> <Probability>
0.02

> <Sum Probability>
99.98

> <Delta G>
4.124

> <G>
31.128

> <E>
7.725

> <-TS>
23.403

> <U+W>
-8.372

> <U>
49.568

> <W>
-57.940

> <W(PB)>
-59.793

> <W(SA)>
1.854

> <Valence>
3.368

> <Coulomb>
46.021

> <VdW>
0.179

> <VdW6>
-6.025

> <VdW12>
6.204

> <Bond>
0.196

> <Angle>
1.442

> <Pdih>
1.729

> <Idih>
0.000

> <Tether>
0.000

$$$$
VeraChem MOL file


 20 19  0  0  0  0  0  0  0  0999 V2000     
   19.2032   18.1929   24.0383 N   0  3  0  0  0  0  0  0  0  0  0  0
   18.4941   18.1744   24.7789 H   0  0  0  0  0  0  0  0  0  0  0  0
   18.7082   18.2509   23.1440 H   0  0  0  0  0  0  0  0  0  0  0  0
   19.6814   17.2869   24.0616 H   0  0  0  0  0  0  0  0  0  0  0  0
   20.1736   19.3440   24.2167 C   0  0  0  0  0  0  0  0  0  0  0  0
   20.6757   19.1929   25.1762 H   0  0  0  0  0  0  0  0  0  0  0  0
   19.6020   20.2740   24.2771 H   0  0  0  0  0  0  0  0  0  0  0  0
   21.2365   19.4574   23.1037 C   0  0  0  0  0  0  0  0  0  0  0  0
   22.0815   20.0292   23.5096 H   0  0  0  0  0  0  0  0  0  0  0  0
   21.6406   18.4662   22.8618 H   0  0  0  0  0  0  0  0  0  0  0  0
   20.7481   20.1851   21.8223 C   0  0  0  0  0  0  0  0  0  0  0  0
   21.6026   20.3030   21.1417 H   0  0  0  0  0  0  0  0  0  0  0  0
   20.4387   21.2048   22.0906 H   0  0  0  0  0  0  0  0  0  0  0  0
   19.5917   19.5030   21.0486 C   0  0  0  0  0  0  0  0  0  0  0  0
   18.6804   19.4876   21.6593 H   0  0  0  0  0  0  0  0  0  0  0  0
   19.3478   20.1230   20.1744 H   0  0  0  0  0  0  0  0  0  0  0  0
   19.9348   18.0775   20.5583 C   0  0  0  0  0  0  0  0  0  0  0  0
   20.1150   17.3892   21.3923 H   0  0  0  0  0  0  0  0  0  0  0  0
   19.1102   17.6669   19.9612 H   0  0  0  0  0  0  0  0  0  0  0  0
   20.8321   18.0866   19.9259 H   0  0  0  0  0  0  0  0  0  0  0  0
  1  2  1  0  0  0  0
  1  3  1  0  0  0  0
  1  4  1  0  0  0  0
  1  5  1  0  0  0  0
  5  6  1  0  0  0  0
  5  7  1  0  0  0  0
  5  8  1  0  0  0  0
  8  9  1  0  0  0  0
  8 10  1  0  0  0  0
  8 11  1  0  0  0  0
 11 12  1  0  0  0  0
 11 13  1  0  0  0  0
 11 14  1  0  0  0  0
 14 15  1  0  0  0  0
 14 16  1  0  0  0  0
 14 17  1  0  0  0  0
 17 18  1  0  0  0  0
 17 19  1  0  0  0  0
 17 20  1  0  0  0  0
M  END
> <VM2 Rank>
26

> <Conf_Id>
472

> <Probability>
0.02

> <Sum Probability>
100.00

> <Delta G>
4.193

> <G>
31.197

> <E>
7.795

> <-TS>
23.403

> <U+W>
-8.302

> <U>
49.568

> <W>
-57.870

> <W(PB)>
-59.720

> <W(SA)>
1.850

> <Valence>
3.368

> <Coulomb>
46.021

> <VdW>
0.179

> <VdW6>
-6.024

> <VdW12>
6.203

> <Bond>
0.197

> <Angle>
1.442

> <Pdih>
1.730

> <Idih>
0.000

> <Tether>
0.000

$$$$
VeraChem MOL file


 20 19  0  0  0  0  0  0  0  0999 V2000     
   20.3762   17.8730   24.0431 N   0  3  0  0  0  0  0  0  0  0  0  0
   20.3868   17.4941   23.0912 H   0  0  0  0  0  0  0  0  0  0  0  0
   21.1249   17.4070   24.5665 H   0  0  0  0  0  0  0  0  0  0  0  0
   19.4905   17.5900   24.4742 H   0  0  0  0  0  0  0  0  0  0  0  0
   20.5442   19.3801   24.0402 C   0  0  0  0  0  0  0  0  0  0  0  0
   21.5287   19.6225   23.6315 H   0  0  0  0  0  0  0  0  0  0  0  0
   20.5204   19.7061   25.0836 H   0  0  0  0  0  0  0  0  0  0  0  0
   19.4508   20.1310   23.2533 C   0  0  0  0  0  0  0  0  0  0  0  0
   18.4687   19.6887   23.4671 H   0  0  0  0  0  0  0  0  0  0  0  0
   19.4064   21.1574   23.6408 H   0  0  0  0  0  0  0  0  0  0  0  0
   19.6784   20.2135   21.7199 C   0  0  0  0  0  0  0  0  0  0  0  0
   20.5977   20.7768   21.5075 H   0  0  0  0  0  0  0  0  0  0  0  0
   18.8617   20.8162   21.2989 H   0  0  0  0  0  0  0  0  0  0  0  0
   19.7037   18.8540   20.9759 C   0  0  0  0  0  0  0  0  0  0  0  0
   19.0786   18.1178   21.4989 H   0  0  0  0  0  0  0  0  0  0  0  0
   19.2396   18.9869   19.9884 H   0  0  0  0  0  0  0  0  0  0  0  0
   21.1347   18.3084   20.7556 C   0  0  0  0  0  0  0  0  0  0  0  0
   21.1029   17.3211   20.2767 H   0  0  0  0  0  0  0  0  0  0  0  0
   21.7053   18.9764   20.0972 H   0  0  0  0  0  0  0  0  0  0  0  0
   21.6959   18.2128   21.6913 H   0  0  0  0  0  0  0  0  0  0  0  0
  1  2  1  0  0  0  0
  1  3  1  0  0  0  0
  1  4  1  0  0  0  0
  1  5  1  0  0  0  0
  5  6  1  0  0  0  0
  5  7  1  0  0  0  0
  5  8  1  0  0  0  0
  8  9  1  0  0  0  0
  8 10  1  0  0  0  0
  8 11  1  0  0  0  0
 11 12  1  0  0  0  0
 11 13  1  0  0  0  0
 11 14  1  0  0  0  0
 14 15  1  0  0  0  0
 14 16  1  0  0  0  0
 14 17  1  0  0  0  0
 17 18  1  0  0  0  0
 17 19  1  0  0  0  0
 17 20  1  0  0  0  0
M  END
> <VM2 Rank>
27

> <Conf_Id>
59

> <Probability>
0.00

> <Sum Probability>
100.00

> <Delta G>
6.056

> <G>
33.060

> <E>
9.672

> <-TS>
23.388

> <U+W>
-6.425

> <U>
51.541

> <W>
-57.966

> <W(PB)>
-59.821

> <W(SA)>
1.855

> <Valence>
5.347

> <Coulomb>
45.870

> <VdW>
0.324

> <VdW6>
-6.161

> <VdW12>
6.485

> <Bond>
0.201

> <Angle>
1.484

> <Pdih>
3.662

> <Idih>
0.000

> <Tether>
0.000

$$$$
VeraChem MOL file


 20 19  0  0  0  0  0  0  0  0999 V2000     
   19.3356   20.1127   24.0403 N   0  3  0  0  0  0  0  0  0  0  0  0
   19.0537   20.3633   23.0877 H   0  0  0  0  0  0  0  0  0  0  0  0
   18.5477   19.6192   24.4717 H   0  0  0  0  0  0  0  0  0  0  0  0
   19.4619   20.9865   24.5621 H   0  0  0  0  0  0  0  0  0  0  0  0
   20.5957   19.2691   24.0403 C   0  0  0  0  0  0  0  0  0  0  0  0
   20.8287   19.0428   25.0844 H   0  0  0  0  0  0  0  0  0  0  0  0
   21.4164   19.8644   23.6312 H   0  0  0  0  0  0  0  0  0  0  0  0
   20.4652   17.9477   23.2559 C   0  0  0  0  0  0  0  0  0  0  0  0
   21.2207   17.2525   23.6455 H   0  0  0  0  0  0  0  0  0  0  0  0
   19.4936   17.4828   23.4699 H   0  0  0  0  0  0  0  0  0  0  0  0
   20.6764   18.0653   21.7225 C   0  0  0  0  0  0  0  0  0  0  0  0
   20.6105   17.0516   21.3035 H   0  0  0  0  0  0  0  0  0  0  0  0
   21.6999   18.4041   21.5103 H   0  0  0  0  0  0  0  0  0  0  0  0
   19.6544   18.9601   20.9758 C   0  0  0  0  0  0  0  0  0  0  0  0
   19.4575   18.5177   19.9890 H   0  0  0  0  0  0  0  0  0  0  0  0
   18.6882   18.9582   21.4979 H   0  0  0  0  0  0  0  0  0  0  0  0
   20.1606   20.4051   20.7531 C   0  0  0  0  0  0  0  0  0  0  0  0
   20.4488   20.8974   21.6881 H   0  0  0  0  0  0  0  0  0  0  0  0
   21.0396   20.4090   20.0953 H   0  0  0  0  0  0  0  0  0  0  0  0
   19.3860   21.0166   20.2724 H   0  0  0  0  0  0  0  0  0  0  0  0
  1  2  1  0  0  0  0
  1  3  1  0  0  0  0
  1  4  1  0  0  0  0
  1  5  1  0  0  0  0
  5  6  1  0  0  0  0
  5  7  1  0  0  0  0
  5  8  1  0  0  0  0
  8  9  1  0  0  0  0
  8 10  1  0  0  0  0
  8 11  1  0  0  0  0
 11 12  1  0  0  0  0
 11 13  1  0  0  0  0
 11 14  1  0  0  0  0
 14 15  1  0  0  0  0
 14 16  1  0  0  0  0
 14 17  1  0  0  0  0
 17 18  1  0  0  0  0
 17 19  1  0  0  0  0
 17 20  1  0  0  0  0
M  END
> <VM2 Rank>
28

> <Conf_Id>
390

> <Probability>
0.00

> <Sum Probability>
100.00

> <Delta G>
6.069

> <G>
33.073

> <E>
9.684

> <-TS>
23.389

> <U+W>
-6.412

> <U>
51.542

> <W>
-57.954

> <W(PB)>
-59.811

> <W(SA)>
1.857

> <Valence>
5.347

> <Coulomb>
45.870

> <VdW>
0.325

> <VdW6>
-6.161

> <VdW12>
6.486

> <Bond>
0.201

> <Angle>
1.484

> <Pdih>
3.662

> <Idih>
0.000

> <Tether>
0.000

$$$$
