VeraChem MOL file


 13 12  0  0  0  0  0  0  0  0999 V2000     
   20.0726   19.2403   23.9326 C   0  0  0  0  0  0  0  0  0  0  0  0
   20.6422   20.2279   24.3518 O   0  5  0  0  0  0  0  0  0  0  0  0
   19.9465   18.2159   24.5730 O   0  0  0  0  0  0  0  0  0  0  0  0
   19.5017   19.2824   22.5192 C   0  0  0  0  0  0  0  0  0  0  0  0
   19.1790   20.3100   22.3118 H   0  0  0  0  0  0  0  0  0  0  0  0
   18.6053   18.6508   22.4941 H   0  0  0  0  0  0  0  0  0  0  0  0
   20.5130   18.8146   21.4449 C   0  0  0  0  0  0  0  0  0  0  0  0
   21.4104   19.4478   21.4859 H   0  0  0  0  0  0  0  0  0  0  0  0
   20.8364   17.7883   21.6682 H   0  0  0  0  0  0  0  0  0  0  0  0
   19.9061   18.8689   20.0286 C   0  0  0  0  0  0  0  0  0  0  0  0
   20.6373   18.5339   19.2814 H   0  0  0  0  0  0  0  0  0  0  0  0
   19.0237   18.2197   19.9542 H   0  0  0  0  0  0  0  0  0  0  0  0
   19.6021   19.8919   19.7705 H   0  0  0  0  0  0  0  0  0  0  0  0
  1  2  1  0  0  0  0
  1  3  2  0  0  0  0
  1  4  1  0  0  0  0
  4  5  1  0  0  0  0
  4  6  1  0  0  0  0
  4  7  1  0  0  0  0
  7  8  1  0  0  0  0
  7  9  1  0  0  0  0
  7 10  1  0  0  0  0
 10 11  1  0  0  0  0
 10 12  1  0  0  0  0
 10 13  1  0  0  0  0
M  END
> <VM2 Rank>
1

> <Conf_Id>
1

> <Probability>
88.65

> <Sum Probability>
88.65

> <Delta G>
0.000

> <G>
-44.757

> <E>
-49.835

> <-TS>
5.078

> <U+W>
-59.672

> <U>
7.389

> <W>
-67.060

> <W(PB)>
-68.767

> <W(SA)>
1.707

> <Valence>
5.822

> <Coulomb>
1.255

> <VdW>
0.312

> <VdW6>
-3.061

> <VdW12>
3.372

> <Bond>
0.059

> <Angle>
2.241

> <Pdih>
3.522

> <Idih>
0.000

> <Tether>
0.000

$$$$
VeraChem MOL file


 13 12  0  0  0  0  0  0  0  0999 V2000     
   20.0955   19.1165   23.9490 C   0  0  0  0  0  0  0  0  0  0  0  0
   20.8058   20.0933   24.0863 O   0  5  0  0  0  0  0  0  0  0  0  0
   19.6372   18.4950   24.8862 O   0  0  0  0  0  0  0  0  0  0  0  0
   19.7450   18.6224   22.5441 C   0  0  0  0  0  0  0  0  0  0  0  0
   18.6516   18.6170   22.4620 H   0  0  0  0  0  0  0  0  0  0  0  0
   20.0767   17.5798   22.4712 H   0  0  0  0  0  0  0  0  0  0  0  0
   20.3524   19.4467   21.3790 C   0  0  0  0  0  0  0  0  0  0  0  0
   20.0211   20.4918   21.4556 H   0  0  0  0  0  0  0  0  0  0  0  0
   21.4480   19.4534   21.4649 H   0  0  0  0  0  0  0  0  0  0  0  0
   19.9461   18.8761   20.0053 C   0  0  0  0  0  0  0  0  0  0  0  0
   18.8551   18.8875   19.8822 H   0  0  0  0  0  0  0  0  0  0  0  0
   20.3849   19.4718   19.1942 H   0  0  0  0  0  0  0  0  0  0  0  0
   20.2934   17.8407   19.8916 H   0  0  0  0  0  0  0  0  0  0  0  0
  1  2  1  0  0  0  0
  1  3  2  0  0  0  0
  1  4  1  0  0  0  0
  4  5  1  0  0  0  0
  4  6  1  0  0  0  0
  4  7  1  0  0  0  0
  7  8  1  0  0  0  0
  7  9  1  0  0  0  0
  7 10  1  0  0  0  0
 10 11  1  0  0  0  0
 10 12  1  0  0  0  0
 10 13  1  0  0  0  0
M  END
> <VM2 Rank>
2

> <Conf_Id>
0

> <Probability>
4.01

> <Sum Probability>
92.66

> <Delta G>
1.846

> <G>
-42.911

> <E>
-48.495

> <-TS>
5.584

> <U+W>
-58.332

> <U>
8.390

> <W>
-66.722

> <W(PB)>
-68.455

> <W(SA)>
1.733

> <Valence>
6.333

> <Coulomb>
1.215

> <VdW>
0.842

> <VdW6>
-3.344

> <VdW12>
4.186

> <Bond>
0.091

> <Angle>
2.713

> <Pdih>
3.529

> <Idih>
0.000

> <Tether>
0.000

$$$$
VeraChem MOL file


 13 12  0  0  0  0  0  0  0  0999 V2000     
   20.1471   19.2364   23.7719 C   0  0  0  0  0  0  0  0  0  0  0  0
   20.0116   20.4162   24.0279 O   0  5  0  0  0  0  0  0  0  0  0  0
   19.6234   18.3476   24.4137 O   0  0  0  0  0  0  0  0  0  0  0  0
   21.0509   18.8460   22.6051 C   0  0  0  0  0  0  0  0  0  0  0  0
   21.7238   18.0573   22.9624 H   0  0  0  0  0  0  0  0  0  0  0  0
   21.6806   19.7058   22.3454 H   0  0  0  0  0  0  0  0  0  0  0  0
   20.2885   18.3446   21.3519 C   0  0  0  0  0  0  0  0  0  0  0  0
   21.0110   17.9469   20.6262 H   0  0  0  0  0  0  0  0  0  0  0  0
   19.6299   17.5103   21.6314 H   0  0  0  0  0  0  0  0  0  0  0  0
   19.4605   19.4592   20.6795 C   0  0  0  0  0  0  0  0  0  0  0  0
   18.9501   19.0765   19.7861 H   0  0  0  0  0  0  0  0  0  0  0  0
   18.6962   19.8507   21.3639 H   0  0  0  0  0  0  0  0  0  0  0  0
   20.1034   20.2943   20.3718 H   0  0  0  0  0  0  0  0  0  0  0  0
  1  2  1  0  0  0  0
  1  3  2  0  0  0  0
  1  4  1  0  0  0  0
  4  5  1  0  0  0  0
  4  6  1  0  0  0  0
  4  7  1  0  0  0  0
  7  8  1  0  0  0  0
  7  9  1  0  0  0  0
  7 10  1  0  0  0  0
 10 11  1  0  0  0  0
 10 12  1  0  0  0  0
 10 13  1  0  0  0  0
M  END
> <VM2 Rank>
3

> <Conf_Id>
191

> <Probability>
3.70

> <Sum Probability>
96.36

> <Delta G>
1.893

> <G>
-42.864

> <E>
-48.226

> <-TS>
5.362

> <U+W>
-58.062

> <U>
9.781

> <W>
-67.843

> <W(PB)>
-69.539

> <W(SA)>
1.696

> <Valence>
6.123

> <Coulomb>
3.449

> <VdW>
0.209

> <VdW6>
-3.762

> <VdW12>
3.972

> <Bond>
0.078

> <Angle>
2.428

> <Pdih>
3.616

> <Idih>
0.002

> <Tether>
0.000

$$$$
VeraChem MOL file


 13 12  0  0  0  0  0  0  0  0999 V2000     
   20.1230   19.1667   23.7796 C   0  0  0  0  0  0  0  0  0  0  0  0
   20.2962   20.2933   24.2001 O   0  5  0  0  0  0  0  0  0  0  0  0
   19.3123   18.3937   24.2500 O   0  0  0  0  0  0  0  0  0  0  0  0
   20.9961   18.6875   22.6226 C   0  0  0  0  0  0  0  0  0  0  0  0
   20.9502   17.5924   22.5777 H   0  0  0  0  0  0  0  0  0  0  0  0
   22.0327   18.9512   22.8641 H   0  0  0  0  0  0  0  0  0  0  0  0
   20.6168   19.2946   21.2475 C   0  0  0  0  0  0  0  0  0  0  0  0
   20.6257   20.3915   21.3147 H   0  0  0  0  0  0  0  0  0  0  0  0
   21.3810   19.0174   20.5085 H   0  0  0  0  0  0  0  0  0  0  0  0
   19.2376   18.8143   20.7503 C   0  0  0  0  0  0  0  0  0  0  0  0
   18.4415   19.1137   21.4449 H   0  0  0  0  0  0  0  0  0  0  0  0
   19.0088   19.2462   19.7674 H   0  0  0  0  0  0  0  0  0  0  0  0
   19.2139   17.7208   20.6547 H   0  0  0  0  0  0  0  0  0  0  0  0
  1  2  1  0  0  0  0
  1  3  2  0  0  0  0
  1  4  1  0  0  0  0
  4  5  1  0  0  0  0
  4  6  1  0  0  0  0
  4  7  1  0  0  0  0
  7  8  1  0  0  0  0
  7  9  1  0  0  0  0
  7 10  1  0  0  0  0
 10 11  1  0  0  0  0
 10 12  1  0  0  0  0
 10 13  1  0  0  0  0
M  END
> <VM2 Rank>
4

> <Conf_Id>
4

> <Probability>
3.64

> <Sum Probability>
100.00

> <Delta G>
1.904

> <G>
-42.853

> <E>
-48.214

> <-TS>
5.362

> <U+W>
-58.051

> <U>
9.781

> <W>
-67.832

> <W(PB)>
-69.535

> <W(SA)>
1.703

> <Valence>
6.123

> <Coulomb>
3.449

> <VdW>
0.209

> <VdW6>
-3.762

> <VdW12>
3.972

> <Bond>
0.078

> <Angle>
2.428

> <Pdih>
3.616

> <Idih>
0.002

> <Tether>
0.000

$$$$
