@<TRIPOS>MOLECULE
CD_fast_vm2.mol2 : feprocess host conformer 1
         126         132           1
SMALL
USER_CHARGES
 
@<TRIPOS>ATOM
       1    C1      16.136053   15.151548   21.122504 C.3        1 MOL1         0.2972
       2    H1      15.078298   14.973525   20.890630 H          1 MOL1         0.0751
       3    O1      16.371904   16.513985   21.526459 O.3        1 MOL1        -0.3740
       4    C2      16.575082   14.237002   22.292986 C.3        1 MOL1         0.1003
       5    H2      16.404676   13.197251   21.984726 H          1 MOL1         0.0783
       6    O2      15.795643   14.520147   23.466597 O.3        1 MOL1        -0.5519
       7    H3      15.587511   15.487471   23.447432 H          1 MOL1         0.3769
       8    C3      18.083505   14.407886   22.591468 C.3        1 MOL1         0.1053
       9    H4      18.242861   15.420065   22.988067 H          1 MOL1         0.0783
      10    O3      18.496013   13.437115   23.560034 O.3        1 MOL1        -0.5519
      11    H5      17.810526   13.471890   24.264159 H          1 MOL1         0.3769
      12    C4      18.924363   14.254811   21.301773 C.3        1 MOL1         0.1018
      13    H6      18.898322   13.200157   20.997450 H          1 MOL1         0.0783
      14    C5      18.379034   15.143975   20.148520 C.3        1 MOL1         0.1043
      15    H7      18.514549   16.195070   20.435045 H          1 MOL1         0.0783
      16    O4      16.965050   14.872334   19.973355 O.3        1 MOL1        -0.3740
      17    C6      19.085308   14.957104   18.781504 C.3        1 MOL1         0.0138
      18    H8      19.972319   15.602525   18.756963 H          1 MOL1         0.0794
      19    H9      18.412446   15.310905   17.989120 H          1 MOL1         0.0794
      20    O5      19.472197   13.602869   18.526127 O.3        1 MOL1        -0.5486
      21    H10     20.378931   13.496487   18.892827 H          1 MOL1         0.3769
      22    C7      14.714322   20.325248   21.125315 C.3        1 MOL1         0.2972
      23    H11     14.032685   21.159545   20.916450 H          1 MOL1         0.0751
      24    O6      16.008351   20.788456   21.556557 O.3        1 MOL1        -0.3740
      25    C8      14.132496   19.447473   22.261166 C.3        1 MOL1         0.1003
      26    H12     13.149749   19.085693   21.931826 H          1 MOL1         0.0783
      27    O7      13.977477   20.222833   23.461101 O.3        1 MOL1        -0.5519
      28    H13     14.710711   20.887415   23.471100 H          1 MOL1         0.3769
      29    C9      15.032972   18.217325   22.524809 C.3        1 MOL1         0.1053
      30    H14     15.985579   18.571816   22.942023 H          1 MOL1         0.0783
      31    O8      14.390913   17.341388   23.458176 O.3        1 MOL1        -0.5519
      32    H15     14.071910   17.927536   24.180367 H          1 MOL1         0.3769
      33    C10     15.332289   17.457883   21.210487 C.3        1 MOL1         0.1018
      34    H16     14.408861   16.963621   20.880988 H          1 MOL1         0.0783
      35    C11     15.838810   18.414349   20.093977 C.3        1 MOL1         0.1043
      36    H17     16.814097   18.812737   20.402790 H          1 MOL1         0.0783
      37    O9      14.897347   19.508126   19.948642 O.3        1 MOL1        -0.3740
      38    C12     16.042186   17.757145   18.705021 C.3        1 MOL1         0.0138
      39    H18     17.045140   17.313239   18.673563 H          1 MOL1         0.0794
      40    H19     16.018307   18.543752   17.939209 H          1 MOL1         0.0794
      41    O10     15.065768   16.754000   18.406427 O.3        1 MOL1        -0.5486
      42    H20     15.424436   15.903534   18.747047 H          1 MOL1         0.3769
      43    C13     18.481128   24.142558   21.292469 C.3        1 MOL1         0.2972
      44    H21     18.863876   25.156796   21.121797 H          1 MOL1         0.0751
      45    O11     19.526162   23.239632   21.701942 O.3        1 MOL1        -0.3740
      46    C14     17.420150   24.167854   22.420678 C.3        1 MOL1         0.1003
      47    H22     16.617859   24.848652   22.107650 H          1 MOL1         0.0783
      48    O12     18.003275   24.648337   23.643036 O.3        1 MOL1        -0.5519
      49    H23     18.945464   24.345647   23.650932 H          1 MOL1         0.3769
      50    C15     16.803822   22.764401   22.630680 C.3        1 MOL1         0.1053
      51    H24     17.583946   22.103011   23.032129 H          1 MOL1         0.0783
      52    O13     15.716035   22.849724   23.558104 O.3        1 MOL1        -0.5519
      53    H25     16.057417   23.393977   24.302510 H          1 MOL1         0.3769
      54    C16     16.307730   22.170949   21.290720 C.3        1 MOL1         0.1018
      55    H26     15.420481   22.734187   20.972699 H          1 MOL1         0.0783
      56    C17     17.398976   22.249481   20.185733 C.3        1 MOL1         0.1043
      57    H27     18.229407   21.594178   20.479373 H          1 MOL1         0.0783
      58    O14     17.875680   23.616125   20.091617 O.3        1 MOL1        -0.3740
      59    C18     16.944017   21.792717   18.776172 C.3        1 MOL1         0.0138
      60    H28     17.062247   20.703979   18.708138 H          1 MOL1         0.0794
      61    H29     17.619579   22.233235   18.030954 H          1 MOL1         0.0794
      62    O15     15.589414   22.146104   18.477810 O.3        1 MOL1        -0.5486
      63    H30     15.029885   21.398746   18.788208 H          1 MOL1         0.3769
      64    C19     23.669730   22.786311   21.458071 C.3        1 MOL1         0.2972
      65    H31     24.740797   22.968202   21.303049 H          1 MOL1         0.0751
      66    O16     23.407608   21.416234   21.817543 O.3        1 MOL1        -0.3740
      67    C20     23.150668   23.677576   22.613661 C.3        1 MOL1         0.1003
      68    H32     23.341144   24.723163   22.338689 H          1 MOL1         0.0783
      69    O17     23.847800   23.370490   23.832170 O.3        1 MOL1        -0.5519
      70    H33     24.057440   22.403603   23.808009 H          1 MOL1         0.3769
      71    C21     21.625416   23.501802   22.804291 C.3        1 MOL1         0.1053
      72    H34     21.439873   22.482007   23.168685 H          1 MOL1         0.0783
      73    O18     21.146651   24.453301   23.761430 O.3        1 MOL1        -0.5519
      74    H35     21.782149   24.403983   24.510164 H          1 MOL1         0.3769
      75    C22     20.875080   23.681209   21.463175 C.3        1 MOL1         0.1018
      76    H36     20.921247   24.741718   21.182508 H          1 MOL1         0.0783
      77    C23     21.498988   22.814903   20.332581 C.3        1 MOL1         0.1043
      78    H37     21.344819   21.758383   20.588043 H          1 MOL1         0.0783
      79    O19     22.921481   23.089015   20.260475 O.3        1 MOL1        -0.3740
      80    C24     20.888210   23.029557   18.924267 C.3        1 MOL1         0.0138
      81    H38     20.005420   22.385375   18.825924 H          1 MOL1         0.0794
      82    H39     21.614178   22.691195   18.173087 H          1 MOL1         0.0794
      83    O20     20.518872   24.388896   18.670026 O.3        1 MOL1        -0.5486
      84    H40     19.589000   24.488555   18.975573 H          1 MOL1         0.3769
      85    C25     25.091458   17.612608   21.455159 C.3        1 MOL1         0.2972
      86    H41     25.786410   16.782186   21.276987 H          1 MOL1         0.0751
      87    O21     23.771180   17.141762   21.787141 O.3        1 MOL1        -0.3740
      88    C26     25.593271   18.467116   22.645607 C.3        1 MOL1         0.1003
      89    H42     26.596073   18.834732   22.391856 H          1 MOL1         0.0783
      90    O22     25.666021   17.667832   23.837627 O.3        1 MOL1        -0.5519
      91    H43     24.934278   17.003697   23.783959 H          1 MOL1         0.3769
      92    C27     24.675961   19.692369   22.871289 C.3        1 MOL1         0.1053
      93    H44     23.697187   19.330265   23.214909 H          1 MOL1         0.0783
      94    O23     25.251778   20.549042   23.863873 O.3        1 MOL1        -0.5519
      95    H45     25.520817   19.948366   24.594420 H          1 MOL1         0.3769
      96    C28     24.467122   20.478122   21.554946 C.3        1 MOL1         0.1018
      97    H46     25.410665   20.978233   21.299602 H          1 MOL1         0.0783
      98    C29     24.039160   19.544501   20.387391 C.3        1 MOL1         0.1043
      99    H47     23.045238   19.140689   20.620451 H          1 MOL1         0.0783
     100    O24     24.989138   18.453202   20.285254 O.3        1 MOL1        -0.3740
     101    C30     23.931229   20.229464   19.001153 C.3        1 MOL1         0.0138
     102    H48     22.932496   20.674588   18.909740 H          1 MOL1         0.0794
     103    H49     24.008213   19.458300   18.223227 H          1 MOL1         0.0794
     104    O25     24.925152   21.237715   18.790449 O.3        1 MOL1        -0.5486
     105    H50     24.543345   22.081444   19.122569 H          1 MOL1         0.3769
     106    C31     21.324699   13.795307   21.286834 C.3        1 MOL1         0.2972
     107    H51     20.955278   12.784942   21.070050 H          1 MOL1         0.0751
     108    O26     20.253378   14.690598   21.641462 O.3        1 MOL1        -0.3740
     109    C32     22.305649   13.746763   22.484560 C.3        1 MOL1         0.1003
     110    H52     23.128021   13.071797   22.213880 H          1 MOL1         0.0783
     111    O27     21.640227   13.242375   23.654118 O.3        1 MOL1        -0.5519
     112    H53     20.699512   13.545483   23.603275 H          1 MOL1         0.3769
     113    C33     22.905128   15.145317   22.764396 C.3        1 MOL1         0.1053
     114    H54     22.098807   15.799099   23.124404 H          1 MOL1         0.0783
     115    O28     23.926664   15.040749   23.762497 O.3        1 MOL1        -0.5519
     116    H55     23.535301   14.481982   24.470669 H          1 MOL1         0.3769
     117    C34     23.491728   15.765057   21.473813 C.3        1 MOL1         0.1018
     118    H56     24.399123   15.207672   21.206342 H          1 MOL1         0.0783
     119    C35     22.479057   15.709351   20.295094 C.3        1 MOL1         0.1043
     120    H57     21.629962   16.359236   20.543991 H          1 MOL1         0.0783
     121    O29     22.010882   14.345187   20.141177 O.3        1 MOL1        -0.3740
     122    C36     23.029502   16.193845   18.929533 C.3        1 MOL1         0.0138
     123    H58     22.915491   17.283806   18.875283 H          1 MOL1         0.0794
     124    H59     22.407049   15.768763   18.131005 H          1 MOL1         0.0794
     125    O30     24.401644   15.845538   18.717972 O.3        1 MOL1        -0.5486
     126    H60     24.938014   16.586172   19.080925 H          1 MOL1         0.3769
@<TRIPOS>BOND
    1     1     2    1
    2     1     3    1
    3     1     4    1
    4     4     5    1
    5     4     6    1
    6     6     7    1
    7     4     8    1
    8     8     9    1
    9     8    10    1
   10    10    11    1
   11     8    12    1
   12    12    13    1
   13    12    14    1
   14    14    15    1
   15     1    16    1
   16    14    16    1
   17    14    17    1
   18    17    18    1
   19    17    19    1
   20    17    20    1
   21    20    21    1
   22    22    23    1
   23    22    24    1
   24    22    25    1
   25    25    26    1
   26    25    27    1
   27    27    28    1
   28    25    29    1
   29    29    30    1
   30    29    31    1
   31    31    32    1
   32     3    33    1
   33    29    33    1
   34    33    34    1
   35    33    35    1
   36    35    36    1
   37    22    37    1
   38    35    37    1
   39    35    38    1
   40    38    39    1
   41    38    40    1
   42    38    41    1
   43    41    42    1
   44    43    44    1
   45    43    45    1
   46    43    46    1
   47    46    47    1
   48    46    48    1
   49    48    49    1
   50    46    50    1
   51    50    51    1
   52    50    52    1
   53    52    53    1
   54    24    54    1
   55    50    54    1
   56    54    55    1
   57    54    56    1
   58    56    57    1
   59    43    58    1
   60    56    58    1
   61    56    59    1
   62    59    60    1
   63    59    61    1
   64    59    62    1
   65    62    63    1
   66    64    65    1
   67    64    66    1
   68    64    67    1
   69    67    68    1
   70    67    69    1
   71    69    70    1
   72    67    71    1
   73    71    72    1
   74    71    73    1
   75    73    74    1
   76    45    75    1
   77    71    75    1
   78    75    76    1
   79    75    77    1
   80    77    78    1
   81    64    79    1
   82    77    79    1
   83    77    80    1
   84    80    81    1
   85    80    82    1
   86    80    83    1
   87    83    84    1
   88    85    86    1
   89    85    87    1
   90    85    88    1
   91    88    89    1
   92    88    90    1
   93    90    91    1
   94    88    92    1
   95    92    93    1
   96    92    94    1
   97    94    95    1
   98    66    96    1
   99    92    96    1
  100    96    97    1
  101    96    98    1
  102    98    99    1
  103    85   100    1
  104    98   100    1
  105    98   101    1
  106   101   102    1
  107   101   103    1
  108   101   104    1
  109   104   105    1
  110   106   107    1
  111    12   108    1
  112   106   108    1
  113   106   109    1
  114   109   110    1
  115   109   111    1
  116   111   112    1
  117   109   113    1
  118   113   114    1
  119   113   115    1
  120   115   116    1
  121    87   117    1
  122   113   117    1
  123   117   118    1
  124   117   119    1
  125   119   120    1
  126   106   121    1
  127   119   121    1
  128   119   122    1
  129   122   123    1
  130   122   124    1
  131   122   125    1
  132   125   126    1
@<TRIPOS>SUBSTRUCTURE
       1 MOL1            1 RESIDUE      1      MOL     
@<SCITEGIC>MOL_PROPERTY
feprocess Rank
SciTegic.value.IntegerValue
1

@<SCITEGIC>MOL_PROPERTY
Conf_Id
SciTegic.value.IntegerValue
1

@<SCITEGIC>MOL_PROPERTY
Probability
SciTegic.value.DoubleValue
100.00

@<SCITEGIC>MOL_PROPERTY
G
SciTegic.value.DoubleValue
537.273

@<SCITEGIC>MOL_PROPERTY
E
SciTegic.value.DoubleValue
380.396

@<SCITEGIC>MOL_PROPERTY
-TS
SciTegic.value.DoubleValue
156.877

@<SCITEGIC>MOL_PROPERTY
U+W
SciTegic.value.DoubleValue
269.510

@<SCITEGIC>MOL_PROPERTY
U
SciTegic.value.DoubleValue
307.487

@<SCITEGIC>MOL_PROPERTY
W
SciTegic.value.DoubleValue
-37.978

@<SCITEGIC>MOL_PROPERTY
W(PB)
SciTegic.value.DoubleValue
-44.059

@<SCITEGIC>MOL_PROPERTY
W(SA)
SciTegic.value.DoubleValue
6.081

@<SCITEGIC>MOL_PROPERTY
Valence
SciTegic.value.DoubleValue
151.753

@<SCITEGIC>MOL_PROPERTY
Coulomb
SciTegic.value.DoubleValue
166.905

@<SCITEGIC>MOL_PROPERTY
VdW
SciTegic.value.DoubleValue
-11.171

@<SCITEGIC>MOL_PROPERTY
VdW6
SciTegic.value.DoubleValue
-142.334

@<SCITEGIC>MOL_PROPERTY
VdW12
SciTegic.value.DoubleValue
131.164

@<SCITEGIC>MOL_PROPERTY
Bond
SciTegic.value.DoubleValue
4.378

@<SCITEGIC>MOL_PROPERTY
Angle
SciTegic.value.DoubleValue
10.089

@<SCITEGIC>MOL_PROPERTY
Pdih
SciTegic.value.DoubleValue
137.286

@<SCITEGIC>MOL_PROPERTY
Idih
SciTegic.value.DoubleValue
0.000

@<SCITEGIC>MOL_PROPERTY
Tether
SciTegic.value.DoubleValue
0.000

