@<TRIPOS>MOLECULE
guest-2_vm2.mol2 : vm2 ligand conformer 1
          23          22           1
SMALL
USER_CHARGES
 
@<TRIPOS>ATOM
       1    N1      19.741410   18.661014   26.427813 N.4        1 MOL1        -0.5940
       2    H1      19.480225   19.197248   27.262275 H          1 MOL1         0.3649
       3    H2      20.732110   18.417556   26.528433 H          1 MOL1         0.3649
       4    H3      19.210780   17.784465   26.459087 H          1 MOL1         0.3649
       5    C1      19.476312   19.437585   25.154019 C.3        1 MOL1         0.0207
       6    H4      20.047647   20.368627   25.201282 H          1 MOL1         0.0950
       7    H5      18.412390   19.688239   25.126801 H          1 MOL1         0.0950
       8    C2      19.857933   18.659606   23.882137 C.3        1 MOL1        -0.1415
       9    H6      20.923283   18.395824   23.921492 H          1 MOL1         0.0976
      10    H7      19.293783   17.718005   23.847183 H          1 MOL1         0.0976
      11    C3      19.572860   19.484655   22.607695 C.3        1 MOL1        -0.1375
      12    H8      20.134958   20.428130   22.648950 H          1 MOL1         0.0976
      13    H9      18.507153   19.751084   22.574758 H          1 MOL1         0.0976
      14    C4      19.952533   18.712502   21.323708 C.3        1 MOL1        -0.1375
      15    H10     21.018108   18.446067   21.356456 H          1 MOL1         0.0976
      16    H11     19.390489   17.769157   21.282260 H          1 MOL1         0.0976
      17    C5      19.667334   19.537942   20.049320 C.3        1 MOL1        -0.1350
      18    H12     20.229392   20.481763   20.084861 H          1 MOL1         0.0976
      19    H13     18.601888   19.804972   20.010715 H          1 MOL1         0.0976
      20    C6      20.047618   18.763696   18.769307 C.3        1 MOL1        -0.2365
      21    H14     19.838006   19.365560   17.875513 H          1 MOL1         0.0987
      22    H15     19.476015   17.829927   18.688217 H          1 MOL1         0.0987
      23    H16     21.116200   18.512064   18.762903 H          1 MOL1         0.0987
@<TRIPOS>BOND
    1     1     2    1
    2     1     3    1
    3     1     4    1
    4     1     5    1
    5     5     6    1
    6     5     7    1
    7     5     8    1
    8     8     9    1
    9     8    10    1
   10     8    11    1
   11    11    12    1
   12    11    13    1
   13    11    14    1
   14    14    15    1
   15    14    16    1
   16    14    17    1
   17    17    18    1
   18    17    19    1
   19    17    20    1
   20    20    21    1
   21    20    22    1
   22    20    23    1
@<TRIPOS>SUBSTRUCTURE
       1 MOL1            1 RESIDUE      1      MOL     
@<SCITEGIC>MOL_PROPERTY
VM2 Rank
SciTegic.value.IntegerValue
1

@<SCITEGIC>MOL_PROPERTY
Conf_Id
SciTegic.value.IntegerValue
803

@<SCITEGIC>MOL_PROPERTY
Probability
SciTegic.value.DoubleValue
11.98

@<SCITEGIC>MOL_PROPERTY
Sum Probability
SciTegic.value.DoubleValue
11.98

@<SCITEGIC>MOL_PROPERTY
Delta G
SciTegic.value.DoubleValue
0.000

@<SCITEGIC>MOL_PROPERTY
G
SciTegic.value.DoubleValue
37.916

@<SCITEGIC>MOL_PROPERTY
E
SciTegic.value.DoubleValue
10.396

@<SCITEGIC>MOL_PROPERTY
-TS
SciTegic.value.DoubleValue
27.520

@<SCITEGIC>MOL_PROPERTY
U+W
SciTegic.value.DoubleValue
-8.383

@<SCITEGIC>MOL_PROPERTY
U
SciTegic.value.DoubleValue
46.604

@<SCITEGIC>MOL_PROPERTY
W
SciTegic.value.DoubleValue
-54.987

@<SCITEGIC>MOL_PROPERTY
W(PB)
SciTegic.value.DoubleValue
-57.163

@<SCITEGIC>MOL_PROPERTY
W(SA)
SciTegic.value.DoubleValue
2.176

@<SCITEGIC>MOL_PROPERTY
Valence
SciTegic.value.DoubleValue
1.727

@<SCITEGIC>MOL_PROPERTY
Coulomb
SciTegic.value.DoubleValue
44.434

@<SCITEGIC>MOL_PROPERTY
VdW
SciTegic.value.DoubleValue
0.443

@<SCITEGIC>MOL_PROPERTY
VdW6
SciTegic.value.DoubleValue
-4.623

@<SCITEGIC>MOL_PROPERTY
VdW12
SciTegic.value.DoubleValue
5.066

@<SCITEGIC>MOL_PROPERTY
Bond
SciTegic.value.DoubleValue
0.112

@<SCITEGIC>MOL_PROPERTY
Angle
SciTegic.value.DoubleValue
0.386

@<SCITEGIC>MOL_PROPERTY
Pdih
SciTegic.value.DoubleValue
1.228

@<SCITEGIC>MOL_PROPERTY
Idih
SciTegic.value.DoubleValue
0.000

@<SCITEGIC>MOL_PROPERTY
Tether
SciTegic.value.DoubleValue
0.000

@<TRIPOS>MOLECULE
guest-2_vm2.mol2 : vm2 ligand conformer 2
          23          22           1
SMALL
USER_CHARGES
 
@<TRIPOS>ATOM
       1    N1      20.449167   19.457351   25.793861 N.4        1 MOL1        -0.5940
       2    H1      20.855689   20.175236   25.186472 H          1 MOL1         0.3649
       3    H2      21.137377   18.701851   25.873028 H          1 MOL1         0.3649
       4    H3      20.353500   19.873282   26.726513 H          1 MOL1         0.3649
       5    C1      19.120387   18.956325   25.262302 C.3        1 MOL1         0.0207
       6    H4      18.428681   19.802274   25.225667 H          1 MOL1         0.0950
       7    H5      18.730162   18.228265   25.978711 H          1 MOL1         0.0950
       8    C2      19.214610   18.302612   23.869951 C.3        1 MOL1        -0.1415
       9    H6      19.914247   17.457037   23.908603 H          1 MOL1         0.0976
      10    H7      18.231609   17.884253   23.615649 H          1 MOL1         0.0976
      11    C3      19.647466   19.299653   22.768915 C.3        1 MOL1        -0.1375
      12    H8      20.646371   19.695747   22.995490 H          1 MOL1         0.0976
      13    H9      18.959093   20.156248   22.759971 H          1 MOL1         0.0976
      14    C4      19.667064   18.639118   21.371696 C.3        1 MOL1        -0.1375
      15    H10     20.353141   17.780790   21.380690 H          1 MOL1         0.0976
      16    H11     18.668519   18.245016   21.137013 H          1 MOL1         0.0976
      17    C5      20.099767   19.632556   20.270485 C.3        1 MOL1        -0.1350
      18    H12     21.099664   20.027560   20.498794 H          1 MOL1         0.0976
      19    H13     19.415135   20.492232   20.256292 H          1 MOL1         0.0976
      20    C6      20.117540   18.969384   18.876790 C.3        1 MOL1        -0.2365
      21    H14     20.819740   18.125929   18.849864 H          1 MOL1         0.0987
      22    H15     20.426968   19.689870   18.108549 H          1 MOL1         0.0987
      23    H16     19.122122   18.594300   18.605342 H          1 MOL1         0.0987
@<TRIPOS>BOND
    1     1     2    1
    2     1     3    1
    3     1     4    1
    4     1     5    1
    5     5     6    1
    6     5     7    1
    7     5     8    1
    8     8     9    1
    9     8    10    1
   10     8    11    1
   11    11    12    1
   12    11    13    1
   13    11    14    1
   14    14    15    1
   15    14    16    1
   16    14    17    1
   17    17    18    1
   18    17    19    1
   19    17    20    1
   20    20    21    1
   21    20    22    1
   22    20    23    1
@<TRIPOS>SUBSTRUCTURE
       1 MOL1            1 RESIDUE      1      MOL     
@<SCITEGIC>MOL_PROPERTY
VM2 Rank
SciTegic.value.IntegerValue
2

@<SCITEGIC>MOL_PROPERTY
Conf_Id
SciTegic.value.IntegerValue
866

@<SCITEGIC>MOL_PROPERTY
Probability
SciTegic.value.DoubleValue
7.31

@<SCITEGIC>MOL_PROPERTY
Sum Probability
SciTegic.value.DoubleValue
19.29

@<SCITEGIC>MOL_PROPERTY
Delta G
SciTegic.value.DoubleValue
0.295

@<SCITEGIC>MOL_PROPERTY
G
SciTegic.value.DoubleValue
38.211

@<SCITEGIC>MOL_PROPERTY
E
SciTegic.value.DoubleValue
10.589

@<SCITEGIC>MOL_PROPERTY
-TS
SciTegic.value.DoubleValue
27.622

@<SCITEGIC>MOL_PROPERTY
U+W
SciTegic.value.DoubleValue
-8.190

@<SCITEGIC>MOL_PROPERTY
U
SciTegic.value.DoubleValue
47.288

@<SCITEGIC>MOL_PROPERTY
W
SciTegic.value.DoubleValue
-55.479

@<SCITEGIC>MOL_PROPERTY
W(PB)
SciTegic.value.DoubleValue
-57.627

@<SCITEGIC>MOL_PROPERTY
W(SA)
SciTegic.value.DoubleValue
2.149

@<SCITEGIC>MOL_PROPERTY
Valence
SciTegic.value.DoubleValue
1.833

@<SCITEGIC>MOL_PROPERTY
Coulomb
SciTegic.value.DoubleValue
44.908

@<SCITEGIC>MOL_PROPERTY
VdW
SciTegic.value.DoubleValue
0.548

@<SCITEGIC>MOL_PROPERTY
VdW6
SciTegic.value.DoubleValue
-5.142

@<SCITEGIC>MOL_PROPERTY
VdW12
SciTegic.value.DoubleValue
5.690

@<SCITEGIC>MOL_PROPERTY
Bond
SciTegic.value.DoubleValue
0.133

@<SCITEGIC>MOL_PROPERTY
Angle
SciTegic.value.DoubleValue
0.431

@<SCITEGIC>MOL_PROPERTY
Pdih
SciTegic.value.DoubleValue
1.269

@<SCITEGIC>MOL_PROPERTY
Idih
SciTegic.value.DoubleValue
0.000

@<SCITEGIC>MOL_PROPERTY
Tether
SciTegic.value.DoubleValue
0.000

@<TRIPOS>MOLECULE
guest-2_vm2.mol2 : vm2 ligand conformer 3
          23          22           1
SMALL
USER_CHARGES
 
@<TRIPOS>ATOM
       1    N1      18.729851   18.742252   25.715502 N.4        1 MOL1        -0.5940
       2    H1      17.983387   18.980530   25.055539 H          1 MOL1         0.3649
       3    H2      18.430198   19.073392   26.638836 H          1 MOL1         0.3649
       4    H3      18.775410   17.719456   25.765434 H          1 MOL1         0.3649
       5    C1      20.058605   19.346552   25.305055 C.3        1 MOL1         0.0207
       6    H4      20.792382   19.086002   26.072697 H          1 MOL1         0.0950
       7    H5      19.948187   20.434272   25.294897 H          1 MOL1         0.0950
       8    C2      20.563229   18.863510   23.931416 C.3        1 MOL1        -0.1415
       9    H6      21.569240   19.272346   23.767781 H          1 MOL1         0.0976
      10    H7      20.667581   17.770367   23.942940 H          1 MOL1         0.0976
      11    C3      19.638987   19.296156   22.768520 C.3        1 MOL1        -0.1375
      12    H8      19.516645   20.388145   22.785356 H          1 MOL1         0.0976
      13    H9      18.639710   18.861277   22.904030 H          1 MOL1         0.0976
      14    C4      20.201168   18.861252   21.396034 C.3        1 MOL1        -0.1375
      15    H10     21.199385   19.297596   21.252323 H          1 MOL1         0.0976
      16    H11     20.326398   17.769669   21.379491 H          1 MOL1         0.0976
      17    C5      19.279541   19.291408   20.233114 C.3        1 MOL1        -0.1350
      18    H12     19.152704   20.383082   20.244341 H          1 MOL1         0.0976
      19    H13     18.280247   18.854907   20.370326 H          1 MOL1         0.0976
      20    C6      19.844618   18.855869   18.864358 C.3        1 MOL1        -0.2365
      21    H14     19.176912   19.169918   18.051597 H          1 MOL1         0.0987
      22    H15     19.950865   17.764534   18.810293 H          1 MOL1         0.0987
      23    H16     20.829994   19.304676   18.683150 H          1 MOL1         0.0987
@<TRIPOS>BOND
    1     1     2    1
    2     1     3    1
    3     1     4    1
    4     1     5    1
    5     5     6    1
    6     5     7    1
    7     5     8    1
    8     8     9    1
    9     8    10    1
   10     8    11    1
   11    11    12    1
   12    11    13    1
   13    11    14    1
   14    14    15    1
   15    14    16    1
   16    14    17    1
   17    17    18    1
   18    17    19    1
   19    17    20    1
   20    20    21    1
   21    20    22    1
   22    20    23    1
@<TRIPOS>SUBSTRUCTURE
       1 MOL1            1 RESIDUE      1      MOL     
@<SCITEGIC>MOL_PROPERTY
VM2 Rank
SciTegic.value.IntegerValue
3

@<SCITEGIC>MOL_PROPERTY
Conf_Id
SciTegic.value.IntegerValue
1091

@<SCITEGIC>MOL_PROPERTY
Probability
SciTegic.value.DoubleValue
7.20

@<SCITEGIC>MOL_PROPERTY
Sum Probability
SciTegic.value.DoubleValue
26.49

@<SCITEGIC>MOL_PROPERTY
Delta G
SciTegic.value.DoubleValue
0.304

@<SCITEGIC>MOL_PROPERTY
G
SciTegic.value.DoubleValue
38.220

@<SCITEGIC>MOL_PROPERTY
E
SciTegic.value.DoubleValue
10.598

@<SCITEGIC>MOL_PROPERTY
-TS
SciTegic.value.DoubleValue
27.622

@<SCITEGIC>MOL_PROPERTY
U+W
SciTegic.value.DoubleValue
-8.181

@<SCITEGIC>MOL_PROPERTY
U
SciTegic.value.DoubleValue
47.288

@<SCITEGIC>MOL_PROPERTY
W
SciTegic.value.DoubleValue
-55.469

@<SCITEGIC>MOL_PROPERTY
W(PB)
SciTegic.value.DoubleValue
-57.602

@<SCITEGIC>MOL_PROPERTY
W(SA)
SciTegic.value.DoubleValue
2.133

@<SCITEGIC>MOL_PROPERTY
Valence
SciTegic.value.DoubleValue
1.833

@<SCITEGIC>MOL_PROPERTY
Coulomb
SciTegic.value.DoubleValue
44.908

@<SCITEGIC>MOL_PROPERTY
VdW
SciTegic.value.DoubleValue
0.548

@<SCITEGIC>MOL_PROPERTY
VdW6
SciTegic.value.DoubleValue
-5.142

@<SCITEGIC>MOL_PROPERTY
VdW12
SciTegic.value.DoubleValue
5.690

@<SCITEGIC>MOL_PROPERTY
Bond
SciTegic.value.DoubleValue
0.133

@<SCITEGIC>MOL_PROPERTY
Angle
SciTegic.value.DoubleValue
0.431

@<SCITEGIC>MOL_PROPERTY
Pdih
SciTegic.value.DoubleValue
1.269

@<SCITEGIC>MOL_PROPERTY
Idih
SciTegic.value.DoubleValue
0.000

@<SCITEGIC>MOL_PROPERTY
Tether
SciTegic.value.DoubleValue
0.000

@<TRIPOS>MOLECULE
guest-2_vm2.mol2 : vm2 ligand conformer 4
          23          22           1
SMALL
USER_CHARGES
 
@<TRIPOS>ATOM
       1    N1      19.509701   18.259924   26.054894 N.4        1 MOL1        -0.5940
       2    H1      19.546030   19.064972   26.688479 H          1 MOL1         0.3649
       3    H2      20.406772   17.770733   26.137322 H          1 MOL1         0.3649
       4    H3      18.790113   17.626368   26.419359 H          1 MOL1         0.3649
       5    C1      19.221980   18.676805   24.626889 C.3        1 MOL1         0.0207
       6    H4      18.243257   19.163800   24.608065 H          1 MOL1         0.0950
       7    H5      19.167480   17.770846   24.017822 H          1 MOL1         0.0950
       8    C2      20.286037   19.629887   24.050457 C.3        1 MOL1        -0.1415
       9    H6      20.362167   20.514969   24.696042 H          1 MOL1         0.0976
      10    H7      21.269193   19.141001   24.070227 H          1 MOL1         0.0976
      11    C3      19.961490   20.086831   22.608617 C.3        1 MOL1        -0.1375
      12    H8      20.707672   20.831649   22.298926 H          1 MOL1         0.0976
      13    H9      18.988909   20.598292   22.596576 H          1 MOL1         0.0976
      14    C4      19.951874   18.922209   21.589293 C.3        1 MOL1        -0.1375
      15    H10     20.913825   18.392505   21.627777 H          1 MOL1         0.0976
      16    H11     19.176097   18.193237   21.859159 H          1 MOL1         0.0976
      17    C5      19.697881   19.421899   20.149652 C.3        1 MOL1        -0.1350
      18    H12     20.473949   20.146414   19.865476 H          1 MOL1         0.0976
      19    H13     18.736870   19.953397   20.105558 H          1 MOL1         0.0976
      20    C6      19.687037   18.259445   19.134197 C.3        1 MOL1        -0.2365
      21    H14     20.648152   17.728902   19.131199 H          1 MOL1         0.0987
      22    H15     19.505895   18.633865   18.118302 H          1 MOL1         0.0987
      23    H16     18.897276   17.534860   19.371839 H          1 MOL1         0.0987
@<TRIPOS>BOND
    1     1     2    1
    2     1     3    1
    3     1     4    1
    4     1     5    1
    5     5     6    1
    6     5     7    1
    7     5     8    1
    8     8     9    1
    9     8    10    1
   10     8    11    1
   11    11    12    1
   12    11    13    1
   13    11    14    1
   14    14    15    1
   15    14    16    1
   16    14    17    1
   17    17    18    1
   18    17    19    1
   19    17    20    1
   20    20    21    1
   21    20    22    1
   22    20    23    1
@<TRIPOS>SUBSTRUCTURE
       1 MOL1            1 RESIDUE      1      MOL     
@<SCITEGIC>MOL_PROPERTY
VM2 Rank
SciTegic.value.IntegerValue
4

@<SCITEGIC>MOL_PROPERTY
Conf_Id
SciTegic.value.IntegerValue
714

@<SCITEGIC>MOL_PROPERTY
Probability
SciTegic.value.DoubleValue
5.52

@<SCITEGIC>MOL_PROPERTY
Sum Probability
SciTegic.value.DoubleValue
32.01

@<SCITEGIC>MOL_PROPERTY
Delta G
SciTegic.value.DoubleValue
0.462

@<SCITEGIC>MOL_PROPERTY
G
SciTegic.value.DoubleValue
38.379

@<SCITEGIC>MOL_PROPERTY
E
SciTegic.value.DoubleValue
10.761

@<SCITEGIC>MOL_PROPERTY
-TS
SciTegic.value.DoubleValue
27.618

@<SCITEGIC>MOL_PROPERTY
U+W
SciTegic.value.DoubleValue
-8.019

@<SCITEGIC>MOL_PROPERTY
U
SciTegic.value.DoubleValue
47.375

@<SCITEGIC>MOL_PROPERTY
W
SciTegic.value.DoubleValue
-55.393

@<SCITEGIC>MOL_PROPERTY
W(PB)
SciTegic.value.DoubleValue
-57.545

@<SCITEGIC>MOL_PROPERTY
W(SA)
SciTegic.value.DoubleValue
2.152

@<SCITEGIC>MOL_PROPERTY
Valence
SciTegic.value.DoubleValue
2.032

@<SCITEGIC>MOL_PROPERTY
Coulomb
SciTegic.value.DoubleValue
44.843

@<SCITEGIC>MOL_PROPERTY
VdW
SciTegic.value.DoubleValue
0.499

@<SCITEGIC>MOL_PROPERTY
VdW6
SciTegic.value.DoubleValue
-5.218

@<SCITEGIC>MOL_PROPERTY
VdW12
SciTegic.value.DoubleValue
5.718

@<SCITEGIC>MOL_PROPERTY
Bond
SciTegic.value.DoubleValue
0.135

@<SCITEGIC>MOL_PROPERTY
Angle
SciTegic.value.DoubleValue
0.514

@<SCITEGIC>MOL_PROPERTY
Pdih
SciTegic.value.DoubleValue
1.383

@<SCITEGIC>MOL_PROPERTY
Idih
SciTegic.value.DoubleValue
0.000

@<SCITEGIC>MOL_PROPERTY
Tether
SciTegic.value.DoubleValue
0.000

@<TRIPOS>MOLECULE
guest-2_vm2.mol2 : vm2 ligand conformer 5
          23          22           1
SMALL
USER_CHARGES
 
@<TRIPOS>ATOM
       1    N1      20.216853   18.554011   26.087100 N.4        1 MOL1        -0.5940
       2    H1      19.926952   17.571162   26.115440 H          1 MOL1         0.3649
       3    H2      19.572352   19.075889   26.689690 H          1 MOL1         0.3649
       4    H3      21.142276   18.604596   26.526493 H          1 MOL1         0.3649
       5    C1      20.234463   19.097909   24.673012 C.3        1 MOL1         0.0207
       6    H4      20.961256   18.516893   24.099526 H          1 MOL1         0.0950
       7    H5      20.578321   20.134954   24.714455 H          1 MOL1         0.0950
       8    C2      18.857455   19.035781   23.985375 C.3        1 MOL1        -0.1415
       9    H6      18.511721   17.994242   23.944646 H          1 MOL1         0.0976
      10    H7      18.127434   19.585631   24.594213 H          1 MOL1         0.0976
      11    C3      18.873657   19.634381   22.559033 C.3        1 MOL1        -0.1375
      12    H8      19.195311   20.684138   22.605923 H          1 MOL1         0.0976
      13    H9      17.846570   19.641652   22.168536 H          1 MOL1         0.0976
      14    C4      19.783900   18.852316   21.581642 C.3        1 MOL1        -0.1375
      15    H10     20.823629   18.878388   21.934260 H          1 MOL1         0.0976
      16    H11     19.480520   17.796376   21.562436 H          1 MOL1         0.0976
      17    C5      19.720196   19.431173   20.150686 C.3        1 MOL1        -0.1350
      18    H12     20.022059   20.487902   20.164185 H          1 MOL1         0.0976
      19    H13     18.684529   19.402195   19.783923 H          1 MOL1         0.0976
      20    C6      20.629477   18.651428   19.177152 C.3        1 MOL1        -0.2365
      21    H14     20.570417   19.076656   18.166836 H          1 MOL1         0.0987
      22    H15     20.330516   17.596823   19.116685 H          1 MOL1         0.0987
      23    H16     21.678418   18.691551   19.498605 H          1 MOL1         0.0987
@<TRIPOS>BOND
    1     1     2    1
    2     1     3    1
    3     1     4    1
    4     1     5    1
    5     5     6    1
    6     5     7    1
    7     5     8    1
    8     8     9    1
    9     8    10    1
   10     8    11    1
   11    11    12    1
   12    11    13    1
   13    11    14    1
   14    14    15    1
   15    14    16    1
   16    14    17    1
   17    17    18    1
   18    17    19    1
   19    17    20    1
   20    20    21    1
   21    20    22    1
   22    20    23    1
@<TRIPOS>SUBSTRUCTURE
       1 MOL1            1 RESIDUE      1      MOL     
@<SCITEGIC>MOL_PROPERTY
VM2 Rank
SciTegic.value.IntegerValue
5

@<SCITEGIC>MOL_PROPERTY
Conf_Id
SciTegic.value.IntegerValue
1052

@<SCITEGIC>MOL_PROPERTY
Probability
SciTegic.value.DoubleValue
4.94

@<SCITEGIC>MOL_PROPERTY
Sum Probability
SciTegic.value.DoubleValue
36.94

@<SCITEGIC>MOL_PROPERTY
Delta G
SciTegic.value.DoubleValue
0.529

@<SCITEGIC>MOL_PROPERTY
G
SciTegic.value.DoubleValue
38.445

@<SCITEGIC>MOL_PROPERTY
E
SciTegic.value.DoubleValue
10.827

@<SCITEGIC>MOL_PROPERTY
-TS
SciTegic.value.DoubleValue
27.618

@<SCITEGIC>MOL_PROPERTY
U+W
SciTegic.value.DoubleValue
-7.952

@<SCITEGIC>MOL_PROPERTY
U
SciTegic.value.DoubleValue
47.375

@<SCITEGIC>MOL_PROPERTY
W
SciTegic.value.DoubleValue
-55.327

@<SCITEGIC>MOL_PROPERTY
W(PB)
SciTegic.value.DoubleValue
-57.491

@<SCITEGIC>MOL_PROPERTY
W(SA)
SciTegic.value.DoubleValue
2.164

@<SCITEGIC>MOL_PROPERTY
Valence
SciTegic.value.DoubleValue
2.032

@<SCITEGIC>MOL_PROPERTY
Coulomb
SciTegic.value.DoubleValue
44.843

@<SCITEGIC>MOL_PROPERTY
VdW
SciTegic.value.DoubleValue
0.499

@<SCITEGIC>MOL_PROPERTY
VdW6
SciTegic.value.DoubleValue
-5.218

@<SCITEGIC>MOL_PROPERTY
VdW12
SciTegic.value.DoubleValue
5.718

@<SCITEGIC>MOL_PROPERTY
Bond
SciTegic.value.DoubleValue
0.135

@<SCITEGIC>MOL_PROPERTY
Angle
SciTegic.value.DoubleValue
0.514

@<SCITEGIC>MOL_PROPERTY
Pdih
SciTegic.value.DoubleValue
1.383

@<SCITEGIC>MOL_PROPERTY
Idih
SciTegic.value.DoubleValue
0.000

@<SCITEGIC>MOL_PROPERTY
Tether
SciTegic.value.DoubleValue
0.000

@<TRIPOS>MOLECULE
guest-2_vm2.mol2 : vm2 ligand conformer 6
          23          22           1
SMALL
USER_CHARGES
 
@<TRIPOS>ATOM
       1    N1      19.547411   18.752242   26.321685 N.4        1 MOL1        -0.5940
       2    H1      19.731728   17.745689   26.382921 H          1 MOL1         0.3649
       3    H2      18.841224   18.969609   27.033114 H          1 MOL1         0.3649
       4    H3      20.408444   19.233963   26.599965 H          1 MOL1         0.3649
       5    C1      19.093634   19.160837   24.934954 C.3        1 MOL1         0.0207
       6    H4      18.887730   20.234556   24.949940 H          1 MOL1         0.0950
       7    H5      18.160241   18.634896   24.716657 H          1 MOL1         0.0950
       8    C2      20.132218   18.847782   23.843198 C.3        1 MOL1        -0.1415
       9    H6      21.072830   19.364711   24.075772 H          1 MOL1         0.0976
      10    H7      20.347765   17.770918   23.842294 H          1 MOL1         0.0976
      11    C3      19.632159   19.279003   22.446650 C.3        1 MOL1        -0.1375
      12    H8      19.415924   20.356381   22.451816 H          1 MOL1         0.0976
      13    H9      18.686471   18.764781   22.229874 H          1 MOL1         0.0976
      14    C4      20.669430   18.964523   21.341785 C.3        1 MOL1        -0.1375
      15    H10     21.629774   19.426874   21.608950 H          1 MOL1         0.0976
      16    H11     20.849374   17.881398   21.299442 H          1 MOL1         0.0976
      17    C5      20.252346   19.473961   19.940859 C.3        1 MOL1        -0.1350
      18    H12     21.084526   19.306584   19.242779 H          1 MOL1         0.0976
      19    H13     20.092339   20.560778   19.972902 H          1 MOL1         0.0976
      20    C6      18.988801   18.778652   19.384870 C.3        1 MOL1        -0.2365
      21    H14     19.112377   17.687999   19.369973 H          1 MOL1         0.0987
      22    H15     18.790391   19.107775   18.356639 H          1 MOL1         0.0987
      23    H16     18.100951   19.016396   19.983717 H          1 MOL1         0.0987
@<TRIPOS>BOND
    1     1     2    1
    2     1     3    1
    3     1     4    1
    4     1     5    1
    5     5     6    1
    6     5     7    1
    7     5     8    1
    8     8     9    1
    9     8    10    1
   10     8    11    1
   11    11    12    1
   12    11    13    1
   13    11    14    1
   14    14    15    1
   15    14    16    1
   16    14    17    1
   17    17    18    1
   18    17    19    1
   19    17    20    1
   20    20    21    1
   21    20    22    1
   22    20    23    1
@<TRIPOS>SUBSTRUCTURE
       1 MOL1            1 RESIDUE      1      MOL     
@<SCITEGIC>MOL_PROPERTY
VM2 Rank
SciTegic.value.IntegerValue
6

@<SCITEGIC>MOL_PROPERTY
Conf_Id
SciTegic.value.IntegerValue
948

@<SCITEGIC>MOL_PROPERTY
Probability
SciTegic.value.DoubleValue
4.33

@<SCITEGIC>MOL_PROPERTY
Sum Probability
SciTegic.value.DoubleValue
41.27

@<SCITEGIC>MOL_PROPERTY
Delta G
SciTegic.value.DoubleValue
0.607

@<SCITEGIC>MOL_PROPERTY
G
SciTegic.value.DoubleValue
38.523

@<SCITEGIC>MOL_PROPERTY
E
SciTegic.value.DoubleValue
10.893

@<SCITEGIC>MOL_PROPERTY
-TS
SciTegic.value.DoubleValue
27.630

@<SCITEGIC>MOL_PROPERTY
U+W
SciTegic.value.DoubleValue
-7.886

@<SCITEGIC>MOL_PROPERTY
U
SciTegic.value.DoubleValue
47.264

@<SCITEGIC>MOL_PROPERTY
W
SciTegic.value.DoubleValue
-55.150

@<SCITEGIC>MOL_PROPERTY
W(PB)
SciTegic.value.DoubleValue
-57.314

@<SCITEGIC>MOL_PROPERTY
W(SA)
SciTegic.value.DoubleValue
2.164

@<SCITEGIC>MOL_PROPERTY
Valence
SciTegic.value.DoubleValue
2.234

@<SCITEGIC>MOL_PROPERTY
Coulomb
SciTegic.value.DoubleValue
44.451

@<SCITEGIC>MOL_PROPERTY
VdW
SciTegic.value.DoubleValue
0.580

@<SCITEGIC>MOL_PROPERTY
VdW6
SciTegic.value.DoubleValue
-5.234

@<SCITEGIC>MOL_PROPERTY
VdW12
SciTegic.value.DoubleValue
5.814

@<SCITEGIC>MOL_PROPERTY
Bond
SciTegic.value.DoubleValue
0.148

@<SCITEGIC>MOL_PROPERTY
Angle
SciTegic.value.DoubleValue
0.630

@<SCITEGIC>MOL_PROPERTY
Pdih
SciTegic.value.DoubleValue
1.456

@<SCITEGIC>MOL_PROPERTY
Idih
SciTegic.value.DoubleValue
0.000

@<SCITEGIC>MOL_PROPERTY
Tether
SciTegic.value.DoubleValue
0.000

@<TRIPOS>MOLECULE
guest-2_vm2.mol2 : vm2 ligand conformer 7
          23          22           1
SMALL
USER_CHARGES
 
@<TRIPOS>ATOM
       1    N1      19.821224   18.866103   26.334139 N.4        1 MOL1        -0.5940
       2    H1      20.108003   19.496427   27.090794 H          1 MOL1         0.3649
       3    H2      20.399629   18.023454   26.413274 H          1 MOL1         0.3649
       4    H3      18.854168   18.587482   26.529192 H          1 MOL1         0.3649
       5    C1      19.957990   19.520372   24.974318 C.3        1 MOL1         0.0207
       6    H4      21.002495   19.817118   24.846094 H          1 MOL1         0.0950
       7    H5      19.341255   20.423210   24.970621 H          1 MOL1         0.0950
       8    C2      19.535132   18.599475   23.815988 C.3        1 MOL1        -0.1415
       9    H6      20.146194   17.687111   23.833116 H          1 MOL1         0.0976
      10    H7      18.490814   18.290846   23.958127 H          1 MOL1         0.0976
      11    C3      19.689244   19.302757   22.449241 C.3        1 MOL1        -0.1375
      12    H8      20.733973   19.616437   22.323195 H          1 MOL1         0.0976
      13    H9      19.077923   20.215800   22.436366 H          1 MOL1         0.0976
      14    C4      19.269451   18.382177   21.277976 C.3        1 MOL1        -0.1375
      15    H10     19.913215   17.491979   21.256807 H          1 MOL1         0.0976
      16    H11     18.247249   18.019886   21.454764 H          1 MOL1         0.0976
      17    C5      19.310297   19.082047   19.897907 C.3        1 MOL1        -0.1350
      18    H12     18.650649   19.961013   19.907115 H          1 MOL1         0.0976
      19    H13     18.898871   18.397290   19.143128 H          1 MOL1         0.0976
      20    C6      20.732662   19.504069   19.464431 C.3        1 MOL1        -0.2365
      21    H14     21.140975   20.281194   20.122289 H          1 MOL1         0.0987
      22    H15     20.718775   19.909749   18.444542 H          1 MOL1         0.0987
      23    H16     21.419309   18.647673   19.475418 H          1 MOL1         0.0987
@<TRIPOS>BOND
    1     1     2    1
    2     1     3    1
    3     1     4    1
    4     1     5    1
    5     5     6    1
    6     5     7    1
    7     5     8    1
    8     8     9    1
    9     8    10    1
   10     8    11    1
   11    11    12    1
   12    11    13    1
   13    11    14    1
   14    14    15    1
   15    14    16    1
   16    14    17    1
   17    17    18    1
   18    17    19    1
   19    17    20    1
   20    20    21    1
   21    20    22    1
   22    20    23    1
@<TRIPOS>SUBSTRUCTURE
       1 MOL1            1 RESIDUE      1      MOL     
@<SCITEGIC>MOL_PROPERTY
VM2 Rank
SciTegic.value.IntegerValue
7

@<SCITEGIC>MOL_PROPERTY
Conf_Id
SciTegic.value.IntegerValue
1122

@<SCITEGIC>MOL_PROPERTY
Probability
SciTegic.value.DoubleValue
4.08

@<SCITEGIC>MOL_PROPERTY
Sum Probability
SciTegic.value.DoubleValue
45.35

@<SCITEGIC>MOL_PROPERTY
Delta G
SciTegic.value.DoubleValue
0.642

@<SCITEGIC>MOL_PROPERTY
G
SciTegic.value.DoubleValue
38.559

@<SCITEGIC>MOL_PROPERTY
E
SciTegic.value.DoubleValue
10.928

@<SCITEGIC>MOL_PROPERTY
-TS
SciTegic.value.DoubleValue
27.630

@<SCITEGIC>MOL_PROPERTY
U+W
SciTegic.value.DoubleValue
-7.851

@<SCITEGIC>MOL_PROPERTY
U
SciTegic.value.DoubleValue
47.264

@<SCITEGIC>MOL_PROPERTY
W
SciTegic.value.DoubleValue
-55.115

@<SCITEGIC>MOL_PROPERTY
W(PB)
SciTegic.value.DoubleValue
-57.280

@<SCITEGIC>MOL_PROPERTY
W(SA)
SciTegic.value.DoubleValue
2.165

@<SCITEGIC>MOL_PROPERTY
Valence
SciTegic.value.DoubleValue
2.234

@<SCITEGIC>MOL_PROPERTY
Coulomb
SciTegic.value.DoubleValue
44.451

@<SCITEGIC>MOL_PROPERTY
VdW
SciTegic.value.DoubleValue
0.580

@<SCITEGIC>MOL_PROPERTY
VdW6
SciTegic.value.DoubleValue
-5.234

@<SCITEGIC>MOL_PROPERTY
VdW12
SciTegic.value.DoubleValue
5.814

@<SCITEGIC>MOL_PROPERTY
Bond
SciTegic.value.DoubleValue
0.148

@<SCITEGIC>MOL_PROPERTY
Angle
SciTegic.value.DoubleValue
0.630

@<SCITEGIC>MOL_PROPERTY
Pdih
SciTegic.value.DoubleValue
1.456

@<SCITEGIC>MOL_PROPERTY
Idih
SciTegic.value.DoubleValue
0.000

@<SCITEGIC>MOL_PROPERTY
Tether
SciTegic.value.DoubleValue
0.000

@<TRIPOS>MOLECULE
guest-2_vm2.mol2 : vm2 ligand conformer 8
          23          22           1
SMALL
USER_CHARGES
 
@<TRIPOS>ATOM
       1    N1      19.399229   18.211767   26.066624 N.4        1 MOL1        -0.5940
       2    H1      20.261431   17.661943   26.138485 H          1 MOL1         0.3649
       3    H2      18.647629   17.562519   25.812848 H          1 MOL1         0.3649
       4    H3      19.187834   18.558625   27.008474 H          1 MOL1         0.3649
       5    C1      19.531427   19.342854   25.067050 C.3        1 MOL1         0.0207
       6    H4      20.326025   20.008781   25.414375 H          1 MOL1         0.0950
       7    H5      18.591695   19.901766   25.063524 H          1 MOL1         0.0950
       8    C2      19.849619   18.855751   23.642236 C.3        1 MOL1        -0.1415
       9    H6      20.785679   18.281679   23.653783 H          1 MOL1         0.0976
      10    H7      19.055427   18.174291   23.312451 H          1 MOL1         0.0976
      11    C3      19.977905   20.041699   22.657326 C.3        1 MOL1        -0.1375
      12    H8      20.719515   20.751776   23.049169 H          1 MOL1         0.0976
      13    H9      19.025290   20.587320   22.608171 H          1 MOL1         0.0976
      14    C4      20.408518   19.619642   21.230849 C.3        1 MOL1        -0.1375
      15    H10     20.587307   20.527686   20.638468 H          1 MOL1         0.0976
      16    H11     21.369453   19.088872   21.277884 H          1 MOL1         0.0976
      17    C5      19.363160   18.742345   20.501957 C.3        1 MOL1        -0.1350
      18    H12     18.388595   19.250263   20.500228 H          1 MOL1         0.0976
      19    H13     19.226522   17.792395   21.035474 H          1 MOL1         0.0976
      20    C6      19.786142   18.442942   19.047959 C.3        1 MOL1        -0.2365
      21    H14     19.035749   17.817771   18.546849 H          1 MOL1         0.0987
      22    H15     20.744474   17.908213   19.018047 H          1 MOL1         0.0987
      23    H16     19.893310   19.369349   18.468732 H          1 MOL1         0.0987
@<TRIPOS>BOND
    1     1     2    1
    2     1     3    1
    3     1     4    1
    4     1     5    1
    5     5     6    1
    6     5     7    1
    7     5     8    1
    8     8     9    1
    9     8    10    1
   10     8    11    1
   11    11    12    1
   12    11    13    1
   13    11    14    1
   14    14    15    1
   15    14    16    1
   16    14    17    1
   17    17    18    1
   18    17    19    1
   19    17    20    1
   20    20    21    1
   21    20    22    1
   22    20    23    1
@<TRIPOS>SUBSTRUCTURE
       1 MOL1            1 RESIDUE      1      MOL     
@<SCITEGIC>MOL_PROPERTY
VM2 Rank
SciTegic.value.IntegerValue
8

@<SCITEGIC>MOL_PROPERTY
Conf_Id
SciTegic.value.IntegerValue
872

@<SCITEGIC>MOL_PROPERTY
Probability
SciTegic.value.DoubleValue
3.53

@<SCITEGIC>MOL_PROPERTY
Sum Probability
SciTegic.value.DoubleValue
48.88

@<SCITEGIC>MOL_PROPERTY
Delta G
SciTegic.value.DoubleValue
0.728

@<SCITEGIC>MOL_PROPERTY
G
SciTegic.value.DoubleValue
38.644

@<SCITEGIC>MOL_PROPERTY
E
SciTegic.value.DoubleValue
11.025

@<SCITEGIC>MOL_PROPERTY
-TS
SciTegic.value.DoubleValue
27.619

@<SCITEGIC>MOL_PROPERTY
U+W
SciTegic.value.DoubleValue
-7.754

@<SCITEGIC>MOL_PROPERTY
U
SciTegic.value.DoubleValue
47.562

@<SCITEGIC>MOL_PROPERTY
W
SciTegic.value.DoubleValue
-55.316

@<SCITEGIC>MOL_PROPERTY
W(PB)
SciTegic.value.DoubleValue
-57.472

@<SCITEGIC>MOL_PROPERTY
W(SA)
SciTegic.value.DoubleValue
2.156

@<SCITEGIC>MOL_PROPERTY
Valence
SciTegic.value.DoubleValue
2.273

@<SCITEGIC>MOL_PROPERTY
Coulomb
SciTegic.value.DoubleValue
44.723

@<SCITEGIC>MOL_PROPERTY
VdW
SciTegic.value.DoubleValue
0.566

@<SCITEGIC>MOL_PROPERTY
VdW6
SciTegic.value.DoubleValue
-5.266

@<SCITEGIC>MOL_PROPERTY
VdW12
SciTegic.value.DoubleValue
5.832

@<SCITEGIC>MOL_PROPERTY
Bond
SciTegic.value.DoubleValue
0.151

@<SCITEGIC>MOL_PROPERTY
Angle
SciTegic.value.DoubleValue
0.657

@<SCITEGIC>MOL_PROPERTY
Pdih
SciTegic.value.DoubleValue
1.466

@<SCITEGIC>MOL_PROPERTY
Idih
SciTegic.value.DoubleValue
0.000

@<SCITEGIC>MOL_PROPERTY
Tether
SciTegic.value.DoubleValue
0.000

@<TRIPOS>MOLECULE
guest-2_vm2.mol2 : vm2 ligand conformer 9
          23          22           1
SMALL
USER_CHARGES
 
@<TRIPOS>ATOM
       1    N1      20.327519   18.597898   26.108970 N.4        1 MOL1        -0.5940
       2    H1      20.106098   17.597230   26.131306 H          1 MOL1         0.3649
       3    H2      20.157130   18.961754   27.052716 H          1 MOL1         0.3649
       4    H3      21.334460   18.680307   25.935461 H          1 MOL1         0.3649
       5    C1      19.511494   19.334541   25.066162 C.3        1 MOL1         0.0207
       6    H4      19.775590   20.394304   25.117628 H          1 MOL1         0.0950
       7    H5      18.455300   19.230429   25.329024 H          1 MOL1         0.0950
       8    C2      19.743705   18.811747   23.637395 C.3        1 MOL1        -0.1415
       9    H6      20.809231   18.904133   23.392421 H          1 MOL1         0.0976
      10    H7      19.492388   17.743609   23.594735 H          1 MOL1         0.0976
      11    C3      18.890307   19.589276   22.607766 C.3        1 MOL1        -0.1375
      12    H8      19.176431   20.650254   22.615027 H          1 MOL1         0.0976
      13    H9      17.836629   19.552454   22.917835 H          1 MOL1         0.0976
      14    C4      18.997457   19.032639   21.166561 C.3        1 MOL1        -0.1375
      15    H10     18.695107   17.976325   21.156069 H          1 MOL1         0.0976
      16    H11     18.274959   19.565728   20.533128 H          1 MOL1         0.0976
      17    C5      20.408860   19.177388   20.549562 C.3        1 MOL1        -0.1350
      18    H12     21.136015   18.586831   21.122453 H          1 MOL1         0.0976
      19    H13     20.733417   20.225783   20.606950 H          1 MOL1         0.0976
      20    C6      20.436659   18.713510   19.077586 C.3        1 MOL1        -0.2365
      21    H14     19.750325   19.309735   18.462215 H          1 MOL1         0.0987
      22    H15     20.145031   17.658687   18.990799 H          1 MOL1         0.0987
      23    H16     21.444829   18.820036   18.656537 H          1 MOL1         0.0987
@<TRIPOS>BOND
    1     1     2    1
    2     1     3    1
    3     1     4    1
    4     1     5    1
    5     5     6    1
    6     5     7    1
    7     5     8    1
    8     8     9    1
    9     8    10    1
   10     8    11    1
   11    11    12    1
   12    11    13    1
   13    11    14    1
   14    14    15    1
   15    14    16    1
   16    14    17    1
   17    17    18    1
   18    17    19    1
   19    17    20    1
   20    20    21    1
   21    20    22    1
   22    20    23    1
@<TRIPOS>SUBSTRUCTURE
       1 MOL1            1 RESIDUE      1      MOL     
@<SCITEGIC>MOL_PROPERTY
VM2 Rank
SciTegic.value.IntegerValue
9

@<SCITEGIC>MOL_PROPERTY
Conf_Id
SciTegic.value.IntegerValue
1102

@<SCITEGIC>MOL_PROPERTY
Probability
SciTegic.value.DoubleValue
3.48

@<SCITEGIC>MOL_PROPERTY
Sum Probability
SciTegic.value.DoubleValue
52.36

@<SCITEGIC>MOL_PROPERTY
Delta G
SciTegic.value.DoubleValue
0.737

@<SCITEGIC>MOL_PROPERTY
G
SciTegic.value.DoubleValue
38.654

@<SCITEGIC>MOL_PROPERTY
E
SciTegic.value.DoubleValue
11.034

@<SCITEGIC>MOL_PROPERTY
-TS
SciTegic.value.DoubleValue
27.619

@<SCITEGIC>MOL_PROPERTY
U+W
SciTegic.value.DoubleValue
-7.745

@<SCITEGIC>MOL_PROPERTY
U
SciTegic.value.DoubleValue
47.562

@<SCITEGIC>MOL_PROPERTY
W
SciTegic.value.DoubleValue
-55.306

@<SCITEGIC>MOL_PROPERTY
W(PB)
SciTegic.value.DoubleValue
-57.451

@<SCITEGIC>MOL_PROPERTY
W(SA)
SciTegic.value.DoubleValue
2.144

@<SCITEGIC>MOL_PROPERTY
Valence
SciTegic.value.DoubleValue
2.273

@<SCITEGIC>MOL_PROPERTY
Coulomb
SciTegic.value.DoubleValue
44.723

@<SCITEGIC>MOL_PROPERTY
VdW
SciTegic.value.DoubleValue
0.566

@<SCITEGIC>MOL_PROPERTY
VdW6
SciTegic.value.DoubleValue
-5.266

@<SCITEGIC>MOL_PROPERTY
VdW12
SciTegic.value.DoubleValue
5.832

@<SCITEGIC>MOL_PROPERTY
Bond
SciTegic.value.DoubleValue
0.151

@<SCITEGIC>MOL_PROPERTY
Angle
SciTegic.value.DoubleValue
0.657

@<SCITEGIC>MOL_PROPERTY
Pdih
SciTegic.value.DoubleValue
1.466

@<SCITEGIC>MOL_PROPERTY
Idih
SciTegic.value.DoubleValue
0.000

@<SCITEGIC>MOL_PROPERTY
Tether
SciTegic.value.DoubleValue
0.000

@<TRIPOS>MOLECULE
guest-2_vm2.mol2 : vm2 ligand conformer 10
          23          22           1
SMALL
USER_CHARGES
 
@<TRIPOS>ATOM
       1    N1      19.890455   19.972575   25.596750 N.4        1 MOL1        -0.5940
       2    H1      18.905219   20.170951   25.798312 H          1 MOL1         0.3649
       3    H2      20.201510   20.657745   24.901542 H          1 MOL1         0.3649
       4    H3      20.415234   20.160037   26.457819 H          1 MOL1         0.3649
       5    C1      20.091625   18.549374   25.113811 C.3        1 MOL1         0.0207
       6    H4      19.777517   17.878825   25.918352 H          1 MOL1         0.0950
       7    H5      21.160562   18.397217   24.941632 H          1 MOL1         0.0950
       8    C2      19.306403   18.211506   23.831578 C.3        1 MOL1        -0.1415
       9    H6      19.434258   17.141993   23.617607 H          1 MOL1         0.0976
      10    H7      18.233900   18.369908   24.006489 H          1 MOL1         0.0976
      11    C3      19.773038   19.037339   22.609247 C.3        1 MOL1        -0.1375
      12    H8      20.853266   18.895702   22.472488 H          1 MOL1         0.0976
      13    H9      19.611198   20.106993   22.797419 H          1 MOL1         0.0976
      14    C4      19.020731   18.627349   21.320329 C.3        1 MOL1        -0.1375
      15    H10     19.223479   17.571818   21.092165 H          1 MOL1         0.0976
      16    H11     17.938843   18.702832   21.497044 H          1 MOL1         0.0976
      17    C5      19.379711   19.499030   20.092555 C.3        1 MOL1        -0.1350
      18    H12     19.156206   20.553468   20.306989 H          1 MOL1         0.0976
      19    H13     18.729703   19.211781   19.254209 H          1 MOL1         0.0976
      20    C6      20.854037   19.359828   19.649730 C.3        1 MOL1        -0.2365
      21    H14     21.542163   19.748989   20.410294 H          1 MOL1         0.0987
      22    H15     21.032116   19.923717   18.724930 H          1 MOL1         0.0987
      23    H16     21.111166   18.310125   19.457317 H          1 MOL1         0.0987
@<TRIPOS>BOND
    1     1     2    1
    2     1     3    1
    3     1     4    1
    4     1     5    1
    5     5     6    1
    6     5     7    1
    7     5     8    1
    8     8     9    1
    9     8    10    1
   10     8    11    1
   11    11    12    1
   12    11    13    1
   13    11    14    1
   14    14    15    1
   15    14    16    1
   16    14    17    1
   17    17    18    1
   18    17    19    1
   19    17    20    1
   20    20    21    1
   21    20    22    1
   22    20    23    1
@<TRIPOS>SUBSTRUCTURE
       1 MOL1            1 RESIDUE      1      MOL     
@<SCITEGIC>MOL_PROPERTY
VM2 Rank
SciTegic.value.IntegerValue
10

@<SCITEGIC>MOL_PROPERTY
Conf_Id
SciTegic.value.IntegerValue
896

@<SCITEGIC>MOL_PROPERTY
Probability
SciTegic.value.DoubleValue
2.75

@<SCITEGIC>MOL_PROPERTY
Sum Probability
SciTegic.value.DoubleValue
55.11

@<SCITEGIC>MOL_PROPERTY
Delta G
SciTegic.value.DoubleValue
0.878

@<SCITEGIC>MOL_PROPERTY
G
SciTegic.value.DoubleValue
38.794

@<SCITEGIC>MOL_PROPERTY
E
SciTegic.value.DoubleValue
11.060

@<SCITEGIC>MOL_PROPERTY
-TS
SciTegic.value.DoubleValue
27.734

@<SCITEGIC>MOL_PROPERTY
U+W
SciTegic.value.DoubleValue
-7.719

@<SCITEGIC>MOL_PROPERTY
U
SciTegic.value.DoubleValue
47.955

@<SCITEGIC>MOL_PROPERTY
W
SciTegic.value.DoubleValue
-55.675

@<SCITEGIC>MOL_PROPERTY
W(PB)
SciTegic.value.DoubleValue
-57.795

@<SCITEGIC>MOL_PROPERTY
W(SA)
SciTegic.value.DoubleValue
2.120

@<SCITEGIC>MOL_PROPERTY
Valence
SciTegic.value.DoubleValue
2.340

@<SCITEGIC>MOL_PROPERTY
Coulomb
SciTegic.value.DoubleValue
44.939

@<SCITEGIC>MOL_PROPERTY
VdW
SciTegic.value.DoubleValue
0.677

@<SCITEGIC>MOL_PROPERTY
VdW6
SciTegic.value.DoubleValue
-5.763

@<SCITEGIC>MOL_PROPERTY
VdW12
SciTegic.value.DoubleValue
6.440

@<SCITEGIC>MOL_PROPERTY
Bond
SciTegic.value.DoubleValue
0.168

@<SCITEGIC>MOL_PROPERTY
Angle
SciTegic.value.DoubleValue
0.673

@<SCITEGIC>MOL_PROPERTY
Pdih
SciTegic.value.DoubleValue
1.499

@<SCITEGIC>MOL_PROPERTY
Idih
SciTegic.value.DoubleValue
0.000

@<SCITEGIC>MOL_PROPERTY
Tether
SciTegic.value.DoubleValue
0.000

@<TRIPOS>MOLECULE
guest-2_vm2.mol2 : vm2 ligand conformer 11
          23          22           1
SMALL
USER_CHARGES
 
@<TRIPOS>ATOM
       1    N1      19.146716   17.899340   25.364740 N.4        1 MOL1        -0.5940
       2    H1      18.588547   17.760199   26.213906 H          1 MOL1         0.3649
       3    H2      19.969428   17.293296   25.445599 H          1 MOL1         0.3649
       4    H3      18.588942   17.550330   24.579533 H          1 MOL1         0.3649
       5    C1      19.533865   19.353515   25.178194 C.3        1 MOL1         0.0207
       6    H4      20.087300   19.665681   26.068050 H          1 MOL1         0.0950
       7    H5      18.615908   19.944935   25.123397 H          1 MOL1         0.0950
       8    C2      20.393417   19.612570   23.925577 C.3        1 MOL1        -0.1415
       9    H6      20.707504   20.664823   23.932355 H          1 MOL1         0.0976
      10    H7      21.310938   19.011572   23.979713 H          1 MOL1         0.0976
      11    C3      19.638879   19.310956   22.608866 C.3        1 MOL1        -0.1375
      12    H8      18.709564   19.896457   22.577535 H          1 MOL1         0.0976
      13    H9      19.351417   18.252373   22.586047 H          1 MOL1         0.0976
      14    C4      20.500191   19.642218   21.366329 C.3        1 MOL1        -0.1375
      15    H10     20.838338   20.685669   21.431385 H          1 MOL1         0.0976
      16    H11     21.407767   19.022842   21.368641 H          1 MOL1         0.0976
      17    C5      19.748971   19.452962   20.026166 C.3        1 MOL1        -0.1350
      18    H12     20.391310   19.809711   19.208866 H          1 MOL1         0.0976
      19    H13     18.851424   20.086957   20.010278 H          1 MOL1         0.0976
      20    C6      19.353962   17.985439   19.744127 C.3        1 MOL1        -0.2365
      21    H14     18.613824   17.620684   20.466960 H          1 MOL1         0.0987
      22    H15     20.230280   17.325605   19.785409 H          1 MOL1         0.0987
      23    H16     18.911024   17.892514   18.744071 H          1 MOL1         0.0987
@<TRIPOS>BOND
    1     1     2    1
    2     1     3    1
    3     1     4    1
    4     1     5    1
    5     5     6    1
    6     5     7    1
    7     5     8    1
    8     8     9    1
    9     8    10    1
   10     8    11    1
   11    11    12    1
   12    11    13    1
   13    11    14    1
   14    14    15    1
   15    14    16    1
   16    14    17    1
   17    17    18    1
   18    17    19    1
   19    17    20    1
   20    20    21    1
   21    20    22    1
   22    20    23    1
@<TRIPOS>SUBSTRUCTURE
       1 MOL1            1 RESIDUE      1      MOL     
@<SCITEGIC>MOL_PROPERTY
VM2 Rank
SciTegic.value.IntegerValue
11

@<SCITEGIC>MOL_PROPERTY
Conf_Id
SciTegic.value.IntegerValue
765

@<SCITEGIC>MOL_PROPERTY
Probability
SciTegic.value.DoubleValue
2.56

@<SCITEGIC>MOL_PROPERTY
Sum Probability
SciTegic.value.DoubleValue
57.67

@<SCITEGIC>MOL_PROPERTY
Delta G
SciTegic.value.DoubleValue
0.919

@<SCITEGIC>MOL_PROPERTY
G
SciTegic.value.DoubleValue
38.835

@<SCITEGIC>MOL_PROPERTY
E
SciTegic.value.DoubleValue
11.107

@<SCITEGIC>MOL_PROPERTY
-TS
SciTegic.value.DoubleValue
27.728

@<SCITEGIC>MOL_PROPERTY
U+W
SciTegic.value.DoubleValue
-7.672

@<SCITEGIC>MOL_PROPERTY
U
SciTegic.value.DoubleValue
48.083

@<SCITEGIC>MOL_PROPERTY
W
SciTegic.value.DoubleValue
-55.755

@<SCITEGIC>MOL_PROPERTY
W(PB)
SciTegic.value.DoubleValue
-57.894

@<SCITEGIC>MOL_PROPERTY
W(SA)
SciTegic.value.DoubleValue
2.138

@<SCITEGIC>MOL_PROPERTY
Valence
SciTegic.value.DoubleValue
2.338

@<SCITEGIC>MOL_PROPERTY
Coulomb
SciTegic.value.DoubleValue
45.069

@<SCITEGIC>MOL_PROPERTY
VdW
SciTegic.value.DoubleValue
0.676

@<SCITEGIC>MOL_PROPERTY
VdW6
SciTegic.value.DoubleValue
-5.773

@<SCITEGIC>MOL_PROPERTY
VdW12
SciTegic.value.DoubleValue
6.448

@<SCITEGIC>MOL_PROPERTY
Bond
SciTegic.value.DoubleValue
0.170

@<SCITEGIC>MOL_PROPERTY
Angle
SciTegic.value.DoubleValue
0.671

@<SCITEGIC>MOL_PROPERTY
Pdih
SciTegic.value.DoubleValue
1.498

@<SCITEGIC>MOL_PROPERTY
Idih
SciTegic.value.DoubleValue
0.000

@<SCITEGIC>MOL_PROPERTY
Tether
SciTegic.value.DoubleValue
0.000

@<TRIPOS>MOLECULE
guest-2_vm2.mol2 : vm2 ligand conformer 12
          23          22           1
SMALL
USER_CHARGES
 
@<TRIPOS>ATOM
       1    N1      20.490635   18.712746   25.675820 N.4        1 MOL1        -0.5940
       2    H1      20.856249   17.780891   25.455442 H          1 MOL1         0.3649
       3    H2      20.504488   18.805448   26.697178 H          1 MOL1         0.3649
       4    H3      21.157720   19.395763   25.304269 H          1 MOL1         0.3649
       5    C1      19.099014   18.920735   25.110807 C.3        1 MOL1         0.0207
       6    H4      18.760262   19.918657   25.402036 H          1 MOL1         0.0950
       7    H5      18.437553   18.186516   25.578746 H          1 MOL1         0.0950
       8    C2      19.023352   18.773887   23.578745 C.3        1 MOL1        -0.1415
       9    H6      19.362446   17.768843   23.297791 H          1 MOL1         0.0976
      10    H7      17.970984   18.848273   23.274154 H          1 MOL1         0.0976
      11    C3      19.850571   19.853018   22.836212 C.3        1 MOL1        -0.1375
      12    H8      20.918256   19.731919   23.063101 H          1 MOL1         0.0976
      13    H9      19.564114   20.844413   23.213956 H          1 MOL1         0.0976
      14    C4      19.649629   19.836146   21.300855 C.3        1 MOL1        -0.1375
      15    H10     18.585828   19.980253   21.066628 H          1 MOL1         0.0976
      16    H11     20.178770   20.697813   20.870800 H          1 MOL1         0.0976
      17    C5      20.162162   18.542660   20.624256 C.3        1 MOL1        -0.1350
      18    H12     19.593383   17.675144   20.984379 H          1 MOL1         0.0976
      19    H13     21.212522   18.371380   20.898375 H          1 MOL1         0.0976
      20    C6      20.040636   18.617807   19.087306 C.3        1 MOL1        -0.2365
      21    H14     18.996017   18.759042   18.780628 H          1 MOL1         0.0987
      22    H15     20.405568   17.692024   18.623858 H          1 MOL1         0.0987
      23    H16     20.630905   19.451157   18.684415 H          1 MOL1         0.0987
@<TRIPOS>BOND
    1     1     2    1
    2     1     3    1
    3     1     4    1
    4     1     5    1
    5     5     6    1
    6     5     7    1
    7     5     8    1
    8     8     9    1
    9     8    10    1
   10     8    11    1
   11    11    12    1
   12    11    13    1
   13    11    14    1
   14    14    15    1
   15    14    16    1
   16    14    17    1
   17    17    18    1
   18    17    19    1
   19    17    20    1
   20    20    21    1
   21    20    22    1
   22    20    23    1
@<TRIPOS>SUBSTRUCTURE
       1 MOL1            1 RESIDUE      1      MOL     
@<SCITEGIC>MOL_PROPERTY
VM2 Rank
SciTegic.value.IntegerValue
12

@<SCITEGIC>MOL_PROPERTY
Conf_Id
SciTegic.value.IntegerValue
659

@<SCITEGIC>MOL_PROPERTY
Probability
SciTegic.value.DoubleValue
2.47

@<SCITEGIC>MOL_PROPERTY
Sum Probability
SciTegic.value.DoubleValue
60.14

@<SCITEGIC>MOL_PROPERTY
Delta G
SciTegic.value.DoubleValue
0.941

@<SCITEGIC>MOL_PROPERTY
G
SciTegic.value.DoubleValue
38.858

@<SCITEGIC>MOL_PROPERTY
E
SciTegic.value.DoubleValue
11.126

@<SCITEGIC>MOL_PROPERTY
-TS
SciTegic.value.DoubleValue
27.732

@<SCITEGIC>MOL_PROPERTY
U+W
SciTegic.value.DoubleValue
-7.653

@<SCITEGIC>MOL_PROPERTY
U
SciTegic.value.DoubleValue
48.113

@<SCITEGIC>MOL_PROPERTY
W
SciTegic.value.DoubleValue
-55.767

@<SCITEGIC>MOL_PROPERTY
W(PB)
SciTegic.value.DoubleValue
-57.864

@<SCITEGIC>MOL_PROPERTY
W(SA)
SciTegic.value.DoubleValue
2.097

@<SCITEGIC>MOL_PROPERTY
Valence
SciTegic.value.DoubleValue
2.372

@<SCITEGIC>MOL_PROPERTY
Coulomb
SciTegic.value.DoubleValue
45.091

@<SCITEGIC>MOL_PROPERTY
VdW
SciTegic.value.DoubleValue
0.651

@<SCITEGIC>MOL_PROPERTY
VdW6
SciTegic.value.DoubleValue
-5.797

@<SCITEGIC>MOL_PROPERTY
VdW12
SciTegic.value.DoubleValue
6.447

@<SCITEGIC>MOL_PROPERTY
Bond
SciTegic.value.DoubleValue
0.172

@<SCITEGIC>MOL_PROPERTY
Angle
SciTegic.value.DoubleValue
0.675

@<SCITEGIC>MOL_PROPERTY
Pdih
SciTegic.value.DoubleValue
1.524

@<SCITEGIC>MOL_PROPERTY
Idih
SciTegic.value.DoubleValue
0.000

@<SCITEGIC>MOL_PROPERTY
Tether
SciTegic.value.DoubleValue
0.000

@<TRIPOS>MOLECULE
guest-2_vm2.mol2 : vm2 ligand conformer 13
          23          22           1
SMALL
USER_CHARGES
 
@<TRIPOS>ATOM
       1    N1      18.999176   18.035603   25.160431 N.4        1 MOL1        -0.5940
       2    H1      18.430790   17.852517   24.327958 H          1 MOL1         0.3649
       3    H2      18.435413   18.613828   25.791623 H          1 MOL1         0.3649
       4    H3      19.144999   17.135324   25.629555 H          1 MOL1         0.3649
       5    C1      20.312197   18.705194   24.805461 C.3        1 MOL1         0.0207
       6    H4      20.874904   18.027004   24.158873 H          1 MOL1         0.0950
       7    H5      20.878700   18.838268   25.731149 H          1 MOL1         0.0950
       8    C2      20.143091   20.070842   24.108781 C.3        1 MOL1        -0.1415
       9    H6      19.617058   20.756749   24.786004 H          1 MOL1         0.0976
      10    H7      21.137179   20.507144   23.943548 H          1 MOL1         0.0976
      11    C3      19.385083   20.002012   22.759141 C.3        1 MOL1        -0.1375
      12    H8      19.295327   21.020640   22.357001 H          1 MOL1         0.0976
      13    H9      18.358547   19.648544   22.924605 H          1 MOL1         0.0976
      14    C4      20.085890   19.103641   21.711727 C.3        1 MOL1        -0.1375
      15    H10     21.119957   19.446179   21.567707 H          1 MOL1         0.0976
      16    H11     20.141483   18.070352   22.079303 H          1 MOL1         0.0976
      17    C5      19.345928   19.118920   20.355687 C.3        1 MOL1        -0.1350
      18    H12     19.292874   20.147849   19.973011 H          1 MOL1         0.0976
      19    H13     18.310101   18.778613   20.494135 H          1 MOL1         0.0976
      20    C6      20.044635   18.220787   19.312772 C.3        1 MOL1        -0.2365
      21    H14     19.505367   18.245002   18.356929 H          1 MOL1         0.0987
      22    H15     20.082081   17.177356   19.651982 H          1 MOL1         0.0987
      23    H16     21.073127   18.557275   19.127831 H          1 MOL1         0.0987
@<TRIPOS>BOND
    1     1     2    1
    2     1     3    1
    3     1     4    1
    4     1     5    1
    5     5     6    1
    6     5     7    1
    7     5     8    1
    8     8     9    1
    9     8    10    1
   10     8    11    1
   11    11    12    1
   12    11    13    1
   13    11    14    1
   14    14    15    1
   15    14    16    1
   16    14    17    1
   17    17    18    1
   18    17    19    1
   19    17    20    1
   20    20    21    1
   21    20    22    1
   22    20    23    1
@<TRIPOS>SUBSTRUCTURE
       1 MOL1            1 RESIDUE      1      MOL     
@<SCITEGIC>MOL_PROPERTY
VM2 Rank
SciTegic.value.IntegerValue
13

@<SCITEGIC>MOL_PROPERTY
Conf_Id
SciTegic.value.IntegerValue
756

@<SCITEGIC>MOL_PROPERTY
Probability
SciTegic.value.DoubleValue
2.42

@<SCITEGIC>MOL_PROPERTY
Sum Probability
SciTegic.value.DoubleValue
62.56

@<SCITEGIC>MOL_PROPERTY
Delta G
SciTegic.value.DoubleValue
0.954

@<SCITEGIC>MOL_PROPERTY
G
SciTegic.value.DoubleValue
38.870

@<SCITEGIC>MOL_PROPERTY
E
SciTegic.value.DoubleValue
11.067

@<SCITEGIC>MOL_PROPERTY
-TS
SciTegic.value.DoubleValue
27.803

@<SCITEGIC>MOL_PROPERTY
U+W
SciTegic.value.DoubleValue
-7.712

@<SCITEGIC>MOL_PROPERTY
U
SciTegic.value.DoubleValue
48.052

@<SCITEGIC>MOL_PROPERTY
W
SciTegic.value.DoubleValue
-55.764

@<SCITEGIC>MOL_PROPERTY
W(PB)
SciTegic.value.DoubleValue
-57.867

@<SCITEGIC>MOL_PROPERTY
W(SA)
SciTegic.value.DoubleValue
2.103

@<SCITEGIC>MOL_PROPERTY
Valence
SciTegic.value.DoubleValue
2.122

@<SCITEGIC>MOL_PROPERTY
Coulomb
SciTegic.value.DoubleValue
45.428

@<SCITEGIC>MOL_PROPERTY
VdW
SciTegic.value.DoubleValue
0.502

@<SCITEGIC>MOL_PROPERTY
VdW6
SciTegic.value.DoubleValue
-5.941

@<SCITEGIC>MOL_PROPERTY
VdW12
SciTegic.value.DoubleValue
6.443

@<SCITEGIC>MOL_PROPERTY
Bond
SciTegic.value.DoubleValue
0.160

@<SCITEGIC>MOL_PROPERTY
Angle
SciTegic.value.DoubleValue
0.629

@<SCITEGIC>MOL_PROPERTY
Pdih
SciTegic.value.DoubleValue
1.333

@<SCITEGIC>MOL_PROPERTY
Idih
SciTegic.value.DoubleValue
0.000

@<SCITEGIC>MOL_PROPERTY
Tether
SciTegic.value.DoubleValue
0.000

@<TRIPOS>MOLECULE
guest-2_vm2.mol2 : vm2 ligand conformer 14
          23          22           1
SMALL
USER_CHARGES
 
@<TRIPOS>ATOM
       1    N1      18.778748   19.517532   25.546386 N.4        1 MOL1        -0.5940
       2    H1      19.323955   20.342079   25.817569 H          1 MOL1         0.3649
       3    H2      18.208031   19.256629   26.357673 H          1 MOL1         0.3649
       4    H3      18.132389   19.811070   24.807749 H          1 MOL1         0.3649
       5    C1      19.669269   18.376465   25.094576 C.3        1 MOL1         0.0207
       6    H4      19.030001   17.525408   24.844656 H          1 MOL1         0.0950
       7    H5      20.299036   18.091984   25.941954 H          1 MOL1         0.0950
       8    C2      20.562950   18.725744   23.888678 C.3        1 MOL1        -0.1415
       9    H6      21.200055   19.583764   24.141354 H          1 MOL1         0.0976
      10    H7      21.237267   17.879875   23.699496 H          1 MOL1         0.0976
      11    C3      19.748688   19.027454   22.608134 C.3        1 MOL1        -0.1375
      12    H8      19.100349   19.897983   22.774257 H          1 MOL1         0.0976
      13    H9      19.091458   18.174738   22.392310 H          1 MOL1         0.0976
      14    C4      20.670008   19.302525   21.395336 C.3        1 MOL1        -0.1375
      15    H10     21.371512   20.108022   21.653160 H          1 MOL1         0.0976
      16    H11     21.282629   18.414767   21.185829 H          1 MOL1         0.0976
      17    C5      19.900525   19.712255   20.116219 C.3        1 MOL1        -0.1350
      18    H12     20.628266   19.989035   19.340569 H          1 MOL1         0.0976
      19    H13     19.304401   20.614149   20.313702 H          1 MOL1         0.0976
      20    C6      18.985811   18.595026   19.564671 C.3        1 MOL1        -0.2365
      21    H14     18.536676   18.902108   18.611301 H          1 MOL1         0.0987
      22    H15     18.165694   18.366787   20.256580 H          1 MOL1         0.0987
      23    H16     19.553029   17.672256   19.386416 H          1 MOL1         0.0987
@<TRIPOS>BOND
    1     1     2    1
    2     1     3    1
    3     1     4    1
    4     1     5    1
    5     5     6    1
    6     5     7    1
    7     5     8    1
    8     8     9    1
    9     8    10    1
   10     8    11    1
   11    11    12    1
   12    11    13    1
   13    11    14    1
   14    14    15    1
   15    14    16    1
   16    14    17    1
   17    17    18    1
   18    17    19    1
   19    17    20    1
   20    20    21    1
   21    20    22    1
   22    20    23    1
@<TRIPOS>SUBSTRUCTURE
       1 MOL1            1 RESIDUE      1      MOL     
@<SCITEGIC>MOL_PROPERTY
VM2 Rank
SciTegic.value.IntegerValue
14

@<SCITEGIC>MOL_PROPERTY
Conf_Id
SciTegic.value.IntegerValue
942

@<SCITEGIC>MOL_PROPERTY
Probability
SciTegic.value.DoubleValue
2.41

@<SCITEGIC>MOL_PROPERTY
Sum Probability
SciTegic.value.DoubleValue
64.97

@<SCITEGIC>MOL_PROPERTY
Delta G
SciTegic.value.DoubleValue
0.957

@<SCITEGIC>MOL_PROPERTY
G
SciTegic.value.DoubleValue
38.873

@<SCITEGIC>MOL_PROPERTY
E
SciTegic.value.DoubleValue
11.139

@<SCITEGIC>MOL_PROPERTY
-TS
SciTegic.value.DoubleValue
27.734

@<SCITEGIC>MOL_PROPERTY
U+W
SciTegic.value.DoubleValue
-7.641

@<SCITEGIC>MOL_PROPERTY
U
SciTegic.value.DoubleValue
47.955

@<SCITEGIC>MOL_PROPERTY
W
SciTegic.value.DoubleValue
-55.596

@<SCITEGIC>MOL_PROPERTY
W(PB)
SciTegic.value.DoubleValue
-57.737

@<SCITEGIC>MOL_PROPERTY
W(SA)
SciTegic.value.DoubleValue
2.141

@<SCITEGIC>MOL_PROPERTY
Valence
SciTegic.value.DoubleValue
2.340

@<SCITEGIC>MOL_PROPERTY
Coulomb
SciTegic.value.DoubleValue
44.939

@<SCITEGIC>MOL_PROPERTY
VdW
SciTegic.value.DoubleValue
0.676

@<SCITEGIC>MOL_PROPERTY
VdW6
SciTegic.value.DoubleValue
-5.763

@<SCITEGIC>MOL_PROPERTY
VdW12
SciTegic.value.DoubleValue
6.440

@<SCITEGIC>MOL_PROPERTY
Bond
SciTegic.value.DoubleValue
0.168

@<SCITEGIC>MOL_PROPERTY
Angle
SciTegic.value.DoubleValue
0.673

@<SCITEGIC>MOL_PROPERTY
Pdih
SciTegic.value.DoubleValue
1.499

@<SCITEGIC>MOL_PROPERTY
Idih
SciTegic.value.DoubleValue
0.000

@<SCITEGIC>MOL_PROPERTY
Tether
SciTegic.value.DoubleValue
0.000

@<TRIPOS>MOLECULE
guest-2_vm2.mol2 : vm2 ligand conformer 15
          23          22           1
SMALL
USER_CHARGES
 
@<TRIPOS>ATOM
       1    N1      20.803450   18.786449   25.242719 N.4        1 MOL1        -0.5940
       2    H1      21.396573   19.086657   24.463185 H          1 MOL1         0.3649
       3    H2      21.302257   18.033082   25.727975 H          1 MOL1         0.3649
       4    H3      20.740642   19.573172   25.896706 H          1 MOL1         0.3649
       5    C1      19.435365   18.340335   24.765533 C.3        1 MOL1         0.0207
       6    H4      18.871750   18.003170   25.639713 H          1 MOL1         0.0950
       7    H5      19.570908   17.484361   24.099503 H          1 MOL1         0.0950
       8    C2      18.641001   19.445771   24.040305 C.3        1 MOL1        -0.1415
       9    H6      17.647217   19.054872   23.784449 H          1 MOL1         0.0976
      10    H7      18.471897   20.280223   24.733776 H          1 MOL1         0.0976
      11    C3      19.326437   19.977548   22.756472 C.3        1 MOL1        -0.1375
      12    H8      20.284423   20.449629   23.012387 H          1 MOL1         0.0976
      13    H9      18.699421   20.772713   22.329929 H          1 MOL1         0.0976
      14    C4      19.551769   18.881485   21.687291 C.3        1 MOL1        -0.1375
      15    H10     20.215552   18.101098   22.082611 H          1 MOL1         0.0976
      16    H11     18.594504   18.395917   21.452272 H          1 MOL1         0.0976
      17    C5      20.165932   19.459959   20.393154 C.3        1 MOL1        -0.1350
      18    H12     21.123349   19.948407   20.622688 H          1 MOL1         0.0976
      19    H13     19.504702   20.236059   19.982798 H          1 MOL1         0.0976
      20    C6      20.392046   18.365454   19.328525 C.3        1 MOL1        -0.2365
      21    H14     20.827891   18.795214   18.417274 H          1 MOL1         0.0987
      22    H15     19.446089   17.881036   19.053338 H          1 MOL1         0.0987
      23    H16     21.077855   17.591557   19.697258 H          1 MOL1         0.0987
@<TRIPOS>BOND
    1     1     2    1
    2     1     3    1
    3     1     4    1
    4     1     5    1
    5     5     6    1
    6     5     7    1
    7     5     8    1
    8     8     9    1
    9     8    10    1
   10     8    11    1
   11    11    12    1
   12    11    13    1
   13    11    14    1
   14    14    15    1
   15    14    16    1
   16    14    17    1
   17    17    18    1
   18    17    19    1
   19    17    20    1
   20    20    21    1
   21    20    22    1
   22    20    23    1
@<TRIPOS>SUBSTRUCTURE
       1 MOL1            1 RESIDUE      1      MOL     
@<SCITEGIC>MOL_PROPERTY
VM2 Rank
SciTegic.value.IntegerValue
15

@<SCITEGIC>MOL_PROPERTY
Conf_Id
SciTegic.value.IntegerValue
478

@<SCITEGIC>MOL_PROPERTY
Probability
SciTegic.value.DoubleValue
2.40

@<SCITEGIC>MOL_PROPERTY
Sum Probability
SciTegic.value.DoubleValue
67.37

@<SCITEGIC>MOL_PROPERTY
Delta G
SciTegic.value.DoubleValue
0.959

@<SCITEGIC>MOL_PROPERTY
G
SciTegic.value.DoubleValue
38.875

@<SCITEGIC>MOL_PROPERTY
E
SciTegic.value.DoubleValue
11.072

@<SCITEGIC>MOL_PROPERTY
-TS
SciTegic.value.DoubleValue
27.803

@<SCITEGIC>MOL_PROPERTY
U+W
SciTegic.value.DoubleValue
-7.707

@<SCITEGIC>MOL_PROPERTY
U
SciTegic.value.DoubleValue
48.052

@<SCITEGIC>MOL_PROPERTY
W
SciTegic.value.DoubleValue
-55.759

@<SCITEGIC>MOL_PROPERTY
W(PB)
SciTegic.value.DoubleValue
-57.853

@<SCITEGIC>MOL_PROPERTY
W(SA)
SciTegic.value.DoubleValue
2.094

@<SCITEGIC>MOL_PROPERTY
Valence
SciTegic.value.DoubleValue
2.121

@<SCITEGIC>MOL_PROPERTY
Coulomb
SciTegic.value.DoubleValue
45.428

@<SCITEGIC>MOL_PROPERTY
VdW
SciTegic.value.DoubleValue
0.502

@<SCITEGIC>MOL_PROPERTY
VdW6
SciTegic.value.DoubleValue
-5.941

@<SCITEGIC>MOL_PROPERTY
VdW12
SciTegic.value.DoubleValue
6.443

@<SCITEGIC>MOL_PROPERTY
Bond
SciTegic.value.DoubleValue
0.160

@<SCITEGIC>MOL_PROPERTY
Angle
SciTegic.value.DoubleValue
0.629

@<SCITEGIC>MOL_PROPERTY
Pdih
SciTegic.value.DoubleValue
1.333

@<SCITEGIC>MOL_PROPERTY
Idih
SciTegic.value.DoubleValue
0.000

@<SCITEGIC>MOL_PROPERTY
Tether
SciTegic.value.DoubleValue
0.000

@<TRIPOS>MOLECULE
guest-2_vm2.mol2 : vm2 ligand conformer 16
          23          22           1
SMALL
USER_CHARGES
 
@<TRIPOS>ATOM
       1    N1      20.780488   18.578970   25.439162 N.4        1 MOL1        -0.5940
       2    H1      20.625805   17.566331   25.475426 H          1 MOL1         0.3649
       3    H2      21.204945   18.848554   26.333117 H          1 MOL1         0.3649
       4    H3      21.480008   18.753030   24.711257 H          1 MOL1         0.3649
       5    C1      19.493643   19.336778   25.176365 C.3        1 MOL1         0.0207
       6    H4      19.723522   20.405690   25.173898 H          1 MOL1         0.0950
       7    H5      18.815143   19.136445   26.010085 H          1 MOL1         0.0950
       8    C2      18.804020   18.951414   23.853148 C.3        1 MOL1        -0.1415
       9    H6      18.581229   17.876083   23.855328 H          1 MOL1         0.0976
      10    H7      17.838056   19.471208   23.801584 H          1 MOL1         0.0976
      11    C3      19.649362   19.315272   22.609349 C.3        1 MOL1        -0.1375
      12    H8      20.602338   18.772636   22.643055 H          1 MOL1         0.0976
      13    H9      19.889683   20.387271   22.631338 H          1 MOL1         0.0976
      14    C4      18.906589   18.979351   21.293699 C.3        1 MOL1        -0.1375
      15    H10     18.707763   17.899778   21.245564 H          1 MOL1         0.0976
      16    H11     17.925466   19.474060   21.298637 H          1 MOL1         0.0976
      17    C5      19.671887   19.420905   20.022659 C.3        1 MOL1        -0.1350
      18    H12     19.854333   20.504138   20.055996 H          1 MOL1         0.0976
      19    H13     19.031822   19.244219   19.146903 H          1 MOL1         0.0976
      20    C6      21.010011   18.674310   19.819618 C.3        1 MOL1        -0.2365
      21    H14     20.858798   17.587056   19.814040 H          1 MOL1         0.0987
      22    H15     21.731717   18.917628   20.609094 H          1 MOL1         0.0987
      23    H16     21.464321   18.954625   18.860469 H          1 MOL1         0.0987
@<TRIPOS>BOND
    1     1     2    1
    2     1     3    1
    3     1     4    1
    4     1     5    1
    5     5     6    1
    6     5     7    1
    7     5     8    1
    8     8     9    1
    9     8    10    1
   10     8    11    1
   11    11    12    1
   12    11    13    1
   13    11    14    1
   14    14    15    1
   15    14    16    1
   16    14    17    1
   17    17    18    1
   18    17    19    1
   19    17    20    1
   20    20    21    1
   21    20    22    1
   22    20    23    1
@<TRIPOS>SUBSTRUCTURE
       1 MOL1            1 RESIDUE      1      MOL     
@<SCITEGIC>MOL_PROPERTY
VM2 Rank
SciTegic.value.IntegerValue
16

@<SCITEGIC>MOL_PROPERTY
Conf_Id
SciTegic.value.IntegerValue
759

@<SCITEGIC>MOL_PROPERTY
Probability
SciTegic.value.DoubleValue
2.39

@<SCITEGIC>MOL_PROPERTY
Sum Probability
SciTegic.value.DoubleValue
69.76

@<SCITEGIC>MOL_PROPERTY
Delta G
SciTegic.value.DoubleValue
0.960

@<SCITEGIC>MOL_PROPERTY
G
SciTegic.value.DoubleValue
38.877

@<SCITEGIC>MOL_PROPERTY
E
SciTegic.value.DoubleValue
11.148

@<SCITEGIC>MOL_PROPERTY
-TS
SciTegic.value.DoubleValue
27.729

@<SCITEGIC>MOL_PROPERTY
U+W
SciTegic.value.DoubleValue
-7.631

@<SCITEGIC>MOL_PROPERTY
U
SciTegic.value.DoubleValue
48.083

@<SCITEGIC>MOL_PROPERTY
W
SciTegic.value.DoubleValue
-55.714

@<SCITEGIC>MOL_PROPERTY
W(PB)
SciTegic.value.DoubleValue
-57.844

@<SCITEGIC>MOL_PROPERTY
W(SA)
SciTegic.value.DoubleValue
2.130

@<SCITEGIC>MOL_PROPERTY
Valence
SciTegic.value.DoubleValue
2.338

@<SCITEGIC>MOL_PROPERTY
Coulomb
SciTegic.value.DoubleValue
45.069

@<SCITEGIC>MOL_PROPERTY
VdW
SciTegic.value.DoubleValue
0.676

@<SCITEGIC>MOL_PROPERTY
VdW6
SciTegic.value.DoubleValue
-5.773

@<SCITEGIC>MOL_PROPERTY
VdW12
SciTegic.value.DoubleValue
6.449

@<SCITEGIC>MOL_PROPERTY
Bond
SciTegic.value.DoubleValue
0.170

@<SCITEGIC>MOL_PROPERTY
Angle
SciTegic.value.DoubleValue
0.671

@<SCITEGIC>MOL_PROPERTY
Pdih
SciTegic.value.DoubleValue
1.498

@<SCITEGIC>MOL_PROPERTY
Idih
SciTegic.value.DoubleValue
0.000

@<SCITEGIC>MOL_PROPERTY
Tether
SciTegic.value.DoubleValue
0.000

@<TRIPOS>MOLECULE
guest-2_vm2.mol2 : vm2 ligand conformer 17
          23          22           1
SMALL
USER_CHARGES
 
@<TRIPOS>ATOM
       1    N1      19.237606   18.191239   25.618849 N.4        1 MOL1        -0.5940
       2    H1      19.083096   18.213906   26.632540 H          1 MOL1         0.3649
       3    H2      19.658205   17.282261   25.401017 H          1 MOL1         0.3649
       4    H3      18.314552   18.212328   25.174900 H          1 MOL1         0.3649
       5    C1      20.110456   19.341817   25.156884 C.3        1 MOL1         0.0207
       6    H4      21.058369   19.277528   25.698091 H          1 MOL1         0.0950
       7    H5      19.618729   20.276068   25.441128 H          1 MOL1         0.0950
       8    C2      20.386247   19.341225   23.640821 C.3        1 MOL1        -0.1415
       9    H6      21.095397   20.149018   23.416399 H          1 MOL1         0.0976
      10    H7      20.882148   18.401453   23.367055 H          1 MOL1         0.0976
      11    C3      19.098985   19.539915   22.801978 C.3        1 MOL1        -0.1375
      12    H8      18.568224   20.429555   23.168646 H          1 MOL1         0.0976
      13    H9      18.418291   18.690745   22.949162 H          1 MOL1         0.0976
      14    C4      19.370890   19.720049   21.288172 C.3        1 MOL1        -0.1375
      15    H10     18.422573   19.966505   20.790817 H          1 MOL1         0.0976
      16    H11     20.033127   20.582923   21.132636 H          1 MOL1         0.0976
      17    C5      19.980283   18.466946   20.615896 C.3        1 MOL1        -0.1350
      18    H12     19.343586   17.593162   20.813014 H          1 MOL1         0.0976
      19    H13     20.965931   18.246663   21.046887 H          1 MOL1         0.0976
      20    C6      20.131533   18.655809   19.091401 C.3        1 MOL1        -0.2365
      21    H14     20.567431   17.759619   18.631110 H          1 MOL1         0.0987
      22    H15     20.787993   19.505415   18.862366 H          1 MOL1         0.0987
      23    H16     19.158330   18.838148   18.617230 H          1 MOL1         0.0987
@<TRIPOS>BOND
    1     1     2    1
    2     1     3    1
    3     1     4    1
    4     1     5    1
    5     5     6    1
    6     5     7    1
    7     5     8    1
    8     8     9    1
    9     8    10    1
   10     8    11    1
   11    11    12    1
   12    11    13    1
   13    11    14    1
   14    14    15    1
   15    14    16    1
   16    14    17    1
   17    17    18    1
   18    17    19    1
   19    17    20    1
   20    20    21    1
   21    20    22    1
   22    20    23    1
@<TRIPOS>SUBSTRUCTURE
       1 MOL1            1 RESIDUE      1      MOL     
@<SCITEGIC>MOL_PROPERTY
VM2 Rank
SciTegic.value.IntegerValue
17

@<SCITEGIC>MOL_PROPERTY
Conf_Id
SciTegic.value.IntegerValue
297

@<SCITEGIC>MOL_PROPERTY
Probability
SciTegic.value.DoubleValue
2.27

@<SCITEGIC>MOL_PROPERTY
Sum Probability
SciTegic.value.DoubleValue
72.03

@<SCITEGIC>MOL_PROPERTY
Delta G
SciTegic.value.DoubleValue
0.992

@<SCITEGIC>MOL_PROPERTY
G
SciTegic.value.DoubleValue
38.909

@<SCITEGIC>MOL_PROPERTY
E
SciTegic.value.DoubleValue
11.177

@<SCITEGIC>MOL_PROPERTY
-TS
SciTegic.value.DoubleValue
27.732

@<SCITEGIC>MOL_PROPERTY
U+W
SciTegic.value.DoubleValue
-7.602

@<SCITEGIC>MOL_PROPERTY
U
SciTegic.value.DoubleValue
48.113

@<SCITEGIC>MOL_PROPERTY
W
SciTegic.value.DoubleValue
-55.716

@<SCITEGIC>MOL_PROPERTY
W(PB)
SciTegic.value.DoubleValue
-57.835

@<SCITEGIC>MOL_PROPERTY
W(SA)
SciTegic.value.DoubleValue
2.119

@<SCITEGIC>MOL_PROPERTY
Valence
SciTegic.value.DoubleValue
2.372

@<SCITEGIC>MOL_PROPERTY
Coulomb
SciTegic.value.DoubleValue
45.091

@<SCITEGIC>MOL_PROPERTY
VdW
SciTegic.value.DoubleValue
0.651

@<SCITEGIC>MOL_PROPERTY
VdW6
SciTegic.value.DoubleValue
-5.797

@<SCITEGIC>MOL_PROPERTY
VdW12
SciTegic.value.DoubleValue
6.447

@<SCITEGIC>MOL_PROPERTY
Bond
SciTegic.value.DoubleValue
0.172

@<SCITEGIC>MOL_PROPERTY
Angle
SciTegic.value.DoubleValue
0.675

@<SCITEGIC>MOL_PROPERTY
Pdih
SciTegic.value.DoubleValue
1.524

@<SCITEGIC>MOL_PROPERTY
Idih
SciTegic.value.DoubleValue
0.000

@<SCITEGIC>MOL_PROPERTY
Tether
SciTegic.value.DoubleValue
0.000

@<TRIPOS>MOLECULE
guest-2_vm2.mol2 : vm2 ligand conformer 18
          23          22           1
SMALL
USER_CHARGES
 
@<TRIPOS>ATOM
       1    N1      19.467288   18.529658   25.910438 N.4        1 MOL1        -0.5940
       2    H1      19.226703   18.815928   26.865500 H          1 MOL1         0.3649
       3    H2      20.211607   17.829125   25.987310 H          1 MOL1         0.3649
       4    H3      18.644821   18.056691   25.524029 H          1 MOL1         0.3649
       5    C1      19.890361   19.710876   25.058826 C.3        1 MOL1         0.0207
       6    H4      20.741188   20.187021   25.553763 H          1 MOL1         0.0950
       7    H5      19.064769   20.427364   25.037172 H          1 MOL1         0.0950
       8    C2      20.285807   19.331192   23.618426 C.3        1 MOL1        -0.1415
       9    H6      20.685082   20.228783   23.130279 H          1 MOL1         0.0976
      10    H7      21.102268   18.597368   23.644258 H          1 MOL1         0.0976
      11    C3      19.094846   18.773145   22.799088 C.3        1 MOL1        -0.1375
      12    H8      18.292212   19.522367   22.755361 H          1 MOL1         0.0976
      13    H9      18.674170   17.900523   23.315951 H          1 MOL1         0.0976
      14    C4      19.480024   18.341871   21.362305 C.3        1 MOL1        -0.1375
      15    H10     20.278412   17.588187   21.405301 H          1 MOL1         0.0976
      16    H11     18.613062   17.845584   20.904587 H          1 MOL1         0.0976
      17    C5      19.919769   19.517155   20.457152 C.3        1 MOL1        -0.1350
      18    H12     20.835101   19.978368   20.850819 H          1 MOL1         0.0976
      19    H13     19.144531   20.296099   20.457186 H          1 MOL1         0.0976
      20    C6      20.177904   19.053104   19.007765 C.3        1 MOL1        -0.2365
      21    H14     19.271245   18.622368   18.563188 H          1 MOL1         0.0987
      22    H15     20.970184   18.294006   18.971795 H          1 MOL1         0.0987
      23    H16     20.491678   19.897526   18.380440 H          1 MOL1         0.0987
@<TRIPOS>BOND
    1     1     2    1
    2     1     3    1
    3     1     4    1
    4     1     5    1
    5     5     6    1
    6     5     7    1
    7     5     8    1
    8     8     9    1
    9     8    10    1
   10     8    11    1
   11    11    12    1
   12    11    13    1
   13    11    14    1
   14    14    15    1
   15    14    16    1
   16    14    17    1
   17    17    18    1
   18    17    19    1
   19    17    20    1
   20    20    21    1
   21    20    22    1
   22    20    23    1
@<TRIPOS>SUBSTRUCTURE
       1 MOL1            1 RESIDUE      1      MOL     
@<SCITEGIC>MOL_PROPERTY
VM2 Rank
SciTegic.value.IntegerValue
18

@<SCITEGIC>MOL_PROPERTY
Conf_Id
SciTegic.value.IntegerValue
839

@<SCITEGIC>MOL_PROPERTY
Probability
SciTegic.value.DoubleValue
1.98

@<SCITEGIC>MOL_PROPERTY
Sum Probability
SciTegic.value.DoubleValue
74.01

@<SCITEGIC>MOL_PROPERTY
Delta G
SciTegic.value.DoubleValue
1.074

@<SCITEGIC>MOL_PROPERTY
G
SciTegic.value.DoubleValue
38.990

@<SCITEGIC>MOL_PROPERTY
E
SciTegic.value.DoubleValue
11.290

@<SCITEGIC>MOL_PROPERTY
-TS
SciTegic.value.DoubleValue
27.700

@<SCITEGIC>MOL_PROPERTY
U+W
SciTegic.value.DoubleValue
-7.489

@<SCITEGIC>MOL_PROPERTY
U
SciTegic.value.DoubleValue
48.041

@<SCITEGIC>MOL_PROPERTY
W
SciTegic.value.DoubleValue
-55.530

@<SCITEGIC>MOL_PROPERTY
W(PB)
SciTegic.value.DoubleValue
-57.678

@<SCITEGIC>MOL_PROPERTY
W(SA)
SciTegic.value.DoubleValue
2.148

@<SCITEGIC>MOL_PROPERTY
Valence
SciTegic.value.DoubleValue
2.405

@<SCITEGIC>MOL_PROPERTY
Coulomb
SciTegic.value.DoubleValue
44.931

@<SCITEGIC>MOL_PROPERTY
VdW
SciTegic.value.DoubleValue
0.705

@<SCITEGIC>MOL_PROPERTY
VdW6
SciTegic.value.DoubleValue
-5.756

@<SCITEGIC>MOL_PROPERTY
VdW12
SciTegic.value.DoubleValue
6.460

@<SCITEGIC>MOL_PROPERTY
Bond
SciTegic.value.DoubleValue
0.178

@<SCITEGIC>MOL_PROPERTY
Angle
SciTegic.value.DoubleValue
0.724

@<SCITEGIC>MOL_PROPERTY
Pdih
SciTegic.value.DoubleValue
1.504

@<SCITEGIC>MOL_PROPERTY
Idih
SciTegic.value.DoubleValue
0.000

@<SCITEGIC>MOL_PROPERTY
Tether
SciTegic.value.DoubleValue
0.000

@<TRIPOS>MOLECULE
guest-2_vm2.mol2 : vm2 ligand conformer 19
          23          22           1
SMALL
USER_CHARGES
 
@<TRIPOS>ATOM
       1    N1      20.066876   18.778952   25.937736 N.4        1 MOL1        -0.5940
       2    H1      21.009050   19.039962   25.631723 H          1 MOL1         0.3649
       3    H2      20.034308   17.755287   25.979175 H          1 MOL1         0.3649
       4    H3      19.959065   19.120408   26.898860 H          1 MOL1         0.3649
       5    C1      18.999689   19.340359   25.018258 C.3        1 MOL1         0.0207
       6    H4      19.073688   20.431035   25.037675 H          1 MOL1         0.0950
       7    H5      18.026945   19.057951   25.430079 H          1 MOL1         0.0950
       8    C2      19.102605   18.839093   23.564495 C.3        1 MOL1        -0.1415
       9    H6      19.047010   17.742513   23.550521 H          1 MOL1         0.0976
      10    H7      18.224710   19.205446   23.018176 H          1 MOL1         0.0976
      11    C3      20.397236   19.315044   22.858435 C.3        1 MOL1        -0.1375
      12    H8      21.270256   18.980632   23.434273 H          1 MOL1         0.0976
      13    H9      20.433555   20.413278   22.852907 H          1 MOL1         0.0976
      14    C4      20.543669   18.784392   21.410792 C.3        1 MOL1        -0.1375
      15    H10     21.539076   19.062898   21.037929 H          1 MOL1         0.0976
      16    H11     20.513592   17.686039   21.416080 H          1 MOL1         0.0976
      17    C5      19.473054   19.331269   20.436793 C.3        1 MOL1        -0.1350
      18    H12     19.465628   20.429663   20.471794 H          1 MOL1         0.0976
      19    H13     18.473503   18.995804   20.743196 H          1 MOL1         0.0976
      20    C6      19.732871   18.867891   18.987491 C.3        1 MOL1        -0.2365
      21    H14     18.963410   19.261634   18.310783 H          1 MOL1         0.0987
      22    H15     19.717046   17.772592   18.914706 H          1 MOL1         0.0987
      23    H16     20.708715   19.220337   18.628711 H          1 MOL1         0.0987
@<TRIPOS>BOND
    1     1     2    1
    2     1     3    1
    3     1     4    1
    4     1     5    1
    5     5     6    1
    6     5     7    1
    7     5     8    1
    8     8     9    1
    9     8    10    1
   10     8    11    1
   11    11    12    1
   12    11    13    1
   13    11    14    1
   14    14    15    1
   15    14    16    1
   16    14    17    1
   17    17    18    1
   18    17    19    1
   19    17    20    1
   20    20    21    1
   21    20    22    1
   22    20    23    1
@<TRIPOS>SUBSTRUCTURE
       1 MOL1            1 RESIDUE      1      MOL     
@<SCITEGIC>MOL_PROPERTY
VM2 Rank
SciTegic.value.IntegerValue
19

@<SCITEGIC>MOL_PROPERTY
Conf_Id
SciTegic.value.IntegerValue
978

@<SCITEGIC>MOL_PROPERTY
Probability
SciTegic.value.DoubleValue
1.96

@<SCITEGIC>MOL_PROPERTY
Sum Probability
SciTegic.value.DoubleValue
75.97

@<SCITEGIC>MOL_PROPERTY
Delta G
SciTegic.value.DoubleValue
1.081

@<SCITEGIC>MOL_PROPERTY
G
SciTegic.value.DoubleValue
38.997

@<SCITEGIC>MOL_PROPERTY
E
SciTegic.value.DoubleValue
11.297

@<SCITEGIC>MOL_PROPERTY
-TS
SciTegic.value.DoubleValue
27.699

@<SCITEGIC>MOL_PROPERTY
U+W
SciTegic.value.DoubleValue
-7.482

@<SCITEGIC>MOL_PROPERTY
U
SciTegic.value.DoubleValue
48.041

@<SCITEGIC>MOL_PROPERTY
W
SciTegic.value.DoubleValue
-55.523

@<SCITEGIC>MOL_PROPERTY
W(PB)
SciTegic.value.DoubleValue
-57.654

@<SCITEGIC>MOL_PROPERTY
W(SA)
SciTegic.value.DoubleValue
2.131

@<SCITEGIC>MOL_PROPERTY
Valence
SciTegic.value.DoubleValue
2.405

@<SCITEGIC>MOL_PROPERTY
Coulomb
SciTegic.value.DoubleValue
44.931

@<SCITEGIC>MOL_PROPERTY
VdW
SciTegic.value.DoubleValue
0.705

@<SCITEGIC>MOL_PROPERTY
VdW6
SciTegic.value.DoubleValue
-5.756

@<SCITEGIC>MOL_PROPERTY
VdW12
SciTegic.value.DoubleValue
6.460

@<SCITEGIC>MOL_PROPERTY
Bond
SciTegic.value.DoubleValue
0.178

@<SCITEGIC>MOL_PROPERTY
Angle
SciTegic.value.DoubleValue
0.724

@<SCITEGIC>MOL_PROPERTY
Pdih
SciTegic.value.DoubleValue
1.504

@<SCITEGIC>MOL_PROPERTY
Idih
SciTegic.value.DoubleValue
0.000

@<SCITEGIC>MOL_PROPERTY
Tether
SciTegic.value.DoubleValue
0.000

@<TRIPOS>MOLECULE
guest-2_vm2.mol2 : vm2 ligand conformer 20
          23          22           1
SMALL
USER_CHARGES
 
@<TRIPOS>ATOM
       1    N1      19.981289   18.564548   26.072406 N.4        1 MOL1        -0.5940
       2    H1      19.052459   18.566794   26.506115 H          1 MOL1         0.3649
       3    H2      20.451568   19.427942   26.362603 H          1 MOL1         0.3649
       4    H3      20.502958   17.786240   26.489680 H          1 MOL1         0.3649
       5    C1      19.900729   18.443978   24.564187 C.3        1 MOL1         0.0207
       6    H4      19.416847   17.492703   24.326809 H          1 MOL1         0.0950
       7    H5      20.921745   18.417332   24.174858 H          1 MOL1         0.0950
       8    C2      19.122233   19.599303   23.907041 C.3        1 MOL1        -0.1415
       9    H6      18.112418   19.642069   24.336423 H          1 MOL1         0.0976
      10    H7      19.606732   20.554969   24.147721 H          1 MOL1         0.0976
      11    C3      19.009352   19.445148   22.372014 C.3        1 MOL1        -0.1375
      12    H8      18.375113   20.253074   21.981911 H          1 MOL1         0.0976
      13    H9      18.492064   18.503977   22.142976 H          1 MOL1         0.0976
      14    C4      20.383601   19.484976   21.656820 C.3        1 MOL1        -0.1375
      15    H10     20.929222   20.383257   21.977295 H          1 MOL1         0.0976
      16    H11     20.994423   18.625360   21.963595 H          1 MOL1         0.0976
      17    C5      20.271601   19.503171   20.113172 C.3        1 MOL1        -0.1350
      18    H12     21.276483   19.634455   19.687934 H          1 MOL1         0.0976
      19    H13     19.686210   20.376394   19.792871 H          1 MOL1         0.0976
      20    C6      19.647194   18.215876   19.528360 C.3        1 MOL1        -0.2365
      21    H14     19.671875   18.241083   18.431231 H          1 MOL1         0.0987
      22    H15     18.599089   18.102394   19.831834 H          1 MOL1         0.0987
      23    H16     20.198930   17.325217   19.855965 H          1 MOL1         0.0987
@<TRIPOS>BOND
    1     1     2    1
    2     1     3    1
    3     1     4    1
    4     1     5    1
    5     5     6    1
    6     5     7    1
    7     5     8    1
    8     8     9    1
    9     8    10    1
   10     8    11    1
   11    11    12    1
   12    11    13    1
   13    11    14    1
   14    14    15    1
   15    14    16    1
   16    14    17    1
   17    17    18    1
   18    17    19    1
   19    17    20    1
   20    20    21    1
   21    20    22    1
   22    20    23    1
@<TRIPOS>SUBSTRUCTURE
       1 MOL1            1 RESIDUE      1      MOL     
@<SCITEGIC>MOL_PROPERTY
VM2 Rank
SciTegic.value.IntegerValue
20

@<SCITEGIC>MOL_PROPERTY
Conf_Id
SciTegic.value.IntegerValue
729

@<SCITEGIC>MOL_PROPERTY
Probability
SciTegic.value.DoubleValue
1.87

@<SCITEGIC>MOL_PROPERTY
Sum Probability
SciTegic.value.DoubleValue
77.83

@<SCITEGIC>MOL_PROPERTY
Delta G
SciTegic.value.DoubleValue
1.108

@<SCITEGIC>MOL_PROPERTY
G
SciTegic.value.DoubleValue
39.025

@<SCITEGIC>MOL_PROPERTY
E
SciTegic.value.DoubleValue
11.287

@<SCITEGIC>MOL_PROPERTY
-TS
SciTegic.value.DoubleValue
27.737

@<SCITEGIC>MOL_PROPERTY
U+W
SciTegic.value.DoubleValue
-7.492

@<SCITEGIC>MOL_PROPERTY
U
SciTegic.value.DoubleValue
47.960

@<SCITEGIC>MOL_PROPERTY
W
SciTegic.value.DoubleValue
-55.452

@<SCITEGIC>MOL_PROPERTY
W(PB)
SciTegic.value.DoubleValue
-57.573

@<SCITEGIC>MOL_PROPERTY
W(SA)
SciTegic.value.DoubleValue
2.121

@<SCITEGIC>MOL_PROPERTY
Valence
SciTegic.value.DoubleValue
2.523

@<SCITEGIC>MOL_PROPERTY
Coulomb
SciTegic.value.DoubleValue
44.824

@<SCITEGIC>MOL_PROPERTY
VdW
SciTegic.value.DoubleValue
0.613

@<SCITEGIC>MOL_PROPERTY
VdW6
SciTegic.value.DoubleValue
-5.844

@<SCITEGIC>MOL_PROPERTY
VdW12
SciTegic.value.DoubleValue
6.458

@<SCITEGIC>MOL_PROPERTY
Bond
SciTegic.value.DoubleValue
0.171

@<SCITEGIC>MOL_PROPERTY
Angle
SciTegic.value.DoubleValue
0.728

@<SCITEGIC>MOL_PROPERTY
Pdih
SciTegic.value.DoubleValue
1.624

@<SCITEGIC>MOL_PROPERTY
Idih
SciTegic.value.DoubleValue
0.000

@<SCITEGIC>MOL_PROPERTY
Tether
SciTegic.value.DoubleValue
0.000

@<TRIPOS>MOLECULE
guest-2_vm2.mol2 : vm2 ligand conformer 21
          23          22           1
SMALL
USER_CHARGES
 
@<TRIPOS>ATOM
       1    N1      19.668505   18.434599   26.058167 N.4        1 MOL1        -0.5940
       2    H1      20.285465   19.079557   26.562373 H          1 MOL1         0.3649
       3    H2      19.820577   17.502659   26.458638 H          1 MOL1         0.3649
       4    H3      18.704691   18.701776   26.282897 H          1 MOL1         0.3649
       5    C1      19.927562   18.455129   24.565446 C.3        1 MOL1         0.0207
       6    H4      19.259737   17.726231   24.099099 H          1 MOL1         0.0950
       7    H5      20.959042   18.133929   24.397243 H          1 MOL1         0.0950
       8    C2      19.707545   19.842628   23.933696 C.3        1 MOL1        -0.1415
       9    H6      18.672299   20.166427   24.105105 H          1 MOL1         0.0976
      10    H7      20.353063   20.573662   24.438492 H          1 MOL1         0.0976
      11    C3      20.014979   19.863180   22.417823 C.3        1 MOL1        -0.1375
      12    H8      21.062081   19.572418   22.260069 H          1 MOL1         0.0976
      13    H9      19.918828   20.894813   22.052212 H          1 MOL1         0.0976
      14    C4      19.077229   18.941746   21.597317 C.3        1 MOL1        -0.1375
      15    H10     19.232924   17.892885   21.883332 H          1 MOL1         0.0976
      16    H11     18.033497   19.179190   21.845428 H          1 MOL1         0.0976
      17    C5      19.262642   19.083663   20.067217 C.3        1 MOL1        -0.1350
      18    H12     19.080447   20.124553   19.765314 H          1 MOL1         0.0976
      19    H13     18.497094   18.478786   19.561342 H          1 MOL1         0.0976
      20    C6      20.657537   18.636056   19.574336 C.3        1 MOL1        -0.2365
      21    H14     20.707382   18.671729   18.478352 H          1 MOL1         0.0987
      22    H15     20.875166   17.606463   19.886726 H          1 MOL1         0.0987
      23    H16     21.450263   19.288049   19.961616 H          1 MOL1         0.0987
@<TRIPOS>BOND
    1     1     2    1
    2     1     3    1
    3     1     4    1
    4     1     5    1
    5     5     6    1
    6     5     7    1
    7     5     8    1
    8     8     9    1
    9     8    10    1
   10     8    11    1
   11    11    12    1
   12    11    13    1
   13    11    14    1
   14    14    15    1
   15    14    16    1
   16    14    17    1
   17    17    18    1
   18    17    19    1
   19    17    20    1
   20    20    21    1
   21    20    22    1
   22    20    23    1
@<TRIPOS>SUBSTRUCTURE
       1 MOL1            1 RESIDUE      1      MOL     
@<SCITEGIC>MOL_PROPERTY
VM2 Rank
SciTegic.value.IntegerValue
21

@<SCITEGIC>MOL_PROPERTY
Conf_Id
SciTegic.value.IntegerValue
1137

@<SCITEGIC>MOL_PROPERTY
Probability
SciTegic.value.DoubleValue
1.86

@<SCITEGIC>MOL_PROPERTY
Sum Probability
SciTegic.value.DoubleValue
79.69

@<SCITEGIC>MOL_PROPERTY
Delta G
SciTegic.value.DoubleValue
1.110

@<SCITEGIC>MOL_PROPERTY
G
SciTegic.value.DoubleValue
39.026

@<SCITEGIC>MOL_PROPERTY
E
SciTegic.value.DoubleValue
11.289

@<SCITEGIC>MOL_PROPERTY
-TS
SciTegic.value.DoubleValue
27.737

@<SCITEGIC>MOL_PROPERTY
U+W
SciTegic.value.DoubleValue
-7.490

@<SCITEGIC>MOL_PROPERTY
U
SciTegic.value.DoubleValue
47.960

@<SCITEGIC>MOL_PROPERTY
W
SciTegic.value.DoubleValue
-55.450

@<SCITEGIC>MOL_PROPERTY
W(PB)
SciTegic.value.DoubleValue
-57.583

@<SCITEGIC>MOL_PROPERTY
W(SA)
SciTegic.value.DoubleValue
2.133

@<SCITEGIC>MOL_PROPERTY
Valence
SciTegic.value.DoubleValue
2.523

@<SCITEGIC>MOL_PROPERTY
Coulomb
SciTegic.value.DoubleValue
44.824

@<SCITEGIC>MOL_PROPERTY
VdW
SciTegic.value.DoubleValue
0.613

@<SCITEGIC>MOL_PROPERTY
VdW6
SciTegic.value.DoubleValue
-5.844

@<SCITEGIC>MOL_PROPERTY
VdW12
SciTegic.value.DoubleValue
6.458

@<SCITEGIC>MOL_PROPERTY
Bond
SciTegic.value.DoubleValue
0.171

@<SCITEGIC>MOL_PROPERTY
Angle
SciTegic.value.DoubleValue
0.728

@<SCITEGIC>MOL_PROPERTY
Pdih
SciTegic.value.DoubleValue
1.624

@<SCITEGIC>MOL_PROPERTY
Idih
SciTegic.value.DoubleValue
0.000

@<SCITEGIC>MOL_PROPERTY
Tether
SciTegic.value.DoubleValue
0.000

@<TRIPOS>MOLECULE
guest-2_vm2.mol2 : vm2 ligand conformer 22
          23          22           1
SMALL
USER_CHARGES
 
@<TRIPOS>ATOM
       1    N1      19.935452   19.008868   26.181601 N.4        1 MOL1        -0.5940
       2    H1      20.165261   19.803253   26.788370 H          1 MOL1         0.3649
       3    H2      20.703911   18.335933   26.267981 H          1 MOL1         0.3649
       4    H3      19.100060   18.564785   26.576254 H          1 MOL1         0.3649
       5    C1      19.721001   19.441016   24.745273 C.3        1 MOL1         0.0207
       6    H4      20.636133   19.930759   24.402924 H          1 MOL1         0.0950
       7    H5      18.911287   20.175574   24.731151 H          1 MOL1         0.0950
       8    C2      19.373432   18.268824   23.808102 C.3        1 MOL1        -0.1415
       9    H6      20.186879   17.531180   23.821096 H          1 MOL1         0.0976
      10    H7      18.480034   17.757896   24.191169 H          1 MOL1         0.0976
      11    C3      19.105747   18.722206   22.353316 C.3        1 MOL1        -0.1375
      12    H8      18.285043   19.452753   22.342426 H          1 MOL1         0.0976
      13    H9      18.756236   17.852711   21.781671 H          1 MOL1         0.0976
      14    C4      20.355547   19.328364   21.665457 C.3        1 MOL1        -0.1375
      15    H10     20.719062   20.182971   22.251128 H          1 MOL1         0.0976
      16    H11     21.169237   18.590071   21.658301 H          1 MOL1         0.0976
      17    C5      20.088040   19.814947   20.220395 C.3        1 MOL1        -0.1350
      18    H12     20.984703   20.332768   19.851983 H          1 MOL1         0.0976
      19    H13     19.281713   20.561694   20.222683 H          1 MOL1         0.0976
      20    C6      19.736782   18.672774   19.239857 C.3        1 MOL1        -0.2365
      21    H14     20.512665   17.896241   19.243663 H          1 MOL1         0.0987
      22    H15     19.653561   19.058440   18.215511 H          1 MOL1         0.0987
      23    H16     18.778320   18.203226   19.493091 H          1 MOL1         0.0987
@<TRIPOS>BOND
    1     1     2    1
    2     1     3    1
    3     1     4    1
    4     1     5    1
    5     5     6    1
    6     5     7    1
    7     5     8    1
    8     8     9    1
    9     8    10    1
   10     8    11    1
   11    11    12    1
   12    11    13    1
   13    11    14    1
   14    14    15    1
   15    14    16    1
   16    14    17    1
   17    17    18    1
   18    17    19    1
   19    17    20    1
   20    20    21    1
   21    20    22    1
   22    20    23    1
@<TRIPOS>SUBSTRUCTURE
       1 MOL1            1 RESIDUE      1      MOL     
@<SCITEGIC>MOL_PROPERTY
VM2 Rank
SciTegic.value.IntegerValue
22

@<SCITEGIC>MOL_PROPERTY
Conf_Id
SciTegic.value.IntegerValue
139

@<SCITEGIC>MOL_PROPERTY
Probability
SciTegic.value.DoubleValue
1.72

@<SCITEGIC>MOL_PROPERTY
Sum Probability
SciTegic.value.DoubleValue
81.42

@<SCITEGIC>MOL_PROPERTY
Delta G
SciTegic.value.DoubleValue
1.156

@<SCITEGIC>MOL_PROPERTY
G
SciTegic.value.DoubleValue
39.072

@<SCITEGIC>MOL_PROPERTY
E
SciTegic.value.DoubleValue
11.368

@<SCITEGIC>MOL_PROPERTY
-TS
SciTegic.value.DoubleValue
27.705

@<SCITEGIC>MOL_PROPERTY
U+W
SciTegic.value.DoubleValue
-7.412

@<SCITEGIC>MOL_PROPERTY
U
SciTegic.value.DoubleValue
48.047

@<SCITEGIC>MOL_PROPERTY
W
SciTegic.value.DoubleValue
-55.459

@<SCITEGIC>MOL_PROPERTY
W(PB)
SciTegic.value.DoubleValue
-57.597

@<SCITEGIC>MOL_PROPERTY
W(SA)
SciTegic.value.DoubleValue
2.138

@<SCITEGIC>MOL_PROPERTY
Valence
SciTegic.value.DoubleValue
2.583

@<SCITEGIC>MOL_PROPERTY
Coulomb
SciTegic.value.DoubleValue
44.791

@<SCITEGIC>MOL_PROPERTY
VdW
SciTegic.value.DoubleValue
0.673

@<SCITEGIC>MOL_PROPERTY
VdW6
SciTegic.value.DoubleValue
-5.789

@<SCITEGIC>MOL_PROPERTY
VdW12
SciTegic.value.DoubleValue
6.462

@<SCITEGIC>MOL_PROPERTY
Bond
SciTegic.value.DoubleValue
0.177

@<SCITEGIC>MOL_PROPERTY
Angle
SciTegic.value.DoubleValue
0.787

@<SCITEGIC>MOL_PROPERTY
Pdih
SciTegic.value.DoubleValue
1.619

@<SCITEGIC>MOL_PROPERTY
Idih
SciTegic.value.DoubleValue
0.000

@<SCITEGIC>MOL_PROPERTY
Tether
SciTegic.value.DoubleValue
0.000

@<TRIPOS>MOLECULE
guest-2_vm2.mol2 : vm2 ligand conformer 23
          23          22           1
SMALL
USER_CHARGES
 
@<TRIPOS>ATOM
       1    N1      19.932640   17.950972   25.592945 N.4        1 MOL1        -0.5940
       2    H1      19.393439   17.129435   25.301340 H          1 MOL1         0.3649
       3    H2      19.398000   18.415005   26.334325 H          1 MOL1         0.3649
       4    H3      20.796944   17.603454   26.022115 H          1 MOL1         0.3649
       5    C1      20.215760   18.883055   24.432452 C.3        1 MOL1         0.0207
       6    H4      20.810910   18.333787   23.698222 H          1 MOL1         0.0950
       7    H5      20.815136   19.717108   24.807251 H          1 MOL1         0.0950
       8    C2      18.936820   19.422864   23.765344 C.3        1 MOL1        -0.1415
       9    H6      18.329133   18.585949   23.398414 H          1 MOL1         0.0976
      10    H7      18.327492   19.936417   24.520870 H          1 MOL1         0.0976
      11    C3      19.234502   20.410277   22.609350 C.3        1 MOL1        -0.1375
      12    H8      19.723931   21.303294   23.022209 H          1 MOL1         0.0976
      13    H9      18.283177   20.757672   22.183238 H          1 MOL1         0.0976
      14    C4      20.121375   19.838212   21.473046 C.3        1 MOL1        -0.1375
      15    H10     20.284649   20.630854   20.729794 H          1 MOL1         0.0976
      16    H11     21.115218   19.582295   21.864180 H          1 MOL1         0.0976
      17    C5      19.505909   18.607018   20.767020 C.3        1 MOL1        -0.1350
      18    H12     18.494271   18.849605   20.412805 H          1 MOL1         0.0976
      19    H13     19.404418   17.774917   21.476434 H          1 MOL1         0.0976
      20    C6      20.368994   18.144602   19.573843 C.3        1 MOL1        -0.2365
      21    H14     19.919796   17.269440   19.086675 H          1 MOL1         0.0987
      22    H15     21.378953   17.866148   19.901955 H          1 MOL1         0.0987
      23    H16     20.460700   18.938540   18.821210 H          1 MOL1         0.0987
@<TRIPOS>BOND
    1     1     2    1
    2     1     3    1
    3     1     4    1
    4     1     5    1
    5     5     6    1
    6     5     7    1
    7     5     8    1
    8     8     9    1
    9     8    10    1
   10     8    11    1
   11    11    12    1
   12    11    13    1
   13    11    14    1
   14    14    15    1
   15    14    16    1
   16    14    17    1
   17    17    18    1
   18    17    19    1
   19    17    20    1
   20    20    21    1
   21    20    22    1
   22    20    23    1
@<TRIPOS>SUBSTRUCTURE
       1 MOL1            1 RESIDUE      1      MOL     
@<SCITEGIC>MOL_PROPERTY
VM2 Rank
SciTegic.value.IntegerValue
23

@<SCITEGIC>MOL_PROPERTY
Conf_Id
SciTegic.value.IntegerValue
750

@<SCITEGIC>MOL_PROPERTY
Probability
SciTegic.value.DoubleValue
1.72

@<SCITEGIC>MOL_PROPERTY
Sum Probability
SciTegic.value.DoubleValue
83.13

@<SCITEGIC>MOL_PROPERTY
Delta G
SciTegic.value.DoubleValue
1.158

@<SCITEGIC>MOL_PROPERTY
G
SciTegic.value.DoubleValue
39.074

@<SCITEGIC>MOL_PROPERTY
E
SciTegic.value.DoubleValue
11.222

@<SCITEGIC>MOL_PROPERTY
-TS
SciTegic.value.DoubleValue
27.852

@<SCITEGIC>MOL_PROPERTY
U+W
SciTegic.value.DoubleValue
-7.557

@<SCITEGIC>MOL_PROPERTY
U
SciTegic.value.DoubleValue
48.231

@<SCITEGIC>MOL_PROPERTY
W
SciTegic.value.DoubleValue
-55.788

@<SCITEGIC>MOL_PROPERTY
W(PB)
SciTegic.value.DoubleValue
-57.904

@<SCITEGIC>MOL_PROPERTY
W(SA)
SciTegic.value.DoubleValue
2.116

@<SCITEGIC>MOL_PROPERTY
Valence
SciTegic.value.DoubleValue
2.496

@<SCITEGIC>MOL_PROPERTY
Coulomb
SciTegic.value.DoubleValue
45.257

@<SCITEGIC>MOL_PROPERTY
VdW
SciTegic.value.DoubleValue
0.478

@<SCITEGIC>MOL_PROPERTY
VdW6
SciTegic.value.DoubleValue
-6.161

@<SCITEGIC>MOL_PROPERTY
VdW12
SciTegic.value.DoubleValue
6.639

@<SCITEGIC>MOL_PROPERTY
Bond
SciTegic.value.DoubleValue
0.180

@<SCITEGIC>MOL_PROPERTY
Angle
SciTegic.value.DoubleValue
0.891

@<SCITEGIC>MOL_PROPERTY
Pdih
SciTegic.value.DoubleValue
1.425

@<SCITEGIC>MOL_PROPERTY
Idih
SciTegic.value.DoubleValue
0.000

@<SCITEGIC>MOL_PROPERTY
Tether
SciTegic.value.DoubleValue
0.000

@<TRIPOS>MOLECULE
guest-2_vm2.mol2 : vm2 ligand conformer 24
          23          22           1
SMALL
USER_CHARGES
 
@<TRIPOS>ATOM
       1    N1      20.174553   18.051610   25.603942 N.4        1 MOL1        -0.5940
       2    H1      21.157387   17.863437   25.381857 H          1 MOL1         0.3649
       3    H2      19.780747   17.180551   25.975631 H          1 MOL1         0.3649
       4    H3      20.163508   18.733513   26.369250 H          1 MOL1         0.3649
       5    C1      19.406018   18.546093   24.395422 C.3        1 MOL1         0.0207
       6    H4      18.365645   18.697867   24.695353 H          1 MOL1         0.0950
       7    H5      19.434323   17.760957   23.635320 H          1 MOL1         0.0950
       8    C2      19.973193   19.854038   23.812580 C.3        1 MOL1        -0.1415
       9    H6      19.978598   20.623307   24.596183 H          1 MOL1         0.0976
      10    H7      21.020775   19.705831   23.521109 H          1 MOL1         0.0976
      11    C3      19.154803   20.377178   22.605730 C.3        1 MOL1        -0.1375
      12    H8      19.609642   21.309568   22.243728 H          1 MOL1         0.0976
      13    H9      18.146965   20.647303   22.950357 H          1 MOL1         0.0976
      14    C4      19.025455   19.382379   21.423092 C.3        1 MOL1        -0.1375
      15    H10     18.478638   18.485593   21.743984 H          1 MOL1         0.0976
      16    H11     18.407357   19.849981   20.644203 H          1 MOL1         0.0976
      17    C5      20.383932   18.972280   20.807084 C.3        1 MOL1        -0.1350
      18    H12     20.989253   18.434254   21.548753 H          1 MOL1         0.0976
      19    H13     20.949782   19.871064   20.524720 H          1 MOL1         0.0976
      20    C6      20.198047   18.073421   19.566151 C.3        1 MOL1        -0.2365
      21    H14     19.660749   17.151388   19.823788 H          1 MOL1         0.0987
      22    H15     21.170763   17.789685   19.143850 H          1 MOL1         0.0987
      23    H16     19.630010   18.592861   18.783387 H          1 MOL1         0.0987
@<TRIPOS>BOND
    1     1     2    1
    2     1     3    1
    3     1     4    1
    4     1     5    1
    5     5     6    1
    6     5     7    1
    7     5     8    1
    8     8     9    1
    9     8    10    1
   10     8    11    1
   11    11    12    1
   12    11    13    1
   13    11    14    1
   14    14    15    1
   15    14    16    1
   16    14    17    1
   17    17    18    1
   18    17    19    1
   19    17    20    1
   20    20    21    1
   21    20    22    1
   22    20    23    1
@<TRIPOS>SUBSTRUCTURE
       1 MOL1            1 RESIDUE      1      MOL     
@<SCITEGIC>MOL_PROPERTY
VM2 Rank
SciTegic.value.IntegerValue
24

@<SCITEGIC>MOL_PROPERTY
Conf_Id
SciTegic.value.IntegerValue
716

@<SCITEGIC>MOL_PROPERTY
Probability
SciTegic.value.DoubleValue
1.66

@<SCITEGIC>MOL_PROPERTY
Sum Probability
SciTegic.value.DoubleValue
84.79

@<SCITEGIC>MOL_PROPERTY
Delta G
SciTegic.value.DoubleValue
1.179

@<SCITEGIC>MOL_PROPERTY
G
SciTegic.value.DoubleValue
39.095

@<SCITEGIC>MOL_PROPERTY
E
SciTegic.value.DoubleValue
11.243

@<SCITEGIC>MOL_PROPERTY
-TS
SciTegic.value.DoubleValue
27.852

@<SCITEGIC>MOL_PROPERTY
U+W
SciTegic.value.DoubleValue
-7.536

@<SCITEGIC>MOL_PROPERTY
U
SciTegic.value.DoubleValue
48.231

@<SCITEGIC>MOL_PROPERTY
W
SciTegic.value.DoubleValue
-55.766

@<SCITEGIC>MOL_PROPERTY
W(PB)
SciTegic.value.DoubleValue
-57.888

@<SCITEGIC>MOL_PROPERTY
W(SA)
SciTegic.value.DoubleValue
2.121

@<SCITEGIC>MOL_PROPERTY
Valence
SciTegic.value.DoubleValue
2.496

@<SCITEGIC>MOL_PROPERTY
Coulomb
SciTegic.value.DoubleValue
45.257

@<SCITEGIC>MOL_PROPERTY
VdW
SciTegic.value.DoubleValue
0.479

@<SCITEGIC>MOL_PROPERTY
VdW6
SciTegic.value.DoubleValue
-6.161

@<SCITEGIC>MOL_PROPERTY
VdW12
SciTegic.value.DoubleValue
6.640

@<SCITEGIC>MOL_PROPERTY
Bond
SciTegic.value.DoubleValue
0.180

@<SCITEGIC>MOL_PROPERTY
Angle
SciTegic.value.DoubleValue
0.891

@<SCITEGIC>MOL_PROPERTY
Pdih
SciTegic.value.DoubleValue
1.425

@<SCITEGIC>MOL_PROPERTY
Idih
SciTegic.value.DoubleValue
0.000

@<SCITEGIC>MOL_PROPERTY
Tether
SciTegic.value.DoubleValue
0.000

@<TRIPOS>MOLECULE
guest-2_vm2.mol2 : vm2 ligand conformer 25
          23          22           1
SMALL
USER_CHARGES
 
@<TRIPOS>ATOM
       1    N1      19.377985   18.777007   26.156215 N.4        1 MOL1        -0.5940
       2    H1      18.607145   19.155095   26.717358 H          1 MOL1         0.3649
       3    H2      20.248150   19.042597   26.628563 H          1 MOL1         0.3649
       4    H3      19.308445   17.755407   26.204492 H          1 MOL1         0.3649
       5    C1      19.333888   19.279917   24.727608 C.3        1 MOL1         0.0207
       6    H4      19.383253   20.371865   24.752538 H          1 MOL1         0.0950
       7    H5      18.371330   18.988478   24.299745 H          1 MOL1         0.0950
       8    C2      20.480449   18.729240   23.858541 C.3        1 MOL1        -0.1415
       9    H6      21.439591   18.988872   24.326072 H          1 MOL1         0.0976
      10    H7      20.430621   17.632516   23.832158 H          1 MOL1         0.0976
      11    C3      20.460280   19.285602   22.415049 C.3        1 MOL1        -0.1375
      12    H8      21.365476   18.937914   21.900567 H          1 MOL1         0.0976
      13    H9      20.520225   20.382380   22.444316 H          1 MOL1         0.0976
      14    C4      19.207075   18.850874   21.613135 C.3        1 MOL1        -0.1375
      15    H10     19.158870   17.754176   21.566771 H          1 MOL1         0.0976
      16    H11     18.301511   19.177799   22.140943 H          1 MOL1         0.0976
      17    C5      19.162598   19.430093   20.178194 C.3        1 MOL1        -0.1350
      18    H12     19.200021   20.527702   20.218851 H          1 MOL1         0.0976
      19    H13     18.195081   19.172691   19.724841 H          1 MOL1         0.0976
      20    C6      20.293725   18.904266   19.265258 C.3        1 MOL1        -0.2365
      21    H14     20.298283   17.806990   19.234005 H          1 MOL1         0.0987
      22    H15     21.279401   19.243178   19.607068 H          1 MOL1         0.0987
      23    H16     20.158649   19.268280   18.238518 H          1 MOL1         0.0987
@<TRIPOS>BOND
    1     1     2    1
    2     1     3    1
    3     1     4    1
    4     1     5    1
    5     5     6    1
    6     5     7    1
    7     5     8    1
    8     8     9    1
    9     8    10    1
   10     8    11    1
   11    11    12    1
   12    11    13    1
   13    11    14    1
   14    14    15    1
   15    14    16    1
   16    14    17    1
   17    17    18    1
   18    17    19    1
   19    17    20    1
   20    20    21    1
   21    20    22    1
   22    20    23    1
@<TRIPOS>SUBSTRUCTURE
       1 MOL1            1 RESIDUE      1      MOL     
@<SCITEGIC>MOL_PROPERTY
VM2 Rank
SciTegic.value.IntegerValue
25

@<SCITEGIC>MOL_PROPERTY
Conf_Id
SciTegic.value.IntegerValue
188

@<SCITEGIC>MOL_PROPERTY
Probability
SciTegic.value.DoubleValue
1.63

@<SCITEGIC>MOL_PROPERTY
Sum Probability
SciTegic.value.DoubleValue
86.43

@<SCITEGIC>MOL_PROPERTY
Delta G
SciTegic.value.DoubleValue
1.188

@<SCITEGIC>MOL_PROPERTY
G
SciTegic.value.DoubleValue
39.104

@<SCITEGIC>MOL_PROPERTY
E
SciTegic.value.DoubleValue
11.399

@<SCITEGIC>MOL_PROPERTY
-TS
SciTegic.value.DoubleValue
27.705

@<SCITEGIC>MOL_PROPERTY
U+W
SciTegic.value.DoubleValue
-7.380

@<SCITEGIC>MOL_PROPERTY
U
SciTegic.value.DoubleValue
48.047

@<SCITEGIC>MOL_PROPERTY
W
SciTegic.value.DoubleValue
-55.426

@<SCITEGIC>MOL_PROPERTY
W(PB)
SciTegic.value.DoubleValue
-57.542

@<SCITEGIC>MOL_PROPERTY
W(SA)
SciTegic.value.DoubleValue
2.116

@<SCITEGIC>MOL_PROPERTY
Valence
SciTegic.value.DoubleValue
2.583

@<SCITEGIC>MOL_PROPERTY
Coulomb
SciTegic.value.DoubleValue
44.791

@<SCITEGIC>MOL_PROPERTY
VdW
SciTegic.value.DoubleValue
0.673

@<SCITEGIC>MOL_PROPERTY
VdW6
SciTegic.value.DoubleValue
-5.789

@<SCITEGIC>MOL_PROPERTY
VdW12
SciTegic.value.DoubleValue
6.462

@<SCITEGIC>MOL_PROPERTY
Bond
SciTegic.value.DoubleValue
0.177

@<SCITEGIC>MOL_PROPERTY
Angle
SciTegic.value.DoubleValue
0.787

@<SCITEGIC>MOL_PROPERTY
Pdih
SciTegic.value.DoubleValue
1.619

@<SCITEGIC>MOL_PROPERTY
Idih
SciTegic.value.DoubleValue
0.000

@<SCITEGIC>MOL_PROPERTY
Tether
SciTegic.value.DoubleValue
0.000

@<TRIPOS>MOLECULE
guest-2_vm2.mol2 : vm2 ligand conformer 26
          23          22           1
SMALL
USER_CHARGES
 
@<TRIPOS>ATOM
       1    N1      20.052250   18.228179   25.896209 N.4        1 MOL1        -0.5940
       2    H1      19.117258   17.849755   26.079029 H          1 MOL1         0.3649
       3    H2      20.419384   18.561653   26.794017 H          1 MOL1         0.3649
       4    H3      20.643971   17.443202   25.605585 H          1 MOL1         0.3649
       5    C1      20.022858   19.329837   24.856299 C.3        1 MOL1         0.0207
       6    H4      21.042368   19.705264   24.733302 H          1 MOL1         0.0950
       7    H5      19.401720   20.142300   25.243029 H          1 MOL1         0.0950
       8    C2      19.475755   18.861987   23.496116 C.3        1 MOL1        -0.1415
       9    H6      20.095829   18.035430   23.126657 H          1 MOL1         0.0976
      10    H7      18.457911   18.471152   23.626645 H          1 MOL1         0.0976
      11    C3      19.462230   20.016545   22.467003 C.3        1 MOL1        -0.1375
      12    H8      20.485140   20.381926   22.305212 H          1 MOL1         0.0976
      13    H9      18.902967   20.863330   22.888585 H          1 MOL1         0.0976
      14    C4      18.816301   19.631861   21.110663 C.3        1 MOL1        -0.1375
      15    H10     17.760746   19.376471   21.277398 H          1 MOL1         0.0976
      16    H11     18.811536   20.516711   20.459329 H          1 MOL1         0.0976
      17    C5      19.500303   18.461140   20.359315 C.3        1 MOL1        -0.1350
      18    H12     18.955924   18.282427   19.421523 H          1 MOL1         0.0976
      19    H13     19.410131   17.532996   20.939393 H          1 MOL1         0.0976
      20    C6      20.986304   18.727450   20.028395 C.3        1 MOL1        -0.2365
      21    H14     21.594961   18.796019   20.938601 H          1 MOL1         0.0987
      22    H15     21.103608   19.661846   19.464391 H          1 MOL1         0.0987
      23    H16     21.396250   17.912716   19.417647 H          1 MOL1         0.0987
@<TRIPOS>BOND
    1     1     2    1
    2     1     3    1
    3     1     4    1
    4     1     5    1
    5     5     6    1
    6     5     7    1
    7     5     8    1
    8     8     9    1
    9     8    10    1
   10     8    11    1
   11    11    12    1
   12    11    13    1
   13    11    14    1
   14    14    15    1
   15    14    16    1
   16    14    17    1
   17    17    18    1
   18    17    19    1
   19    17    20    1
   20    20    21    1
   21    20    22    1
   22    20    23    1
@<TRIPOS>SUBSTRUCTURE
       1 MOL1            1 RESIDUE      1      MOL     
@<SCITEGIC>MOL_PROPERTY
VM2 Rank
SciTegic.value.IntegerValue
26

@<SCITEGIC>MOL_PROPERTY
Conf_Id
SciTegic.value.IntegerValue
518

@<SCITEGIC>MOL_PROPERTY
Probability
SciTegic.value.DoubleValue
1.50

@<SCITEGIC>MOL_PROPERTY
Sum Probability
SciTegic.value.DoubleValue
87.92

@<SCITEGIC>MOL_PROPERTY
Delta G
SciTegic.value.DoubleValue
1.241

@<SCITEGIC>MOL_PROPERTY
G
SciTegic.value.DoubleValue
39.157

@<SCITEGIC>MOL_PROPERTY
E
SciTegic.value.DoubleValue
11.211

@<SCITEGIC>MOL_PROPERTY
-TS
SciTegic.value.DoubleValue
27.946

@<SCITEGIC>MOL_PROPERTY
U+W
SciTegic.value.DoubleValue
-7.568

@<SCITEGIC>MOL_PROPERTY
U
SciTegic.value.DoubleValue
48.054

@<SCITEGIC>MOL_PROPERTY
W
SciTegic.value.DoubleValue
-55.621

@<SCITEGIC>MOL_PROPERTY
W(PB)
SciTegic.value.DoubleValue
-57.725

@<SCITEGIC>MOL_PROPERTY
W(SA)
SciTegic.value.DoubleValue
2.103

@<SCITEGIC>MOL_PROPERTY
Valence
SciTegic.value.DoubleValue
2.692

@<SCITEGIC>MOL_PROPERTY
Coulomb
SciTegic.value.DoubleValue
44.814

@<SCITEGIC>MOL_PROPERTY
VdW
SciTegic.value.DoubleValue
0.547

@<SCITEGIC>MOL_PROPERTY
VdW6
SciTegic.value.DoubleValue
-6.176

@<SCITEGIC>MOL_PROPERTY
VdW12
SciTegic.value.DoubleValue
6.723

@<SCITEGIC>MOL_PROPERTY
Bond
SciTegic.value.DoubleValue
0.192

@<SCITEGIC>MOL_PROPERTY
Angle
SciTegic.value.DoubleValue
1.036

@<SCITEGIC>MOL_PROPERTY
Pdih
SciTegic.value.DoubleValue
1.465

@<SCITEGIC>MOL_PROPERTY
Idih
SciTegic.value.DoubleValue
0.000

@<SCITEGIC>MOL_PROPERTY
Tether
SciTegic.value.DoubleValue
0.000

@<TRIPOS>MOLECULE
guest-2_vm2.mol2 : vm2 ligand conformer 27
          23          22           1
SMALL
USER_CHARGES
 
@<TRIPOS>ATOM
       1    N1      19.870945   18.152664   25.887860 N.4        1 MOL1        -0.5940
       2    H1      19.307529   18.098924   26.743268 H          1 MOL1         0.3649
       3    H2      20.780972   18.541834   26.154762 H          1 MOL1         0.3649
       4    H3      20.033974   17.189352   25.577639 H          1 MOL1         0.3649
       5    C1      19.192161   18.984212   24.818419 C.3        1 MOL1         0.0207
       6    H4      19.022864   19.984639   25.225790 H          1 MOL1         0.0950
       7    H5      18.220300   18.531142   24.604671 H          1 MOL1         0.0950
       8    C2      20.012895   19.085512   23.520562 C.3        1 MOL1        -0.1415
       9    H6      20.993892   19.526341   23.742172 H          1 MOL1         0.0976
      10    H7      20.191626   18.075330   23.130978 H          1 MOL1         0.0976
      11    C3      19.284650   19.942713   22.458902 C.3        1 MOL1        -0.1375
      12    H8      19.044882   20.922425   22.895051 H          1 MOL1         0.0976
      13    H9      18.320540   19.481358   22.206572 H          1 MOL1         0.0976
      14    C4      20.115562   20.172505   21.169856 C.3        1 MOL1        -0.1375
      15    H10     19.542834   20.821003   20.492619 H          1 MOL1         0.0976
      16    H11     21.024284   20.734457   21.426086 H          1 MOL1         0.0976
      17    C5      20.522804   18.886597   20.405941 C.3        1 MOL1        -0.1350
      18    H12     21.198382   18.277110   21.020916 H          1 MOL1         0.0976
      19    H13     21.104095   19.176257   19.519410 H          1 MOL1         0.0976
      20    C6      19.316983   18.032796   19.952459 C.3        1 MOL1        -0.2365
      21    H14     18.770755   17.620785   20.810086 H          1 MOL1         0.0987
      22    H15     19.653550   17.187536   19.338361 H          1 MOL1         0.0987
      23    H16     18.616662   18.626974   19.351246 H          1 MOL1         0.0987
@<TRIPOS>BOND
    1     1     2    1
    2     1     3    1
    3     1     4    1
    4     1     5    1
    5     5     6    1
    6     5     7    1
    7     5     8    1
    8     8     9    1
    9     8    10    1
   10     8    11    1
   11    11    12    1
   12    11    13    1
   13    11    14    1
   14    14    15    1
   15    14    16    1
   16    14    17    1
   17    17    18    1
   18    17    19    1
   19    17    20    1
   20    20    21    1
   21    20    22    1
   22    20    23    1
@<TRIPOS>SUBSTRUCTURE
       1 MOL1            1 RESIDUE      1      MOL     
@<SCITEGIC>MOL_PROPERTY
VM2 Rank
SciTegic.value.IntegerValue
27

@<SCITEGIC>MOL_PROPERTY
Conf_Id
SciTegic.value.IntegerValue
834

@<SCITEGIC>MOL_PROPERTY
Probability
SciTegic.value.DoubleValue
1.29

@<SCITEGIC>MOL_PROPERTY
Sum Probability
SciTegic.value.DoubleValue
89.21

@<SCITEGIC>MOL_PROPERTY
Delta G
SciTegic.value.DoubleValue
1.328

@<SCITEGIC>MOL_PROPERTY
G
SciTegic.value.DoubleValue
39.244

@<SCITEGIC>MOL_PROPERTY
E
SciTegic.value.DoubleValue
11.299

@<SCITEGIC>MOL_PROPERTY
-TS
SciTegic.value.DoubleValue
27.945

@<SCITEGIC>MOL_PROPERTY
U+W
SciTegic.value.DoubleValue
-7.481

@<SCITEGIC>MOL_PROPERTY
U
SciTegic.value.DoubleValue
48.054

@<SCITEGIC>MOL_PROPERTY
W
SciTegic.value.DoubleValue
-55.534

@<SCITEGIC>MOL_PROPERTY
W(PB)
SciTegic.value.DoubleValue
-57.639

@<SCITEGIC>MOL_PROPERTY
W(SA)
SciTegic.value.DoubleValue
2.105

@<SCITEGIC>MOL_PROPERTY
Valence
SciTegic.value.DoubleValue
2.692

@<SCITEGIC>MOL_PROPERTY
Coulomb
SciTegic.value.DoubleValue
44.814

@<SCITEGIC>MOL_PROPERTY
VdW
SciTegic.value.DoubleValue
0.547

@<SCITEGIC>MOL_PROPERTY
VdW6
SciTegic.value.DoubleValue
-6.176

@<SCITEGIC>MOL_PROPERTY
VdW12
SciTegic.value.DoubleValue
6.724

@<SCITEGIC>MOL_PROPERTY
Bond
SciTegic.value.DoubleValue
0.192

@<SCITEGIC>MOL_PROPERTY
Angle
SciTegic.value.DoubleValue
1.036

@<SCITEGIC>MOL_PROPERTY
Pdih
SciTegic.value.DoubleValue
1.465

@<SCITEGIC>MOL_PROPERTY
Idih
SciTegic.value.DoubleValue
0.000

@<SCITEGIC>MOL_PROPERTY
Tether
SciTegic.value.DoubleValue
0.000

@<TRIPOS>MOLECULE
guest-2_vm2.mol2 : vm2 ligand conformer 28
          23          22           1
SMALL
USER_CHARGES
 
@<TRIPOS>ATOM
       1    N1      19.877260   18.689420   25.795808 N.4        1 MOL1        -0.5940
       2    H1      18.939685   18.322566   25.988188 H          1 MOL1         0.3649
       3    H2      20.273621   18.982936   26.695076 H          1 MOL1         0.3649
       4    H3      20.445847   17.906374   25.459687 H          1 MOL1         0.3649
       5    C1      19.842330   19.830015   24.797194 C.3        1 MOL1         0.0207
       6    H4      20.865261   20.188952   24.655111 H          1 MOL1         0.0950
       7    H5      19.256122   20.639529   25.240609 H          1 MOL1         0.0950
       8    C2      19.233027   19.446794   23.434535 C.3        1 MOL1        -0.1415
       9    H6      18.212638   19.069024   23.582078 H          1 MOL1         0.0976
      10    H7      19.146656   20.360826   22.833846 H          1 MOL1         0.0976
      11    C3      20.083049   18.399058   22.672881 C.3        1 MOL1        -0.1375
      12    H8      20.201505   17.503025   23.296173 H          1 MOL1         0.0976
      13    H9      21.096308   18.790276   22.511241 H          1 MOL1         0.0976
      14    C4      19.462505   17.962220   21.320336 C.3        1 MOL1        -0.1375
      15    H10     20.102577   17.189028   20.873461 H          1 MOL1         0.0976
      16    H11     18.495333   17.477129   21.511312 H          1 MOL1         0.0976
      17    C5      19.255566   19.097923   20.285644 C.3        1 MOL1        -0.1350
      18    H12     18.518034   19.821619   20.657469 H          1 MOL1         0.0976
      19    H13     18.817372   18.665187   19.375445 H          1 MOL1         0.0976
      20    C6      20.562264   19.831570   19.907601 C.3        1 MOL1        -0.2365
      21    H14     20.976572   20.380997   20.762072 H          1 MOL1         0.0987
      22    H15     20.377156   20.558362   19.106123 H          1 MOL1         0.0987
      23    H16     21.322663   19.124712   19.551096 H          1 MOL1         0.0987
@<TRIPOS>BOND
    1     1     2    1
    2     1     3    1
    3     1     4    1
    4     1     5    1
    5     5     6    1
    6     5     7    1
    7     5     8    1
    8     8     9    1
    9     8    10    1
   10     8    11    1
   11    11    12    1
   12    11    13    1
   13    11    14    1
   14    14    15    1
   15    14    16    1
   16    14    17    1
   17    17    18    1
   18    17    19    1
   19    17    20    1
   20    20    21    1
   21    20    22    1
   22    20    23    1
@<TRIPOS>SUBSTRUCTURE
       1 MOL1            1 RESIDUE      1      MOL     
@<SCITEGIC>MOL_PROPERTY
VM2 Rank
SciTegic.value.IntegerValue
28

@<SCITEGIC>MOL_PROPERTY
Conf_Id
SciTegic.value.IntegerValue
571

@<SCITEGIC>MOL_PROPERTY
Probability
SciTegic.value.DoubleValue
0.88

@<SCITEGIC>MOL_PROPERTY
Sum Probability
SciTegic.value.DoubleValue
90.09

@<SCITEGIC>MOL_PROPERTY
Delta G
SciTegic.value.DoubleValue
1.560

@<SCITEGIC>MOL_PROPERTY
G
SciTegic.value.DoubleValue
39.476

@<SCITEGIC>MOL_PROPERTY
E
SciTegic.value.DoubleValue
11.437

@<SCITEGIC>MOL_PROPERTY
-TS
SciTegic.value.DoubleValue
28.039

@<SCITEGIC>MOL_PROPERTY
U+W
SciTegic.value.DoubleValue
-7.342

@<SCITEGIC>MOL_PROPERTY
U
SciTegic.value.DoubleValue
48.503

@<SCITEGIC>MOL_PROPERTY
W
SciTegic.value.DoubleValue
-55.844

@<SCITEGIC>MOL_PROPERTY
W(PB)
SciTegic.value.DoubleValue
-57.926

@<SCITEGIC>MOL_PROPERTY
W(SA)
SciTegic.value.DoubleValue
2.081

@<SCITEGIC>MOL_PROPERTY
Valence
SciTegic.value.DoubleValue
2.824

@<SCITEGIC>MOL_PROPERTY
Coulomb
SciTegic.value.DoubleValue
44.990

@<SCITEGIC>MOL_PROPERTY
VdW
SciTegic.value.DoubleValue
0.689

@<SCITEGIC>MOL_PROPERTY
VdW6
SciTegic.value.DoubleValue
-6.667

@<SCITEGIC>MOL_PROPERTY
VdW12
SciTegic.value.DoubleValue
7.356

@<SCITEGIC>MOL_PROPERTY
Bond
SciTegic.value.DoubleValue
0.219

@<SCITEGIC>MOL_PROPERTY
Angle
SciTegic.value.DoubleValue
1.118

@<SCITEGIC>MOL_PROPERTY
Pdih
SciTegic.value.DoubleValue
1.487

@<SCITEGIC>MOL_PROPERTY
Idih
SciTegic.value.DoubleValue
0.000

@<SCITEGIC>MOL_PROPERTY
Tether
SciTegic.value.DoubleValue
0.000

@<TRIPOS>MOLECULE
guest-2_vm2.mol2 : vm2 ligand conformer 29
          23          22           1
SMALL
USER_CHARGES
 
@<TRIPOS>ATOM
       1    N1      20.073842   18.158551   25.294066 N.4        1 MOL1        -0.5940
       2    H1      19.589804   17.433231   24.756399 H          1 MOL1         0.3649
       3    H2      19.445668   18.443833   26.052035 H          1 MOL1         0.3649
       4    H3      20.889185   17.716284   25.731533 H          1 MOL1         0.3649
       5    C1      20.470176   19.332050   24.419964 C.3        1 MOL1         0.0207
       6    H4      21.162803   18.968295   23.656489 H          1 MOL1         0.0950
       7    H5      21.004000   20.050138   25.048356 H          1 MOL1         0.0950
       8    C2      19.273229   20.032057   23.745362 C.3        1 MOL1        -0.1415
       9    H6      18.602252   20.423365   24.521496 H          1 MOL1         0.0976
      10    H7      19.639138   20.909406   23.196924 H          1 MOL1         0.0976
      11    C3      18.465695   19.116816   22.787641 C.3        1 MOL1        -0.1375
      12    H8      17.663200   19.708308   22.325750 H          1 MOL1         0.0976
      13    H9      17.959801   18.337178   23.372848 H          1 MOL1         0.0976
      14    C4      19.302303   18.440372   21.670806 C.3        1 MOL1        -0.1375
      15    H10     20.050677   17.769958   22.113945 H          1 MOL1         0.0976
      16    H11     18.634874   17.799064   21.078692 H          1 MOL1         0.0976
      17    C5      19.999800   19.446876   20.725637 C.3        1 MOL1        -0.1350
      18    H12     20.725330   20.052027   21.285403 H          1 MOL1         0.0976
      19    H13     19.256887   20.142467   20.310975 H          1 MOL1         0.0976
      20    C6      20.730957   18.730277   19.570525 C.3        1 MOL1        -0.2365
      21    H14     21.501979   18.049274   19.953885 H          1 MOL1         0.0987
      22    H15     21.221854   19.458272   18.911694 H          1 MOL1         0.0987
      23    H16     20.029654   18.144825   18.961746 H          1 MOL1         0.0987
@<TRIPOS>BOND
    1     1     2    1
    2     1     3    1
    3     1     4    1
    4     1     5    1
    5     5     6    1
    6     5     7    1
    7     5     8    1
    8     8     9    1
    9     8    10    1
   10     8    11    1
   11    11    12    1
   12    11    13    1
   13    11    14    1
   14    14    15    1
   15    14    16    1
   16    14    17    1
   17    17    18    1
   18    17    19    1
   19    17    20    1
   20    20    21    1
   21    20    22    1
   22    20    23    1
@<TRIPOS>SUBSTRUCTURE
       1 MOL1            1 RESIDUE      1      MOL     
@<SCITEGIC>MOL_PROPERTY
VM2 Rank
SciTegic.value.IntegerValue
29

@<SCITEGIC>MOL_PROPERTY
Conf_Id
SciTegic.value.IntegerValue
88

@<SCITEGIC>MOL_PROPERTY
Probability
SciTegic.value.DoubleValue
0.83

@<SCITEGIC>MOL_PROPERTY
Sum Probability
SciTegic.value.DoubleValue
90.92

@<SCITEGIC>MOL_PROPERTY
Delta G
SciTegic.value.DoubleValue
1.591

@<SCITEGIC>MOL_PROPERTY
G
SciTegic.value.DoubleValue
39.508

@<SCITEGIC>MOL_PROPERTY
E
SciTegic.value.DoubleValue
11.447

@<SCITEGIC>MOL_PROPERTY
-TS
SciTegic.value.DoubleValue
28.060

@<SCITEGIC>MOL_PROPERTY
U+W
SciTegic.value.DoubleValue
-7.332

@<SCITEGIC>MOL_PROPERTY
U
SciTegic.value.DoubleValue
48.590

@<SCITEGIC>MOL_PROPERTY
W
SciTegic.value.DoubleValue
-55.922

@<SCITEGIC>MOL_PROPERTY
W(PB)
SciTegic.value.DoubleValue
-58.013

@<SCITEGIC>MOL_PROPERTY
W(SA)
SciTegic.value.DoubleValue
2.090

@<SCITEGIC>MOL_PROPERTY
Valence
SciTegic.value.DoubleValue
2.601

@<SCITEGIC>MOL_PROPERTY
Coulomb
SciTegic.value.DoubleValue
45.520

@<SCITEGIC>MOL_PROPERTY
VdW
SciTegic.value.DoubleValue
0.469

@<SCITEGIC>MOL_PROPERTY
VdW6
SciTegic.value.DoubleValue
-6.867

@<SCITEGIC>MOL_PROPERTY
VdW12
SciTegic.value.DoubleValue
7.336

@<SCITEGIC>MOL_PROPERTY
Bond
SciTegic.value.DoubleValue
0.205

@<SCITEGIC>MOL_PROPERTY
Angle
SciTegic.value.DoubleValue
0.962

@<SCITEGIC>MOL_PROPERTY
Pdih
SciTegic.value.DoubleValue
1.434

@<SCITEGIC>MOL_PROPERTY
Idih
SciTegic.value.DoubleValue
0.000

@<SCITEGIC>MOL_PROPERTY
Tether
SciTegic.value.DoubleValue
0.000

@<TRIPOS>MOLECULE
guest-2_vm2.mol2 : vm2 ligand conformer 30
          23          22           1
SMALL
USER_CHARGES
 
@<TRIPOS>ATOM
       1    N1      20.230423   19.840700   25.350283 N.4        1 MOL1        -0.5940
       2    H1      19.905327   20.544417   26.021796 H          1 MOL1         0.3649
       3    H2      20.682681   20.344716   24.581499 H          1 MOL1         0.3649
       4    H3      20.956043   19.290779   25.821045 H          1 MOL1         0.3649
       5    C1      19.094525   18.967351   24.855011 C.3        1 MOL1         0.0207
       6    H4      18.345003   19.615156   24.393431 H          1 MOL1         0.0950
       7    H5      18.638078   18.489653   25.726210 H          1 MOL1         0.0950
       8    C2      19.538081   17.883004   23.851656 C.3        1 MOL1        -0.1415
       9    H6      20.251453   17.209545   24.344969 H          1 MOL1         0.0976
      10    H7      18.667188   17.267140   23.590662 H          1 MOL1         0.0976
      11    C3      20.175789   18.441057   22.554138 C.3        1 MOL1        -0.1375
      12    H8      20.489318   17.589664   21.936316 H          1 MOL1         0.0976
      13    H9      21.091564   18.996441   22.796322 H          1 MOL1         0.0976
      14    C4      19.213755   19.344485   21.741281 C.3        1 MOL1        -0.1375
      15    H10     18.310056   18.778677   21.476030 H          1 MOL1         0.0976
      16    H11     18.880498   20.183256   22.366387 H          1 MOL1         0.0976
      17    C5      19.853109   19.926994   20.457398 C.3        1 MOL1        -0.1350
      18    H12     20.751914   20.503289   20.717706 H          1 MOL1         0.0976
      19    H13     19.149911   20.641905   20.007644 H          1 MOL1         0.0976
      20    C6      20.210318   18.853409   19.404231 C.3        1 MOL1        -0.2365
      21    H14     21.005260   18.186709   19.760350 H          1 MOL1         0.0987
      22    H15     20.567080   19.326217   18.480051 H          1 MOL1         0.0987
      23    H16     19.334790   18.241447   19.151327 H          1 MOL1         0.0987
@<TRIPOS>BOND
    1     1     2    1
    2     1     3    1
    3     1     4    1
    4     1     5    1
    5     5     6    1
    6     5     7    1
    7     5     8    1
    8     8     9    1
    9     8    10    1
   10     8    11    1
   11    11    12    1
   12    11    13    1
   13    11    14    1
   14    14    15    1
   15    14    16    1
   16    14    17    1
   17    17    18    1
   18    17    19    1
   19    17    20    1
   20    20    21    1
   21    20    22    1
   22    20    23    1
@<TRIPOS>SUBSTRUCTURE
       1 MOL1            1 RESIDUE      1      MOL     
@<SCITEGIC>MOL_PROPERTY
VM2 Rank
SciTegic.value.IntegerValue
30

@<SCITEGIC>MOL_PROPERTY
Conf_Id
SciTegic.value.IntegerValue
636

@<SCITEGIC>MOL_PROPERTY
Probability
SciTegic.value.DoubleValue
0.82

@<SCITEGIC>MOL_PROPERTY
Sum Probability
SciTegic.value.DoubleValue
91.74

@<SCITEGIC>MOL_PROPERTY
Delta G
SciTegic.value.DoubleValue
1.599

@<SCITEGIC>MOL_PROPERTY
G
SciTegic.value.DoubleValue
39.515

@<SCITEGIC>MOL_PROPERTY
E
SciTegic.value.DoubleValue
11.625

@<SCITEGIC>MOL_PROPERTY
-TS
SciTegic.value.DoubleValue
27.890

@<SCITEGIC>MOL_PROPERTY
U+W
SciTegic.value.DoubleValue
-7.154

@<SCITEGIC>MOL_PROPERTY
U
SciTegic.value.DoubleValue
48.727

@<SCITEGIC>MOL_PROPERTY
W
SciTegic.value.DoubleValue
-55.881

@<SCITEGIC>MOL_PROPERTY
W(PB)
SciTegic.value.DoubleValue
-57.960

@<SCITEGIC>MOL_PROPERTY
W(SA)
SciTegic.value.DoubleValue
2.080

@<SCITEGIC>MOL_PROPERTY
Valence
SciTegic.value.DoubleValue
2.672

@<SCITEGIC>MOL_PROPERTY
Coulomb
SciTegic.value.DoubleValue
45.371

@<SCITEGIC>MOL_PROPERTY
VdW
SciTegic.value.DoubleValue
0.684

@<SCITEGIC>MOL_PROPERTY
VdW6
SciTegic.value.DoubleValue
-6.511

@<SCITEGIC>MOL_PROPERTY
VdW12
SciTegic.value.DoubleValue
7.195

@<SCITEGIC>MOL_PROPERTY
Bond
SciTegic.value.DoubleValue
0.203

@<SCITEGIC>MOL_PROPERTY
Angle
SciTegic.value.DoubleValue
0.915

@<SCITEGIC>MOL_PROPERTY
Pdih
SciTegic.value.DoubleValue
1.554

@<SCITEGIC>MOL_PROPERTY
Idih
SciTegic.value.DoubleValue
0.000

@<SCITEGIC>MOL_PROPERTY
Tether
SciTegic.value.DoubleValue
0.000

@<TRIPOS>MOLECULE
guest-2_vm2.mol2 : vm2 ligand conformer 31
          23          22           1
SMALL
USER_CHARGES
 
@<TRIPOS>ATOM
       1    N1      20.354061   17.878777   24.946912 N.4        1 MOL1        -0.5940
       2    H1      19.590619   17.357372   25.389478 H          1 MOL1         0.3649
       3    H2      21.194067   17.717505   25.512803 H          1 MOL1         0.3649
       4    H3      20.521691   17.452454   24.030521 H          1 MOL1         0.3649
       5    C1      20.031278   19.355109   24.825862 C.3        1 MOL1         0.0207
       6    H4      20.893639   19.854891   24.377233 H          1 MOL1         0.0950
       7    H5      19.898229   19.750839   25.836414 H          1 MOL1         0.0950
       8    C2      18.767218   19.646738   23.991601 C.3        1 MOL1        -0.1415
       9    H6      17.900114   19.179603   24.477095 H          1 MOL1         0.0976
      10    H7      18.578727   20.728472   24.004509 H          1 MOL1         0.0976
      11    C3      18.855914   19.160865   22.523051 C.3        1 MOL1        -0.1375
      12    H8      17.909441   19.398273   22.018140 H          1 MOL1         0.0976
      13    H9      18.946738   18.067476   22.504140 H          1 MOL1         0.0976
      14    C4      20.025831   19.808033   21.739506 C.3        1 MOL1        -0.1375
      15    H10     19.964853   20.900290   21.842092 H          1 MOL1         0.0976
      16    H11     20.987138   19.509108   22.178213 H          1 MOL1         0.0976
      17    C5      20.024489   19.455007   20.232603 C.3        1 MOL1        -0.1350
      18    H12     20.814392   20.034006   19.733955 H          1 MOL1         0.0976
      19    H13     19.076447   19.773020   19.776682 H          1 MOL1         0.0976
      20    C6      20.257209   17.952471   19.954464 C.3        1 MOL1        -0.2365
      21    H14     20.336531   17.769779   18.874989 H          1 MOL1         0.0987
      22    H15     19.429588   17.339383   20.332057 H          1 MOL1         0.0987
      23    H16     21.186638   17.603314   20.422641 H          1 MOL1         0.0987
@<TRIPOS>BOND
    1     1     2    1
    2     1     3    1
    3     1     4    1
    4     1     5    1
    5     5     6    1
    6     5     7    1
    7     5     8    1
    8     8     9    1
    9     8    10    1
   10     8    11    1
   11    11    12    1
   12    11    13    1
   13    11    14    1
   14    14    15    1
   15    14    16    1
   16    14    17    1
   17    17    18    1
   18    17    19    1
   19    17    20    1
   20    20    21    1
   21    20    22    1
   22    20    23    1
@<TRIPOS>SUBSTRUCTURE
       1 MOL1            1 RESIDUE      1      MOL     
@<SCITEGIC>MOL_PROPERTY
VM2 Rank
SciTegic.value.IntegerValue
31

@<SCITEGIC>MOL_PROPERTY
Conf_Id
SciTegic.value.IntegerValue
378

@<SCITEGIC>MOL_PROPERTY
Probability
SciTegic.value.DoubleValue
0.82

@<SCITEGIC>MOL_PROPERTY
Sum Probability
SciTegic.value.DoubleValue
92.56

@<SCITEGIC>MOL_PROPERTY
Delta G
SciTegic.value.DoubleValue
1.602

@<SCITEGIC>MOL_PROPERTY
G
SciTegic.value.DoubleValue
39.518

@<SCITEGIC>MOL_PROPERTY
E
SciTegic.value.DoubleValue
11.589

@<SCITEGIC>MOL_PROPERTY
-TS
SciTegic.value.DoubleValue
27.929

@<SCITEGIC>MOL_PROPERTY
U+W
SciTegic.value.DoubleValue
-7.190

@<SCITEGIC>MOL_PROPERTY
U
SciTegic.value.DoubleValue
48.775

@<SCITEGIC>MOL_PROPERTY
W
SciTegic.value.DoubleValue
-55.965

@<SCITEGIC>MOL_PROPERTY
W(PB)
SciTegic.value.DoubleValue
-58.038

@<SCITEGIC>MOL_PROPERTY
W(SA)
SciTegic.value.DoubleValue
2.073

@<SCITEGIC>MOL_PROPERTY
Valence
SciTegic.value.DoubleValue
2.602

@<SCITEGIC>MOL_PROPERTY
Coulomb
SciTegic.value.DoubleValue
45.581

@<SCITEGIC>MOL_PROPERTY
VdW
SciTegic.value.DoubleValue
0.592

@<SCITEGIC>MOL_PROPERTY
VdW6
SciTegic.value.DoubleValue
-6.616

@<SCITEGIC>MOL_PROPERTY
VdW12
SciTegic.value.DoubleValue
7.209

@<SCITEGIC>MOL_PROPERTY
Bond
SciTegic.value.DoubleValue
0.196

@<SCITEGIC>MOL_PROPERTY
Angle
SciTegic.value.DoubleValue
0.832

@<SCITEGIC>MOL_PROPERTY
Pdih
SciTegic.value.DoubleValue
1.574

@<SCITEGIC>MOL_PROPERTY
Idih
SciTegic.value.DoubleValue
0.000

@<SCITEGIC>MOL_PROPERTY
Tether
SciTegic.value.DoubleValue
0.000

@<TRIPOS>MOLECULE
guest-2_vm2.mol2 : vm2 ligand conformer 32
          23          22           1
SMALL
USER_CHARGES
 
@<TRIPOS>ATOM
       1    N1      18.646572   19.182813   25.277932 N.4        1 MOL1        -0.5940
       2    H1      18.325086   19.888104   25.949531 H          1 MOL1         0.3649
       3    H2      18.489077   18.266093   25.708484 H          1 MOL1         0.3649
       4    H3      18.032066   19.243607   24.460444 H          1 MOL1         0.3649
       5    C1      20.100901   19.385406   24.900868 C.3        1 MOL1         0.0207
       6    H4      20.691795   19.342779   25.819864 H          1 MOL1         0.0950
       7    H5      20.205254   20.387896   24.478240 H          1 MOL1         0.0950
       8    C2      20.634127   18.338298   23.901612 C.3        1 MOL1        -0.1415
       9    H6      21.701890   18.527862   23.728964 H          1 MOL1         0.0976
      10    H7      20.571018   17.342249   24.359552 H          1 MOL1         0.0976
      11    C3      19.892018   18.323063   22.541212 C.3        1 MOL1        -0.1375
      12    H8      18.837003   18.059473   22.693570 H          1 MOL1         0.0976
      13    H9      20.322030   17.520114   21.928646 H          1 MOL1         0.0976
      14    C4      19.991734   19.667754   21.776822 C.3        1 MOL1        -0.1375
      15    H10     19.583906   20.475507   22.398566 H          1 MOL1         0.0976
      16    H11     21.047427   19.916211   21.600897 H          1 MOL1         0.0976
      17    C5      19.230125   19.668129   20.429084 C.3        1 MOL1        -0.1350
      18    H12     19.253143   20.684888   20.012510 H          1 MOL1         0.0976
      19    H13     18.170848   19.430631   20.600123 H          1 MOL1         0.0976
      20    C6      19.820523   18.691538   19.386471 C.3        1 MOL1        -0.2365
      21    H14     20.888108   18.887154   19.222140 H          1 MOL1         0.0987
      22    H15     19.307108   18.802769   18.422641 H          1 MOL1         0.0987
      23    H16     19.706230   17.646928   19.701068 H          1 MOL1         0.0987
@<TRIPOS>BOND
    1     1     2    1
    2     1     3    1
    3     1     4    1
    4     1     5    1
    5     5     6    1
    6     5     7    1
    7     5     8    1
    8     8     9    1
    9     8    10    1
   10     8    11    1
   11    11    12    1
   12    11    13    1
   13    11    14    1
   14    14    15    1
   15    14    16    1
   16    14    17    1
   17    17    18    1
   18    17    19    1
   19    17    20    1
   20    20    21    1
   21    20    22    1
   22    20    23    1
@<TRIPOS>SUBSTRUCTURE
       1 MOL1            1 RESIDUE      1      MOL     
@<SCITEGIC>MOL_PROPERTY
VM2 Rank
SciTegic.value.IntegerValue
32

@<SCITEGIC>MOL_PROPERTY
Conf_Id
SciTegic.value.IntegerValue
795

@<SCITEGIC>MOL_PROPERTY
Probability
SciTegic.value.DoubleValue
0.79

@<SCITEGIC>MOL_PROPERTY
Sum Probability
SciTegic.value.DoubleValue
93.34

@<SCITEGIC>MOL_PROPERTY
Delta G
SciTegic.value.DoubleValue
1.623

@<SCITEGIC>MOL_PROPERTY
G
SciTegic.value.DoubleValue
39.539

@<SCITEGIC>MOL_PROPERTY
E
SciTegic.value.DoubleValue
11.649

@<SCITEGIC>MOL_PROPERTY
-TS
SciTegic.value.DoubleValue
27.890

@<SCITEGIC>MOL_PROPERTY
U+W
SciTegic.value.DoubleValue
-7.130

@<SCITEGIC>MOL_PROPERTY
U
SciTegic.value.DoubleValue
48.727

@<SCITEGIC>MOL_PROPERTY
W
SciTegic.value.DoubleValue
-55.857

@<SCITEGIC>MOL_PROPERTY
W(PB)
SciTegic.value.DoubleValue
-57.937

@<SCITEGIC>MOL_PROPERTY
W(SA)
SciTegic.value.DoubleValue
2.080

@<SCITEGIC>MOL_PROPERTY
Valence
SciTegic.value.DoubleValue
2.671

@<SCITEGIC>MOL_PROPERTY
Coulomb
SciTegic.value.DoubleValue
45.371

@<SCITEGIC>MOL_PROPERTY
VdW
SciTegic.value.DoubleValue
0.684

@<SCITEGIC>MOL_PROPERTY
VdW6
SciTegic.value.DoubleValue
-6.511

@<SCITEGIC>MOL_PROPERTY
VdW12
SciTegic.value.DoubleValue
7.195

@<SCITEGIC>MOL_PROPERTY
Bond
SciTegic.value.DoubleValue
0.203

@<SCITEGIC>MOL_PROPERTY
Angle
SciTegic.value.DoubleValue
0.915

@<SCITEGIC>MOL_PROPERTY
Pdih
SciTegic.value.DoubleValue
1.554

@<SCITEGIC>MOL_PROPERTY
Idih
SciTegic.value.DoubleValue
0.000

@<SCITEGIC>MOL_PROPERTY
Tether
SciTegic.value.DoubleValue
0.000

@<TRIPOS>MOLECULE
guest-2_vm2.mol2 : vm2 ligand conformer 33
          23          22           1
SMALL
USER_CHARGES
 
@<TRIPOS>ATOM
       1    N1      19.951697   18.107945   25.288844 N.4        1 MOL1        -0.5940
       2    H1      19.658667   17.204562   25.675878 H          1 MOL1         0.3649
       3    H2      20.131661   18.729626   26.083598 H          1 MOL1         0.3649
       4    H3      20.846780   17.956378   24.814164 H          1 MOL1         0.3649
       5    C1      18.910480   18.683127   24.349017 C.3        1 MOL1         0.0207
       6    H4      17.978545   18.791463   24.910493 H          1 MOL1         0.0950
       7    H5      18.741233   17.960607   23.546356 H          1 MOL1         0.0950
       8    C2      19.307268   20.046126   23.746875 C.3        1 MOL1        -0.1415
       9    H6      18.471765   20.423567   23.143644 H          1 MOL1         0.0976
      10    H7      19.440953   20.772304   24.559591 H          1 MOL1         0.0976
      11    C3      20.596386   20.003067   22.884712 C.3        1 MOL1        -0.1375
      12    H8      21.458077   19.792311   23.532248 H          1 MOL1         0.0976
      13    H9      20.776766   21.003420   22.467625 H          1 MOL1         0.0976
      14    C4      20.574657   18.969588   21.728748 C.3        1 MOL1        -0.1375
      15    H10     21.543182   19.008672   21.211286 H          1 MOL1         0.0976
      16    H11     20.489433   17.952485   22.133879 H          1 MOL1         0.0976
      17    C5      19.445903   19.216515   20.700231 C.3        1 MOL1        -0.1350
      18    H12     19.507245   20.246608   20.322268 H          1 MOL1         0.0976
      19    H13     18.464698   19.111809   21.182112 H          1 MOL1         0.0976
      20    C6      19.529609   18.230632   19.515572 C.3        1 MOL1        -0.2365
      21    H14     19.440669   17.191942   19.859690 H          1 MOL1         0.0987
      22    H15     20.483655   18.333695   18.982311 H          1 MOL1         0.0987
      23    H16     18.720788   18.418042   18.797449 H          1 MOL1         0.0987
@<TRIPOS>BOND
    1     1     2    1
    2     1     3    1
    3     1     4    1
    4     1     5    1
    5     5     6    1
    6     5     7    1
    7     5     8    1
    8     8     9    1
    9     8    10    1
   10     8    11    1
   11    11    12    1
   12    11    13    1
   13    11    14    1
   14    14    15    1
   15    14    16    1
   16    14    17    1
   17    17    18    1
   18    17    19    1
   19    17    20    1
   20    20    21    1
   21    20    22    1
   22    20    23    1
@<TRIPOS>SUBSTRUCTURE
       1 MOL1            1 RESIDUE      1      MOL     
@<SCITEGIC>MOL_PROPERTY
VM2 Rank
SciTegic.value.IntegerValue
33

@<SCITEGIC>MOL_PROPERTY
Conf_Id
SciTegic.value.IntegerValue
1134

@<SCITEGIC>MOL_PROPERTY
Probability
SciTegic.value.DoubleValue
0.77

@<SCITEGIC>MOL_PROPERTY
Sum Probability
SciTegic.value.DoubleValue
94.11

@<SCITEGIC>MOL_PROPERTY
Delta G
SciTegic.value.DoubleValue
1.637

@<SCITEGIC>MOL_PROPERTY
G
SciTegic.value.DoubleValue
39.553

@<SCITEGIC>MOL_PROPERTY
E
SciTegic.value.DoubleValue
11.493

@<SCITEGIC>MOL_PROPERTY
-TS
SciTegic.value.DoubleValue
28.060

@<SCITEGIC>MOL_PROPERTY
U+W
SciTegic.value.DoubleValue
-7.286

@<SCITEGIC>MOL_PROPERTY
U
SciTegic.value.DoubleValue
48.590

@<SCITEGIC>MOL_PROPERTY
W
SciTegic.value.DoubleValue
-55.876

@<SCITEGIC>MOL_PROPERTY
W(PB)
SciTegic.value.DoubleValue
-57.963

@<SCITEGIC>MOL_PROPERTY
W(SA)
SciTegic.value.DoubleValue
2.087

@<SCITEGIC>MOL_PROPERTY
Valence
SciTegic.value.DoubleValue
2.601

@<SCITEGIC>MOL_PROPERTY
Coulomb
SciTegic.value.DoubleValue
45.520

@<SCITEGIC>MOL_PROPERTY
VdW
SciTegic.value.DoubleValue
0.469

@<SCITEGIC>MOL_PROPERTY
VdW6
SciTegic.value.DoubleValue
-6.866

@<SCITEGIC>MOL_PROPERTY
VdW12
SciTegic.value.DoubleValue
7.335

@<SCITEGIC>MOL_PROPERTY
Bond
SciTegic.value.DoubleValue
0.205

@<SCITEGIC>MOL_PROPERTY
Angle
SciTegic.value.DoubleValue
0.962

@<SCITEGIC>MOL_PROPERTY
Pdih
SciTegic.value.DoubleValue
1.434

@<SCITEGIC>MOL_PROPERTY
Idih
SciTegic.value.DoubleValue
0.000

@<SCITEGIC>MOL_PROPERTY
Tether
SciTegic.value.DoubleValue
0.000

@<TRIPOS>MOLECULE
guest-2_vm2.mol2 : vm2 ligand conformer 34
          23          22           1
SMALL
USER_CHARGES
 
@<TRIPOS>ATOM
       1    N1      19.675199   18.605252   25.786614 N.4        1 MOL1        -0.5940
       2    H1      19.119548   18.502424   26.642544 H          1 MOL1         0.3649
       3    H2      20.577957   19.004498   26.062779 H          1 MOL1         0.3649
       4    H3      19.856991   17.661199   25.432858 H          1 MOL1         0.3649
       5    C1      18.969101   19.466486   24.757481 C.3        1 MOL1         0.0207
       6    H4      18.772598   20.438212   25.218678 H          1 MOL1         0.0950
       7    H5      18.008178   18.999554   24.525071 H          1 MOL1         0.0950
       8    C2      19.773592   19.671881   23.459188 C.3        1 MOL1        -0.1415
       9    H6      19.233244   20.396938   22.837852 H          1 MOL1         0.0976
      10    H7      20.745641   20.123569   23.697458 H          1 MOL1         0.0976
      11    C3      19.978430   18.355577   22.668114 C.3        1 MOL1        -0.1375
      12    H8      19.002943   17.918971   22.415775 H          1 MOL1         0.0976
      13    H9      20.481615   17.619691   23.308951 H          1 MOL1         0.0976
      14    C4      20.828207   18.530759   21.382631 C.3        1 MOL1        -0.1375
      15    H10     21.835556   18.867618   21.663670 H          1 MOL1         0.0976
      16    H11     20.961498   17.546595   20.912659 H          1 MOL1         0.0976
      17    C5      20.249254   19.511587   20.330957 C.3        1 MOL1        -0.1350
      18    H12     20.933914   19.546326   19.472021 H          1 MOL1         0.0976
      19    H13     20.225118   20.532279   20.735360 H          1 MOL1         0.0976
      20    C6      18.842217   19.115459   19.829015 C.3        1 MOL1        -0.2365
      21    H14     18.837199   18.089972   19.437481 H          1 MOL1         0.0987
      22    H15     18.519464   19.785019   19.021316 H          1 MOL1         0.0987
      23    H16     18.095995   19.181650   20.630520 H          1 MOL1         0.0987
@<TRIPOS>BOND
    1     1     2    1
    2     1     3    1
    3     1     4    1
    4     1     5    1
    5     5     6    1
    6     5     7    1
    7     5     8    1
    8     8     9    1
    9     8    10    1
   10     8    11    1
   11    11    12    1
   12    11    13    1
   13    11    14    1
   14    14    15    1
   15    14    16    1
   16    14    17    1
   17    17    18    1
   18    17    19    1
   19    17    20    1
   20    20    21    1
   21    20    22    1
   22    20    23    1
@<TRIPOS>SUBSTRUCTURE
       1 MOL1            1 RESIDUE      1      MOL     
@<SCITEGIC>MOL_PROPERTY
VM2 Rank
SciTegic.value.IntegerValue
34

@<SCITEGIC>MOL_PROPERTY
Conf_Id
SciTegic.value.IntegerValue
365

@<SCITEGIC>MOL_PROPERTY
Probability
SciTegic.value.DoubleValue
0.74

@<SCITEGIC>MOL_PROPERTY
Sum Probability
SciTegic.value.DoubleValue
94.85

@<SCITEGIC>MOL_PROPERTY
Delta G
SciTegic.value.DoubleValue
1.663

@<SCITEGIC>MOL_PROPERTY
G
SciTegic.value.DoubleValue
39.580

@<SCITEGIC>MOL_PROPERTY
E
SciTegic.value.DoubleValue
11.541

@<SCITEGIC>MOL_PROPERTY
-TS
SciTegic.value.DoubleValue
28.039

@<SCITEGIC>MOL_PROPERTY
U+W
SciTegic.value.DoubleValue
-7.238

@<SCITEGIC>MOL_PROPERTY
U
SciTegic.value.DoubleValue
48.503

@<SCITEGIC>MOL_PROPERTY
W
SciTegic.value.DoubleValue
-55.741

@<SCITEGIC>MOL_PROPERTY
W(PB)
SciTegic.value.DoubleValue
-57.818

@<SCITEGIC>MOL_PROPERTY
W(SA)
SciTegic.value.DoubleValue
2.078

@<SCITEGIC>MOL_PROPERTY
Valence
SciTegic.value.DoubleValue
2.824

@<SCITEGIC>MOL_PROPERTY
Coulomb
SciTegic.value.DoubleValue
44.990

@<SCITEGIC>MOL_PROPERTY
VdW
SciTegic.value.DoubleValue
0.689

@<SCITEGIC>MOL_PROPERTY
VdW6
SciTegic.value.DoubleValue
-6.667

@<SCITEGIC>MOL_PROPERTY
VdW12
SciTegic.value.DoubleValue
7.356

@<SCITEGIC>MOL_PROPERTY
Bond
SciTegic.value.DoubleValue
0.219

@<SCITEGIC>MOL_PROPERTY
Angle
SciTegic.value.DoubleValue
1.118

@<SCITEGIC>MOL_PROPERTY
Pdih
SciTegic.value.DoubleValue
1.487

@<SCITEGIC>MOL_PROPERTY
Idih
SciTegic.value.DoubleValue
0.000

@<SCITEGIC>MOL_PROPERTY
Tether
SciTegic.value.DoubleValue
0.000

@<TRIPOS>MOLECULE
guest-2_vm2.mol2 : vm2 ligand conformer 35
          23          22           1
SMALL
USER_CHARGES
 
@<TRIPOS>ATOM
       1    N1      19.980277   17.723173   24.929806 N.4        1 MOL1        -0.5940
       2    H1      20.235590   17.333349   24.017405 H          1 MOL1         0.3649
       3    H2      19.461150   16.996286   25.433785 H          1 MOL1         0.3649
       4    H3      20.850977   17.881818   25.446804 H          1 MOL1         0.3649
       5    C1      19.170648   18.996905   24.786597 C.3        1 MOL1         0.0207
       6    H4      18.905354   19.337567   25.791131 H          1 MOL1         0.0950
       7    H5      18.246358   18.753172   24.256503 H          1 MOL1         0.0950
       8    C2      19.915894   20.124749   24.043990 C.3        1 MOL1        -0.1415
       9    H6      19.281091   21.020748   24.036573 H          1 MOL1         0.0976
      10    H7      20.817524   20.393665   24.610151 H          1 MOL1         0.0976
      11    C3      20.311716   19.766720   22.589439 C.3        1 MOL1        -0.1375
      12    H8      21.023652   18.931760   22.598837 H          1 MOL1         0.0976
      13    H9      20.847094   20.620696   22.152169 H          1 MOL1         0.0976
      14    C4      19.093204   19.420183   21.696907 C.3        1 MOL1        -0.1375
      15    H10     18.595987   18.514567   22.069150 H          1 MOL1         0.0976
      16    H11     18.354722   20.230609   21.768459 H          1 MOL1         0.0976
      17    C5      19.461164   19.220583   20.206888 C.3        1 MOL1        -0.1350
      18    H12     19.936980   20.130789   19.815858 H          1 MOL1         0.0976
      19    H13     18.535514   19.085936   19.629931 H          1 MOL1         0.0976
      20    C6      20.383098   18.004687   19.960372 C.3        1 MOL1        -0.2365
      21    H14     20.540615   17.854374   18.884487 H          1 MOL1         0.0987
      22    H15     19.941449   17.085295   20.366084 H          1 MOL1         0.0987
      23    H16     21.368770   18.145885   20.420721 H          1 MOL1         0.0987
@<TRIPOS>BOND
    1     1     2    1
    2     1     3    1
    3     1     4    1
    4     1     5    1
    5     5     6    1
    6     5     7    1
    7     5     8    1
    8     8     9    1
    9     8    10    1
   10     8    11    1
   11    11    12    1
   12    11    13    1
   13    11    14    1
   14    14    15    1
   15    14    16    1
   16    14    17    1
   17    17    18    1
   18    17    19    1
   19    17    20    1
   20    20    21    1
   21    20    22    1
   22    20    23    1
@<TRIPOS>SUBSTRUCTURE
       1 MOL1            1 RESIDUE      1      MOL     
@<SCITEGIC>MOL_PROPERTY
VM2 Rank
SciTegic.value.IntegerValue
35

@<SCITEGIC>MOL_PROPERTY
Conf_Id
SciTegic.value.IntegerValue
466

@<SCITEGIC>MOL_PROPERTY
Probability
SciTegic.value.DoubleValue
0.72

@<SCITEGIC>MOL_PROPERTY
Sum Probability
SciTegic.value.DoubleValue
95.57

@<SCITEGIC>MOL_PROPERTY
Delta G
SciTegic.value.DoubleValue
1.678

@<SCITEGIC>MOL_PROPERTY
G
SciTegic.value.DoubleValue
39.594

@<SCITEGIC>MOL_PROPERTY
E
SciTegic.value.DoubleValue
11.665

@<SCITEGIC>MOL_PROPERTY
-TS
SciTegic.value.DoubleValue
27.929

@<SCITEGIC>MOL_PROPERTY
U+W
SciTegic.value.DoubleValue
-7.114

@<SCITEGIC>MOL_PROPERTY
U
SciTegic.value.DoubleValue
48.775

@<SCITEGIC>MOL_PROPERTY
W
SciTegic.value.DoubleValue
-55.889

@<SCITEGIC>MOL_PROPERTY
W(PB)
SciTegic.value.DoubleValue
-57.962

@<SCITEGIC>MOL_PROPERTY
W(SA)
SciTegic.value.DoubleValue
2.073

@<SCITEGIC>MOL_PROPERTY
Valence
SciTegic.value.DoubleValue
2.602

@<SCITEGIC>MOL_PROPERTY
Coulomb
SciTegic.value.DoubleValue
45.581

@<SCITEGIC>MOL_PROPERTY
VdW
SciTegic.value.DoubleValue
0.592

@<SCITEGIC>MOL_PROPERTY
VdW6
SciTegic.value.DoubleValue
-6.616

@<SCITEGIC>MOL_PROPERTY
VdW12
SciTegic.value.DoubleValue
7.208

@<SCITEGIC>MOL_PROPERTY
Bond
SciTegic.value.DoubleValue
0.196

@<SCITEGIC>MOL_PROPERTY
Angle
SciTegic.value.DoubleValue
0.832

@<SCITEGIC>MOL_PROPERTY
Pdih
SciTegic.value.DoubleValue
1.574

@<SCITEGIC>MOL_PROPERTY
Idih
SciTegic.value.DoubleValue
0.000

@<SCITEGIC>MOL_PROPERTY
Tether
SciTegic.value.DoubleValue
0.000

@<TRIPOS>MOLECULE
guest-2_vm2.mol2 : vm2 ligand conformer 36
          23          22           1
SMALL
USER_CHARGES
 
@<TRIPOS>ATOM
       1    N1      20.211367   17.952895   25.244947 N.4        1 MOL1        -0.5940
       2    H1      19.842640   17.072331   24.871919 H          1 MOL1         0.3649
       3    H2      20.361774   17.812301   26.249714 H          1 MOL1         0.3649
       4    H3      21.132817   18.099626   24.822003 H          1 MOL1         0.3649
       5    C1      19.276519   19.115472   24.973645 C.3        1 MOL1         0.0207
       6    H4      19.714201   20.013662   25.417589 H          1 MOL1         0.0950
       7    H5      18.332333   18.908383   25.484704 H          1 MOL1         0.0950
       8    C2      19.005074   19.356559   23.476179 C.3        1 MOL1        -0.1415
       9    H6      18.566395   18.450017   23.040254 H          1 MOL1         0.0976
      10    H7      18.250497   20.148695   23.382225 H          1 MOL1         0.0976
      11    C3      20.280151   19.767796   22.698642 C.3        1 MOL1        -0.1375
      12    H8      21.015097   18.953040   22.719274 H          1 MOL1         0.0976
      13    H9      20.753257   20.615868   23.212814 H          1 MOL1         0.0976
      14    C4      20.001403   20.181051   21.230360 C.3        1 MOL1        -0.1375
      15    H10     19.356660   21.070706   21.225624 H          1 MOL1         0.0976
      16    H11     20.947112   20.493496   20.766450 H          1 MOL1         0.0976
      17    C5      19.348271   19.086497   20.348158 C.3        1 MOL1        -0.1350
      18    H12     19.198096   19.494732   19.338943 H          1 MOL1         0.0976
      19    H13     18.345920   18.842945   20.725095 H          1 MOL1         0.0976
      20    C6      20.193215   17.796729   20.242070 C.3        1 MOL1        -0.2365
      21    H14     20.271315   17.286368   21.210016 H          1 MOL1         0.0987
      22    H15     21.207834   18.017863   19.886277 H          1 MOL1         0.0987
      23    H16     19.734822   17.093936   19.534391 H          1 MOL1         0.0987
@<TRIPOS>BOND
    1     1     2    1
    2     1     3    1
    3     1     4    1
    4     1     5    1
    5     5     6    1
    6     5     7    1
    7     5     8    1
    8     8     9    1
    9     8    10    1
   10     8    11    1
   11    11    12    1
   12    11    13    1
   13    11    14    1
   14    14    15    1
   15    14    16    1
   16    14    17    1
   17    17    18    1
   18    17    19    1
   19    17    20    1
   20    20    21    1
   21    20    22    1
   22    20    23    1
@<TRIPOS>SUBSTRUCTURE
       1 MOL1            1 RESIDUE      1      MOL     
@<SCITEGIC>MOL_PROPERTY
VM2 Rank
SciTegic.value.IntegerValue
36

@<SCITEGIC>MOL_PROPERTY
Conf_Id
SciTegic.value.IntegerValue
492

@<SCITEGIC>MOL_PROPERTY
Probability
SciTegic.value.DoubleValue
0.69

@<SCITEGIC>MOL_PROPERTY
Sum Probability
SciTegic.value.DoubleValue
96.26

@<SCITEGIC>MOL_PROPERTY
Delta G
SciTegic.value.DoubleValue
1.700

@<SCITEGIC>MOL_PROPERTY
G
SciTegic.value.DoubleValue
39.616

@<SCITEGIC>MOL_PROPERTY
E
SciTegic.value.DoubleValue
11.562

@<SCITEGIC>MOL_PROPERTY
-TS
SciTegic.value.DoubleValue
28.055

@<SCITEGIC>MOL_PROPERTY
U+W
SciTegic.value.DoubleValue
-7.217

@<SCITEGIC>MOL_PROPERTY
U
SciTegic.value.DoubleValue
48.781

@<SCITEGIC>MOL_PROPERTY
W
SciTegic.value.DoubleValue
-55.998

@<SCITEGIC>MOL_PROPERTY
W(PB)
SciTegic.value.DoubleValue
-58.048

@<SCITEGIC>MOL_PROPERTY
W(SA)
SciTegic.value.DoubleValue
2.050

@<SCITEGIC>MOL_PROPERTY
Valence
SciTegic.value.DoubleValue
2.785

@<SCITEGIC>MOL_PROPERTY
Coulomb
SciTegic.value.DoubleValue
45.396

@<SCITEGIC>MOL_PROPERTY
VdW
SciTegic.value.DoubleValue
0.600

@<SCITEGIC>MOL_PROPERTY
VdW6
SciTegic.value.DoubleValue
-6.752

@<SCITEGIC>MOL_PROPERTY
VdW12
SciTegic.value.DoubleValue
7.352

@<SCITEGIC>MOL_PROPERTY
Bond
SciTegic.value.DoubleValue
0.213

@<SCITEGIC>MOL_PROPERTY
Angle
SciTegic.value.DoubleValue
1.043

@<SCITEGIC>MOL_PROPERTY
Pdih
SciTegic.value.DoubleValue
1.528

@<SCITEGIC>MOL_PROPERTY
Idih
SciTegic.value.DoubleValue
0.000

@<SCITEGIC>MOL_PROPERTY
Tether
SciTegic.value.DoubleValue
0.000

@<TRIPOS>MOLECULE
guest-2_vm2.mol2 : vm2 ligand conformer 37
          23          22           1
SMALL
USER_CHARGES
 
@<TRIPOS>ATOM
       1    N1      20.004622   17.866828   25.235510 N.4        1 MOL1        -0.5940
       2    H1      19.286837   17.331521   24.737803 H          1 MOL1         0.3649
       3    H2      19.920639   17.628695   26.229586 H          1 MOL1         0.3649
       4    H3      20.915883   17.518845   24.920846 H          1 MOL1         0.3649
       5    C1      19.858579   19.357609   25.000202 C.3        1 MOL1         0.0207
       6    H4      20.628222   19.863586   25.589433 H          1 MOL1         0.0950
       7    H5      18.880938   19.666922   25.379596 H          1 MOL1         0.0950
       8    C2      19.994629   19.768241   23.521326 C.3        1 MOL1        -0.1415
       9    H6      19.970773   20.864347   23.460713 H          1 MOL1         0.0976
      10    H7      20.978209   19.453348   23.150247 H          1 MOL1         0.0976
      11    C3      18.868777   19.180757   22.634295 C.3        1 MOL1        -0.1375
      12    H8      17.896356   19.427563   23.082528 H          1 MOL1         0.0976
      13    H9      18.928063   18.084956   22.624138 H          1 MOL1         0.0976
      14    C4      18.885877   19.717045   21.179497 C.3        1 MOL1        -0.1375
      15    H10     18.036805   19.282975   20.633732 H          1 MOL1         0.0976
      16    H11     18.709055   20.801324   21.196089 H          1 MOL1         0.0976
      17    C5      20.187729   19.435627   20.386464 C.3        1 MOL1        -0.1350
      18    H12     21.034565   19.961127   20.847795 H          1 MOL1         0.0976
      19    H13     20.082545   19.862635   19.379328 H          1 MOL1         0.0976
      20    C6      20.515786   17.930893   20.256706 C.3        1 MOL1        -0.2365
      21    H14     19.674578   17.380208   19.816187 H          1 MOL1         0.0987
      22    H15     20.747042   17.484180   21.231620 H          1 MOL1         0.0987
      23    H16     21.390065   17.782393   19.609842 H          1 MOL1         0.0987
@<TRIPOS>BOND
    1     1     2    1
    2     1     3    1
    3     1     4    1
    4     1     5    1
    5     5     6    1
    6     5     7    1
    7     5     8    1
    8     8     9    1
    9     8    10    1
   10     8    11    1
   11    11    12    1
   12    11    13    1
   13    11    14    1
   14    14    15    1
   15    14    16    1
   16    14    17    1
   17    17    18    1
   18    17    19    1
   19    17    20    1
   20    20    21    1
   21    20    22    1
   22    20    23    1
@<TRIPOS>SUBSTRUCTURE
       1 MOL1            1 RESIDUE      1      MOL     
@<SCITEGIC>MOL_PROPERTY
VM2 Rank
SciTegic.value.IntegerValue
37

@<SCITEGIC>MOL_PROPERTY
Conf_Id
SciTegic.value.IntegerValue
703

@<SCITEGIC>MOL_PROPERTY
Probability
SciTegic.value.DoubleValue
0.65

@<SCITEGIC>MOL_PROPERTY
Sum Probability
SciTegic.value.DoubleValue
96.91

@<SCITEGIC>MOL_PROPERTY
Delta G
SciTegic.value.DoubleValue
1.739

@<SCITEGIC>MOL_PROPERTY
G
SciTegic.value.DoubleValue
39.655

@<SCITEGIC>MOL_PROPERTY
E
SciTegic.value.DoubleValue
11.601

@<SCITEGIC>MOL_PROPERTY
-TS
SciTegic.value.DoubleValue
28.054

@<SCITEGIC>MOL_PROPERTY
U+W
SciTegic.value.DoubleValue
-7.178

@<SCITEGIC>MOL_PROPERTY
U
SciTegic.value.DoubleValue
48.780

@<SCITEGIC>MOL_PROPERTY
W
SciTegic.value.DoubleValue
-55.959

@<SCITEGIC>MOL_PROPERTY
W(PB)
SciTegic.value.DoubleValue
-58.030

@<SCITEGIC>MOL_PROPERTY
W(SA)
SciTegic.value.DoubleValue
2.071

@<SCITEGIC>MOL_PROPERTY
Valence
SciTegic.value.DoubleValue
2.785

@<SCITEGIC>MOL_PROPERTY
Coulomb
SciTegic.value.DoubleValue
45.396

@<SCITEGIC>MOL_PROPERTY
VdW
SciTegic.value.DoubleValue
0.600

@<SCITEGIC>MOL_PROPERTY
VdW6
SciTegic.value.DoubleValue
-6.751

@<SCITEGIC>MOL_PROPERTY
VdW12
SciTegic.value.DoubleValue
7.351

@<SCITEGIC>MOL_PROPERTY
Bond
SciTegic.value.DoubleValue
0.213

@<SCITEGIC>MOL_PROPERTY
Angle
SciTegic.value.DoubleValue
1.043

@<SCITEGIC>MOL_PROPERTY
Pdih
SciTegic.value.DoubleValue
1.528

@<SCITEGIC>MOL_PROPERTY
Idih
SciTegic.value.DoubleValue
0.000

@<SCITEGIC>MOL_PROPERTY
Tether
SciTegic.value.DoubleValue
0.000

@<TRIPOS>MOLECULE
guest-2_vm2.mol2 : vm2 ligand conformer 38
          23          22           1
SMALL
USER_CHARGES
 
@<TRIPOS>ATOM
       1    N1      19.215089   18.152610   25.591457 N.4        1 MOL1        -0.5940
       2    H1      19.120154   17.194948   25.238564 H          1 MOL1         0.3649
       3    H2      18.400108   18.333100   26.187432 H          1 MOL1         0.3649
       4    H3      20.039034   18.169140   26.201068 H          1 MOL1         0.3649
       5    C1      19.324307   19.161806   24.466636 C.3        1 MOL1         0.0207
       6    H4      19.393224   20.158030   24.911763 H          1 MOL1         0.0950
       7    H5      18.404219   19.110381   23.878652 H          1 MOL1         0.0950
       8    C2      20.539258   18.918012   23.552159 C.3        1 MOL1        -0.1415
       9    H6      21.454476   18.934579   24.158650 H          1 MOL1         0.0976
      10    H7      20.477797   17.913301   23.114883 H          1 MOL1         0.0976
      11    C3      20.664349   19.977647   22.429403 C.3        1 MOL1        -0.1375
      12    H8      21.558322   19.761215   21.829469 H          1 MOL1         0.0976
      13    H9      20.846214   20.959762   22.887322 H          1 MOL1         0.0976
      14    C4      19.427805   20.087901   21.496901 C.3        1 MOL1        -0.1375
      15    H10     18.570659   20.465343   22.070610 H          1 MOL1         0.0976
      16    H11     19.631176   20.852051   20.734089 H          1 MOL1         0.0976
      17    C5      19.016609   18.772023   20.788661 C.3        1 MOL1        -0.1350
      18    H12     18.129265   18.969338   20.171102 H          1 MOL1         0.0976
      19    H13     18.706437   18.022846   21.529368 H          1 MOL1         0.0976
      20    C6      20.128583   18.187001   19.888783 C.3        1 MOL1        -0.2365
      21    H14     20.464047   18.923559   19.147240 H          1 MOL1         0.0987
      22    H15     19.760620   17.307066   19.345496 H          1 MOL1         0.0987
      23    H16     20.998646   17.871668   20.477946 H          1 MOL1         0.0987
@<TRIPOS>BOND
    1     1     2    1
    2     1     3    1
    3     1     4    1
    4     1     5    1
    5     5     6    1
    6     5     7    1
    7     5     8    1
    8     8     9    1
    9     8    10    1
   10     8    11    1
   11    11    12    1
   12    11    13    1
   13    11    14    1
   14    14    15    1
   15    14    16    1
   16    14    17    1
   17    17    18    1
   18    17    19    1
   19    17    20    1
   20    20    21    1
   21    20    22    1
   22    20    23    1
@<TRIPOS>SUBSTRUCTURE
       1 MOL1            1 RESIDUE      1      MOL     
@<SCITEGIC>MOL_PROPERTY
VM2 Rank
SciTegic.value.IntegerValue
38

@<SCITEGIC>MOL_PROPERTY
Conf_Id
SciTegic.value.IntegerValue
441

@<SCITEGIC>MOL_PROPERTY
Probability
SciTegic.value.DoubleValue
0.65

@<SCITEGIC>MOL_PROPERTY
Sum Probability
SciTegic.value.DoubleValue
97.55

@<SCITEGIC>MOL_PROPERTY
Delta G
SciTegic.value.DoubleValue
1.740

@<SCITEGIC>MOL_PROPERTY
G
SciTegic.value.DoubleValue
39.656

@<SCITEGIC>MOL_PROPERTY
E
SciTegic.value.DoubleValue
11.473

@<SCITEGIC>MOL_PROPERTY
-TS
SciTegic.value.DoubleValue
28.183

@<SCITEGIC>MOL_PROPERTY
U+W
SciTegic.value.DoubleValue
-7.306

@<SCITEGIC>MOL_PROPERTY
U
SciTegic.value.DoubleValue
48.641

@<SCITEGIC>MOL_PROPERTY
W
SciTegic.value.DoubleValue
-55.947

@<SCITEGIC>MOL_PROPERTY
W(PB)
SciTegic.value.DoubleValue
-58.031

@<SCITEGIC>MOL_PROPERTY
W(SA)
SciTegic.value.DoubleValue
2.084

@<SCITEGIC>MOL_PROPERTY
Valence
SciTegic.value.DoubleValue
2.922

@<SCITEGIC>MOL_PROPERTY
Coulomb
SciTegic.value.DoubleValue
45.269

@<SCITEGIC>MOL_PROPERTY
VdW
SciTegic.value.DoubleValue
0.450

@<SCITEGIC>MOL_PROPERTY
VdW6
SciTegic.value.DoubleValue
-7.045

@<SCITEGIC>MOL_PROPERTY
VdW12
SciTegic.value.DoubleValue
7.495

@<SCITEGIC>MOL_PROPERTY
Bond
SciTegic.value.DoubleValue
0.220

@<SCITEGIC>MOL_PROPERTY
Angle
SciTegic.value.DoubleValue
1.205

@<SCITEGIC>MOL_PROPERTY
Pdih
SciTegic.value.DoubleValue
1.497

@<SCITEGIC>MOL_PROPERTY
Idih
SciTegic.value.DoubleValue
0.000

@<SCITEGIC>MOL_PROPERTY
Tether
SciTegic.value.DoubleValue
0.000

@<TRIPOS>MOLECULE
guest-2_vm2.mol2 : vm2 ligand conformer 39
          23          22           1
SMALL
USER_CHARGES
 
@<TRIPOS>ATOM
       1    N1      20.535591   18.701871   25.651660 N.4        1 MOL1        -0.5940
       2    H1      20.933626   19.386954   26.302957 H          1 MOL1         0.3649
       3    H2      21.307649   18.104918   25.338235 H          1 MOL1         0.3649
       4    H3      19.898276   18.110449   26.194647 H          1 MOL1         0.3649
       5    C1      19.831621   19.372851   24.489832 C.3        1 MOL1         0.0207
       6    H4      20.559454   20.007030   23.976988 H          1 MOL1         0.0950
       7    H5      19.043374   20.012447   24.895951 H          1 MOL1         0.0950
       8    C2      19.222354   18.370235   23.492152 C.3        1 MOL1        -0.1415
       9    H6      20.010744   17.719049   23.093615 H          1 MOL1         0.0976
      10    H7      18.521112   17.714382   24.024925 H          1 MOL1         0.0976
      11    C3      18.471475   19.065508   22.329468 C.3        1 MOL1        -0.1375
      12    H8      17.613003   19.614894   22.739969 H          1 MOL1         0.0976
      13    H9      18.043671   18.299284   21.669292 H          1 MOL1         0.0976
      14    C4      19.333800   20.048786   21.492617 C.3        1 MOL1        -0.1375
      15    H10     18.709210   20.468586   20.692103 H          1 MOL1         0.0976
      16    H11     19.623844   20.903366   22.118613 H          1 MOL1         0.0976
      17    C5      20.608925   19.434337   20.861169 C.3        1 MOL1        -0.1350
      18    H12     21.299620   19.101445   21.647454 H          1 MOL1         0.0976
      19    H13     21.140029   20.221663   20.308232 H          1 MOL1         0.0976
      20    C6      20.312234   18.263411   19.897102 C.3        1 MOL1        -0.2365
      21    H14     19.879108   17.405932   20.426904 H          1 MOL1         0.0987
      22    H15     21.235586   17.920679   19.412544 H          1 MOL1         0.0987
      23    H16     19.612701   18.569485   19.108489 H          1 MOL1         0.0987
@<TRIPOS>BOND
    1     1     2    1
    2     1     3    1
    3     1     4    1
    4     1     5    1
    5     5     6    1
    6     5     7    1
    7     5     8    1
    8     8     9    1
    9     8    10    1
   10     8    11    1
   11    11    12    1
   12    11    13    1
   13    11    14    1
   14    14    15    1
   15    14    16    1
   16    14    17    1
   17    17    18    1
   18    17    19    1
   19    17    20    1
   20    20    21    1
   21    20    22    1
   22    20    23    1
@<TRIPOS>SUBSTRUCTURE
       1 MOL1            1 RESIDUE      1      MOL     
@<SCITEGIC>MOL_PROPERTY
VM2 Rank
SciTegic.value.IntegerValue
39

@<SCITEGIC>MOL_PROPERTY
Conf_Id
SciTegic.value.IntegerValue
479

@<SCITEGIC>MOL_PROPERTY
Probability
SciTegic.value.DoubleValue
0.59

@<SCITEGIC>MOL_PROPERTY
Sum Probability
SciTegic.value.DoubleValue
98.14

@<SCITEGIC>MOL_PROPERTY
Delta G
SciTegic.value.DoubleValue
1.794

@<SCITEGIC>MOL_PROPERTY
G
SciTegic.value.DoubleValue
39.711

@<SCITEGIC>MOL_PROPERTY
E
SciTegic.value.DoubleValue
11.527

@<SCITEGIC>MOL_PROPERTY
-TS
SciTegic.value.DoubleValue
28.183

@<SCITEGIC>MOL_PROPERTY
U+W
SciTegic.value.DoubleValue
-7.252

@<SCITEGIC>MOL_PROPERTY
U
SciTegic.value.DoubleValue
48.641

@<SCITEGIC>MOL_PROPERTY
W
SciTegic.value.DoubleValue
-55.893

@<SCITEGIC>MOL_PROPERTY
W(PB)
SciTegic.value.DoubleValue
-57.963

@<SCITEGIC>MOL_PROPERTY
W(SA)
SciTegic.value.DoubleValue
2.070

@<SCITEGIC>MOL_PROPERTY
Valence
SciTegic.value.DoubleValue
2.922

@<SCITEGIC>MOL_PROPERTY
Coulomb
SciTegic.value.DoubleValue
45.269

@<SCITEGIC>MOL_PROPERTY
VdW
SciTegic.value.DoubleValue
0.449

@<SCITEGIC>MOL_PROPERTY
VdW6
SciTegic.value.DoubleValue
-7.045

@<SCITEGIC>MOL_PROPERTY
VdW12
SciTegic.value.DoubleValue
7.494

@<SCITEGIC>MOL_PROPERTY
Bond
SciTegic.value.DoubleValue
0.220

@<SCITEGIC>MOL_PROPERTY
Angle
SciTegic.value.DoubleValue
1.205

@<SCITEGIC>MOL_PROPERTY
Pdih
SciTegic.value.DoubleValue
1.497

@<SCITEGIC>MOL_PROPERTY
Idih
SciTegic.value.DoubleValue
0.000

@<SCITEGIC>MOL_PROPERTY
Tether
SciTegic.value.DoubleValue
0.000

@<TRIPOS>MOLECULE
guest-2_vm2.mol2 : vm2 ligand conformer 40
          23          22           1
SMALL
USER_CHARGES
 
@<TRIPOS>ATOM
       1    N1      19.091761   18.920117   25.429475 N.4        1 MOL1        -0.5940
       2    H1      18.516431   18.212232   24.963300 H          1 MOL1         0.3649
       3    H2      18.469186   19.461639   26.038485 H          1 MOL1         0.3649
       4    H3      19.748761   18.423078   26.039212 H          1 MOL1         0.3649
       5    C1      19.810752   19.803750   24.429266 C.3        1 MOL1         0.0207
       6    H4      20.378944   20.549548   24.991776 H          1 MOL1         0.0950
       7    H5      19.057013   20.327593   23.835691 H          1 MOL1         0.0950
       8    C2      20.763664   19.031238   23.495042 C.3        1 MOL1        -0.1415
       9    H6      21.297917   19.750358   22.861063 H          1 MOL1         0.0976
      10    H7      21.533976   18.533621   24.098870 H          1 MOL1         0.0976
      11    C3      20.053932   17.978310   22.604073 C.3        1 MOL1        -0.1375
      12    H8      19.655792   17.176092   23.239628 H          1 MOL1         0.0976
      13    H9      20.800683   17.494811   21.960333 H          1 MOL1         0.0976
      14    C4      18.900929   18.538038   21.727775 C.3        1 MOL1        -0.1375
      15    H10     18.480940   17.715137   21.133146 H          1 MOL1         0.0976
      16    H11     18.083099   18.881321   22.375308 H          1 MOL1         0.0976
      17    C5      19.300404   19.691333   20.772528 C.3        1 MOL1        -0.1350
      18    H12     19.630395   20.565537   21.349529 H          1 MOL1         0.0976
      19    H13     18.406422   20.014814   20.221318 H          1 MOL1         0.0976
      20    C6      20.394558   19.294214   19.755842 C.3        1 MOL1        -0.2365
      21    H14     20.579131   20.113963   19.049597 H          1 MOL1         0.0987
      22    H15     20.092571   18.412643   19.175699 H          1 MOL1         0.0987
      23    H16     21.344828   19.068091   20.255223 H          1 MOL1         0.0987
@<TRIPOS>BOND
    1     1     2    1
    2     1     3    1
    3     1     4    1
    4     1     5    1
    5     5     6    1
    6     5     7    1
    7     5     8    1
    8     8     9    1
    9     8    10    1
   10     8    11    1
   11    11    12    1
   12    11    13    1
   13    11    14    1
   14    14    15    1
   15    14    16    1
   16    14    17    1
   17    17    18    1
   18    17    19    1
   19    17    20    1
   20    20    21    1
   21    20    22    1
   22    20    23    1
@<TRIPOS>SUBSTRUCTURE
       1 MOL1            1 RESIDUE      1      MOL     
@<SCITEGIC>MOL_PROPERTY
VM2 Rank
SciTegic.value.IntegerValue
40

@<SCITEGIC>MOL_PROPERTY
Conf_Id
SciTegic.value.IntegerValue
1138

@<SCITEGIC>MOL_PROPERTY
Probability
SciTegic.value.DoubleValue
0.33

@<SCITEGIC>MOL_PROPERTY
Sum Probability
SciTegic.value.DoubleValue
98.47

@<SCITEGIC>MOL_PROPERTY
Delta G
SciTegic.value.DoubleValue
2.148

@<SCITEGIC>MOL_PROPERTY
G
SciTegic.value.DoubleValue
40.064

@<SCITEGIC>MOL_PROPERTY
E
SciTegic.value.DoubleValue
11.688

@<SCITEGIC>MOL_PROPERTY
-TS
SciTegic.value.DoubleValue
28.376

@<SCITEGIC>MOL_PROPERTY
U+W
SciTegic.value.DoubleValue
-7.091

@<SCITEGIC>MOL_PROPERTY
U
SciTegic.value.DoubleValue
48.991

@<SCITEGIC>MOL_PROPERTY
W
SciTegic.value.DoubleValue
-56.082

@<SCITEGIC>MOL_PROPERTY
W(PB)
SciTegic.value.DoubleValue
-58.124

@<SCITEGIC>MOL_PROPERTY
W(SA)
SciTegic.value.DoubleValue
2.041

@<SCITEGIC>MOL_PROPERTY
Valence
SciTegic.value.DoubleValue
3.025

@<SCITEGIC>MOL_PROPERTY
Coulomb
SciTegic.value.DoubleValue
45.510

@<SCITEGIC>MOL_PROPERTY
VdW
SciTegic.value.DoubleValue
0.456

@<SCITEGIC>MOL_PROPERTY
VdW6
SciTegic.value.DoubleValue
-7.727

@<SCITEGIC>MOL_PROPERTY
VdW12
SciTegic.value.DoubleValue
8.183

@<SCITEGIC>MOL_PROPERTY
Bond
SciTegic.value.DoubleValue
0.246

@<SCITEGIC>MOL_PROPERTY
Angle
SciTegic.value.DoubleValue
1.276

@<SCITEGIC>MOL_PROPERTY
Pdih
SciTegic.value.DoubleValue
1.503

@<SCITEGIC>MOL_PROPERTY
Idih
SciTegic.value.DoubleValue
0.000

@<SCITEGIC>MOL_PROPERTY
Tether
SciTegic.value.DoubleValue
0.000

@<TRIPOS>MOLECULE
guest-2_vm2.mol2 : vm2 ligand conformer 41
          23          22           1
SMALL
USER_CHARGES
 
@<TRIPOS>ATOM
       1    N1      20.091436   19.335853   25.475013 N.4        1 MOL1        -0.5940
       2    H1      19.934743   18.500384   26.047651 H          1 MOL1         0.3649
       3    H2      20.097963   20.138995   26.112709 H          1 MOL1         0.3649
       4    H3      21.032598   19.258685   25.077921 H          1 MOL1         0.3649
       5    C1      19.038710   19.482667   24.394093 C.3        1 MOL1         0.0207
       6    H4      19.243109   20.404988   23.844172 H          1 MOL1         0.0950
       7    H5      18.068249   19.588562   24.886501 H          1 MOL1         0.0950
       8    C2      18.988981   18.293168   23.414192 C.3        1 MOL1        -0.1415
       9    H6      18.753601   17.377292   23.972205 H          1 MOL1         0.0976
      10    H7      18.154013   18.442839   22.717835 H          1 MOL1         0.0976
      11    C3      20.301693   18.081363   22.615363 C.3        1 MOL1        -0.1375
      12    H8      20.169591   17.232380   21.931559 H          1 MOL1         0.0976
      13    H9      21.099794   17.776625   23.305414 H          1 MOL1         0.0976
      14    C4      20.782927   19.320771   21.813561 C.3        1 MOL1        -0.1375
      15    H10     21.063840   20.121027   22.511174 H          1 MOL1         0.0976
      16    H11     21.706437   19.056636   21.280173 H          1 MOL1         0.0976
      17    C5      19.760182   19.882553   20.793483 C.3        1 MOL1        -0.1350
      18    H12     20.201564   20.761443   20.303166 H          1 MOL1         0.0976
      19    H13     18.864890   20.247130   21.314627 H          1 MOL1         0.0976
      20    C6      19.352071   18.860624   19.708296 C.3        1 MOL1        -0.2365
      21    H14     18.697013   19.331159   18.963760 H          1 MOL1         0.0987
      22    H15     18.806253   18.012268   20.139459 H          1 MOL1         0.0987
      23    H16     20.233165   18.471104   19.182106 H          1 MOL1         0.0987
@<TRIPOS>BOND
    1     1     2    1
    2     1     3    1
    3     1     4    1
    4     1     5    1
    5     5     6    1
    6     5     7    1
    7     5     8    1
    8     8     9    1
    9     8    10    1
   10     8    11    1
   11    11    12    1
   12    11    13    1
   13    11    14    1
   14    14    15    1
   15    14    16    1
   16    14    17    1
   17    17    18    1
   18    17    19    1
   19    17    20    1
   20    20    21    1
   21    20    22    1
   22    20    23    1
@<TRIPOS>SUBSTRUCTURE
       1 MOL1            1 RESIDUE      1      MOL     
@<SCITEGIC>MOL_PROPERTY
VM2 Rank
SciTegic.value.IntegerValue
41

@<SCITEGIC>MOL_PROPERTY
Conf_Id
SciTegic.value.IntegerValue
758

@<SCITEGIC>MOL_PROPERTY
Probability
SciTegic.value.DoubleValue
0.31

@<SCITEGIC>MOL_PROPERTY
Sum Probability
SciTegic.value.DoubleValue
98.78

@<SCITEGIC>MOL_PROPERTY
Delta G
SciTegic.value.DoubleValue
2.187

@<SCITEGIC>MOL_PROPERTY
G
SciTegic.value.DoubleValue
40.103

@<SCITEGIC>MOL_PROPERTY
E
SciTegic.value.DoubleValue
11.727

@<SCITEGIC>MOL_PROPERTY
-TS
SciTegic.value.DoubleValue
28.376

@<SCITEGIC>MOL_PROPERTY
U+W
SciTegic.value.DoubleValue
-7.052

@<SCITEGIC>MOL_PROPERTY
U
SciTegic.value.DoubleValue
48.991

@<SCITEGIC>MOL_PROPERTY
W
SciTegic.value.DoubleValue
-56.042

@<SCITEGIC>MOL_PROPERTY
W(PB)
SciTegic.value.DoubleValue
-58.099

@<SCITEGIC>MOL_PROPERTY
W(SA)
SciTegic.value.DoubleValue
2.057

@<SCITEGIC>MOL_PROPERTY
Valence
SciTegic.value.DoubleValue
3.025

@<SCITEGIC>MOL_PROPERTY
Coulomb
SciTegic.value.DoubleValue
45.510

@<SCITEGIC>MOL_PROPERTY
VdW
SciTegic.value.DoubleValue
0.456

@<SCITEGIC>MOL_PROPERTY
VdW6
SciTegic.value.DoubleValue
-7.727

@<SCITEGIC>MOL_PROPERTY
VdW12
SciTegic.value.DoubleValue
8.183

@<SCITEGIC>MOL_PROPERTY
Bond
SciTegic.value.DoubleValue
0.246

@<SCITEGIC>MOL_PROPERTY
Angle
SciTegic.value.DoubleValue
1.276

@<SCITEGIC>MOL_PROPERTY
Pdih
SciTegic.value.DoubleValue
1.503

@<SCITEGIC>MOL_PROPERTY
Idih
SciTegic.value.DoubleValue
0.000

@<SCITEGIC>MOL_PROPERTY
Tether
SciTegic.value.DoubleValue
0.000

@<TRIPOS>MOLECULE
guest-2_vm2.mol2 : vm2 ligand conformer 42
          23          22           1
SMALL
USER_CHARGES
 
@<TRIPOS>ATOM
       1    N1      20.633303   18.014693   24.831786 N.4        1 MOL1        -0.5940
       2    H1      20.955602   17.872223   23.870808 H          1 MOL1         0.3649
       3    H2      20.043553   17.212457   25.075469 H          1 MOL1         0.3649
       4    H3      21.459889   17.971334   25.437573 H          1 MOL1         0.3649
       5    C1      19.889424   19.326831   24.989696 C.3        1 MOL1         0.0207
       6    H4      20.580032   20.147048   24.776102 H          1 MOL1         0.0950
       7    H5      19.592018   19.399482   26.039363 H          1 MOL1         0.0950
       8    C2      18.633384   19.454865   24.102669 C.3        1 MOL1        -0.1415
       9    H6      18.071786   18.511232   24.107216 H          1 MOL1         0.0976
      10    H7      17.972718   20.200399   24.564809 H          1 MOL1         0.0976
      11    C3      18.915914   19.908286   22.647339 C.3        1 MOL1        -0.1375
      12    H8      19.421828   20.883671   22.660009 H          1 MOL1         0.0976
      13    H9      17.951094   20.070793   22.147171 H          1 MOL1         0.0976
      14    C4      19.749296   18.905614   21.814304 C.3        1 MOL1        -0.1375
      15    H10     20.768767   18.846297   22.214891 H          1 MOL1         0.0976
      16    H11     19.306664   17.902809   21.890896 H          1 MOL1         0.0976
      17    C5      19.825791   19.319996   20.327985 C.3        1 MOL1        -0.1350
      18    H12     20.261438   20.325667   20.245070 H          1 MOL1         0.0976
      19    H13     18.812889   19.377638   19.905288 H          1 MOL1         0.0976
      20    C6      20.668887   18.326714   19.500221 C.3        1 MOL1        -0.2365
      21    H14     21.699022   18.273778   19.875996 H          1 MOL1         0.0987
      22    H15     20.710081   18.636570   18.447920 H          1 MOL1         0.0987
      23    H16     20.238917   17.317269   19.537311 H          1 MOL1         0.0987
@<TRIPOS>BOND
    1     1     2    1
    2     1     3    1
    3     1     4    1
    4     1     5    1
    5     5     6    1
    6     5     7    1
    7     5     8    1
    8     8     9    1
    9     8    10    1
   10     8    11    1
   11    11    12    1
   12    11    13    1
   13    11    14    1
   14    14    15    1
   15    14    16    1
   16    14    17    1
   17    17    18    1
   18    17    19    1
   19    17    20    1
   20    20    21    1
   21    20    22    1
   22    20    23    1
@<TRIPOS>SUBSTRUCTURE
       1 MOL1            1 RESIDUE      1      MOL     
@<SCITEGIC>MOL_PROPERTY
VM2 Rank
SciTegic.value.IntegerValue
42

@<SCITEGIC>MOL_PROPERTY
Conf_Id
SciTegic.value.IntegerValue
882

@<SCITEGIC>MOL_PROPERTY
Probability
SciTegic.value.DoubleValue
0.11

@<SCITEGIC>MOL_PROPERTY
Sum Probability
SciTegic.value.DoubleValue
98.88

@<SCITEGIC>MOL_PROPERTY
Delta G
SciTegic.value.DoubleValue
2.812

@<SCITEGIC>MOL_PROPERTY
G
SciTegic.value.DoubleValue
40.728

@<SCITEGIC>MOL_PROPERTY
E
SciTegic.value.DoubleValue
13.064

@<SCITEGIC>MOL_PROPERTY
-TS
SciTegic.value.DoubleValue
27.665

@<SCITEGIC>MOL_PROPERTY
U+W
SciTegic.value.DoubleValue
-5.716

@<SCITEGIC>MOL_PROPERTY
U
SciTegic.value.DoubleValue
50.170

@<SCITEGIC>MOL_PROPERTY
W
SciTegic.value.DoubleValue
-55.885

@<SCITEGIC>MOL_PROPERTY
W(PB)
SciTegic.value.DoubleValue
-57.989

@<SCITEGIC>MOL_PROPERTY
W(SA)
SciTegic.value.DoubleValue
2.104

@<SCITEGIC>MOL_PROPERTY
Valence
SciTegic.value.DoubleValue
3.335

@<SCITEGIC>MOL_PROPERTY
Coulomb
SciTegic.value.DoubleValue
46.425

@<SCITEGIC>MOL_PROPERTY
VdW
SciTegic.value.DoubleValue
0.410

@<SCITEGIC>MOL_PROPERTY
VdW6
SciTegic.value.DoubleValue
-6.121

@<SCITEGIC>MOL_PROPERTY
VdW12
SciTegic.value.DoubleValue
6.530

@<SCITEGIC>MOL_PROPERTY
Bond
SciTegic.value.DoubleValue
0.172

@<SCITEGIC>MOL_PROPERTY
Angle
SciTegic.value.DoubleValue
0.958

@<SCITEGIC>MOL_PROPERTY
Pdih
SciTegic.value.DoubleValue
2.205

@<SCITEGIC>MOL_PROPERTY
Idih
SciTegic.value.DoubleValue
0.000

@<SCITEGIC>MOL_PROPERTY
Tether
SciTegic.value.DoubleValue
0.000

@<TRIPOS>MOLECULE
guest-2_vm2.mol2 : vm2 ligand conformer 43
          23          22           1
SMALL
USER_CHARGES
 
@<TRIPOS>ATOM
       1    N1      19.696807   17.625038   24.789074 N.4        1 MOL1        -0.5940
       2    H1      19.646346   17.327372   23.811063 H          1 MOL1         0.3649
       3    H2      19.100215   16.989583   25.329793 H          1 MOL1         0.3649
       4    H3      20.659775   17.468884   25.103837 H          1 MOL1         0.3649
       5    C1      19.277465   19.072228   24.961689 C.3        1 MOL1         0.0207
       6    H4      19.353122   19.300199   26.028382 H          1 MOL1         0.0950
       7    H5      18.228598   19.168647   24.668605 H          1 MOL1         0.0950
       8    C2      20.137287   20.080566   24.171242 C.3        1 MOL1        -0.1415
       9    H6      20.037220   21.059333   24.658968 H          1 MOL1         0.0976
      10    H7      21.199248   19.812400   24.249878 H          1 MOL1         0.0976
      11    C3      19.730978   20.247398   22.684475 C.3        1 MOL1        -0.1375
      12    H8      20.332100   21.061190   22.255699 H          1 MOL1         0.0976
      13    H9      18.684347   20.577040   22.626292 H          1 MOL1         0.0976
      14    C4      19.920402   18.976834   21.822147 C.3        1 MOL1        -0.1375
      15    H10     20.935083   18.580162   21.965253 H          1 MOL1         0.0976
      16    H11     19.215585   18.200384   22.144124 H          1 MOL1         0.0976
      17    C5      19.688769   19.262962   20.321754 C.3        1 MOL1        -0.1350
      18    H12     20.391880   20.034291   19.977292 H          1 MOL1         0.0976
      19    H13     18.677458   19.666817   20.172804 H          1 MOL1         0.0976
      20    C6      19.864293   17.991973   19.463619 C.3        1 MOL1        -0.2365
      21    H14     19.149425   17.213265   19.759869 H          1 MOL1         0.0987
      22    H15     20.877862   17.582935   19.566548 H          1 MOL1         0.0987
      23    H16     19.697684   18.215349   18.401833 H          1 MOL1         0.0987
@<TRIPOS>BOND
    1     1     2    1
    2     1     3    1
    3     1     4    1
    4     1     5    1
    5     5     6    1
    6     5     7    1
    7     5     8    1
    8     8     9    1
    9     8    10    1
   10     8    11    1
   11    11    12    1
   12    11    13    1
   13    11    14    1
   14    14    15    1
   15    14    16    1
   16    14    17    1
   17    17    18    1
   18    17    19    1
   19    17    20    1
   20    20    21    1
   21    20    22    1
   22    20    23    1
@<TRIPOS>SUBSTRUCTURE
       1 MOL1            1 RESIDUE      1      MOL     
@<SCITEGIC>MOL_PROPERTY
VM2 Rank
SciTegic.value.IntegerValue
43

@<SCITEGIC>MOL_PROPERTY
Conf_Id
SciTegic.value.IntegerValue
174

@<SCITEGIC>MOL_PROPERTY
Probability
SciTegic.value.DoubleValue
0.11

@<SCITEGIC>MOL_PROPERTY
Sum Probability
SciTegic.value.DoubleValue
98.99

@<SCITEGIC>MOL_PROPERTY
Delta G
SciTegic.value.DoubleValue
2.817

@<SCITEGIC>MOL_PROPERTY
G
SciTegic.value.DoubleValue
40.734

@<SCITEGIC>MOL_PROPERTY
E
SciTegic.value.DoubleValue
13.069

@<SCITEGIC>MOL_PROPERTY
-TS
SciTegic.value.DoubleValue
27.665

@<SCITEGIC>MOL_PROPERTY
U+W
SciTegic.value.DoubleValue
-5.710

@<SCITEGIC>MOL_PROPERTY
U
SciTegic.value.DoubleValue
50.170

@<SCITEGIC>MOL_PROPERTY
W
SciTegic.value.DoubleValue
-55.880

@<SCITEGIC>MOL_PROPERTY
W(PB)
SciTegic.value.DoubleValue
-57.975

@<SCITEGIC>MOL_PROPERTY
W(SA)
SciTegic.value.DoubleValue
2.095

@<SCITEGIC>MOL_PROPERTY
Valence
SciTegic.value.DoubleValue
3.335

@<SCITEGIC>MOL_PROPERTY
Coulomb
SciTegic.value.DoubleValue
46.425

@<SCITEGIC>MOL_PROPERTY
VdW
SciTegic.value.DoubleValue
0.410

@<SCITEGIC>MOL_PROPERTY
VdW6
SciTegic.value.DoubleValue
-6.121

@<SCITEGIC>MOL_PROPERTY
VdW12
SciTegic.value.DoubleValue
6.531

@<SCITEGIC>MOL_PROPERTY
Bond
SciTegic.value.DoubleValue
0.172

@<SCITEGIC>MOL_PROPERTY
Angle
SciTegic.value.DoubleValue
0.958

@<SCITEGIC>MOL_PROPERTY
Pdih
SciTegic.value.DoubleValue
2.205

@<SCITEGIC>MOL_PROPERTY
Idih
SciTegic.value.DoubleValue
0.000

@<SCITEGIC>MOL_PROPERTY
Tether
SciTegic.value.DoubleValue
0.000

@<TRIPOS>MOLECULE
guest-2_vm2.mol2 : vm2 ligand conformer 44
          23          22           1
SMALL
USER_CHARGES
 
@<TRIPOS>ATOM
       1    N1      20.693206   18.841416   25.643341 N.4        1 MOL1        -0.5940
       2    H1      20.120345   19.302079   26.357788 H          1 MOL1         0.3649
       3    H2      21.666903   19.107442   25.825347 H          1 MOL1         0.3649
       4    H3      20.624621   17.831787   25.806950 H          1 MOL1         0.3649
       5    C1      20.259044   19.217811   24.241326 C.3        1 MOL1         0.0207
       6    H4      20.928942   18.714953   23.539686 H          1 MOL1         0.0950
       7    H5      20.382864   20.298139   24.127582 H          1 MOL1         0.0950
       8    C2      18.802300   18.827050   23.935694 C.3        1 MOL1        -0.1415
       9    H6      18.694689   17.736537   24.007027 H          1 MOL1         0.0976
      10    H7      18.150988   19.254205   24.709833 H          1 MOL1         0.0976
      11    C3      18.301402   19.307796   22.550243 C.3        1 MOL1        -0.1375
      12    H8      18.333690   20.404733   22.495057 H          1 MOL1         0.0976
      13    H9      17.239070   19.037996   22.471584 H          1 MOL1         0.0976
      14    C4      19.046257   18.686367   21.339682 C.3        1 MOL1        -0.1375
      15    H10     19.344606   17.654191   21.569572 H          1 MOL1         0.0976
      16    H11     18.340008   18.617331   20.500620 H          1 MOL1         0.0976
      17    C5      20.270204   19.508720   20.867955 C.3        1 MOL1        -0.1350
      18    H12     21.011546   19.600760   21.670121 H          1 MOL1         0.0976
      19    H13     19.952972   20.530247   20.615714 H          1 MOL1         0.0976
      20    C6      20.943586   18.867841   19.635760 C.3        1 MOL1        -0.2365
      21    H14     21.805413   19.464932   19.310516 H          1 MOL1         0.0987
      22    H15     20.243454   18.800625   18.792834 H          1 MOL1         0.0987
      23    H16     21.302056   17.855601   19.863995 H          1 MOL1         0.0987
@<TRIPOS>BOND
    1     1     2    1
    2     1     3    1
    3     1     4    1
    4     1     5    1
    5     5     6    1
    6     5     7    1
    7     5     8    1
    8     8     9    1
    9     8    10    1
   10     8    11    1
   11    11    12    1
   12    11    13    1
   13    11    14    1
   14    14    15    1
   15    14    16    1
   16    14    17    1
   17    17    18    1
   18    17    19    1
   19    17    20    1
   20    20    21    1
   21    20    22    1
   22    20    23    1
@<TRIPOS>SUBSTRUCTURE
       1 MOL1            1 RESIDUE      1      MOL     
@<SCITEGIC>MOL_PROPERTY
VM2 Rank
SciTegic.value.IntegerValue
44

@<SCITEGIC>MOL_PROPERTY
Conf_Id
SciTegic.value.IntegerValue
1118

@<SCITEGIC>MOL_PROPERTY
Probability
SciTegic.value.DoubleValue
0.10

@<SCITEGIC>MOL_PROPERTY
Sum Probability
SciTegic.value.DoubleValue
99.09

@<SCITEGIC>MOL_PROPERTY
Delta G
SciTegic.value.DoubleValue
2.836

@<SCITEGIC>MOL_PROPERTY
G
SciTegic.value.DoubleValue
40.753

@<SCITEGIC>MOL_PROPERTY
E
SciTegic.value.DoubleValue
13.107

@<SCITEGIC>MOL_PROPERTY
-TS
SciTegic.value.DoubleValue
27.646

@<SCITEGIC>MOL_PROPERTY
U+W
SciTegic.value.DoubleValue
-5.672

@<SCITEGIC>MOL_PROPERTY
U
SciTegic.value.DoubleValue
50.133

@<SCITEGIC>MOL_PROPERTY
W
SciTegic.value.DoubleValue
-55.805

@<SCITEGIC>MOL_PROPERTY
W(PB)
SciTegic.value.DoubleValue
-57.921

@<SCITEGIC>MOL_PROPERTY
W(SA)
SciTegic.value.DoubleValue
2.116

@<SCITEGIC>MOL_PROPERTY
Valence
SciTegic.value.DoubleValue
4.276

@<SCITEGIC>MOL_PROPERTY
Coulomb
SciTegic.value.DoubleValue
45.339

@<SCITEGIC>MOL_PROPERTY
VdW
SciTegic.value.DoubleValue
0.519

@<SCITEGIC>MOL_PROPERTY
VdW6
SciTegic.value.DoubleValue
-6.084

@<SCITEGIC>MOL_PROPERTY
VdW12
SciTegic.value.DoubleValue
6.603

@<SCITEGIC>MOL_PROPERTY
Bond
SciTegic.value.DoubleValue
0.193

@<SCITEGIC>MOL_PROPERTY
Angle
SciTegic.value.DoubleValue
1.128

@<SCITEGIC>MOL_PROPERTY
Pdih
SciTegic.value.DoubleValue
2.955

@<SCITEGIC>MOL_PROPERTY
Idih
SciTegic.value.DoubleValue
0.000

@<SCITEGIC>MOL_PROPERTY
Tether
SciTegic.value.DoubleValue
0.000

@<TRIPOS>MOLECULE
guest-2_vm2.mol2 : vm2 ligand conformer 45
          23          22           1
SMALL
USER_CHARGES
 
@<TRIPOS>ATOM
       1    N1      19.006277   18.139727   25.566434 N.4        1 MOL1        -0.5940
       2    H1      19.026723   18.847285   26.307893 H          1 MOL1         0.3649
       3    H2      19.756547   17.470774   25.767472 H          1 MOL1         0.3649
       4    H3      18.120344   17.632126   25.663623 H          1 MOL1         0.3649
       5    C1      19.153404   18.757821   24.190887 C.3        1 MOL1         0.0207
       6    H4      18.310422   19.435918   24.032957 H          1 MOL1         0.0950
       7    H5      19.093740   17.951377   23.456029 H          1 MOL1         0.0950
       8    C2      20.476290   19.523448   24.012011 C.3        1 MOL1        -0.1415
       9    H6      20.570908   20.260989   24.820121 H          1 MOL1         0.0976
      10    H7      21.318401   18.828049   24.126716 H          1 MOL1         0.0976
      11    C3      20.595041   20.261874   22.654767 C.3        1 MOL1        -0.1375
      12    H8      21.537890   20.826147   22.667468 H          1 MOL1         0.0976
      13    H9      19.800077   21.014707   22.561843 H          1 MOL1         0.0976
      14    C4      20.605999   19.335117   21.410803 C.3        1 MOL1        -0.1375
      15    H10     21.215805   19.813390   20.631720 H          1 MOL1         0.0976
      16    H11     21.109383   18.388236   21.650113 H          1 MOL1         0.0976
      17    C5      19.201212   19.064100   20.819224 C.3        1 MOL1        -0.1350
      18    H12     18.720362   20.017558   20.559450 H          1 MOL1         0.0976
      19    H13     18.553348   18.578411   21.558081 H          1 MOL1         0.0976
      20    C6      19.277777   18.174912   19.559875 C.3        1 MOL1        -0.2365
      21    H14     18.275304   17.996606   19.149628 H          1 MOL1         0.0987
      22    H15     19.724950   17.199580   19.792220 H          1 MOL1         0.0987
      23    H16     19.882307   18.650255   18.776408 H          1 MOL1         0.0987
@<TRIPOS>BOND
    1     1     2    1
    2     1     3    1
    3     1     4    1
    4     1     5    1
    5     5     6    1
    6     5     7    1
    7     5     8    1
    8     8     9    1
    9     8    10    1
   10     8    11    1
   11    11    12    1
   12    11    13    1
   13    11    14    1
   14    14    15    1
   15    14    16    1
   16    14    17    1
   17    17    18    1
   18    17    19    1
   19    17    20    1
   20    20    21    1
   21    20    22    1
   22    20    23    1
@<TRIPOS>SUBSTRUCTURE
       1 MOL1            1 RESIDUE      1      MOL     
@<SCITEGIC>MOL_PROPERTY
VM2 Rank
SciTegic.value.IntegerValue
45

@<SCITEGIC>MOL_PROPERTY
Conf_Id
SciTegic.value.IntegerValue
341

@<SCITEGIC>MOL_PROPERTY
Probability
SciTegic.value.DoubleValue
0.10

@<SCITEGIC>MOL_PROPERTY
Sum Probability
SciTegic.value.DoubleValue
99.19

@<SCITEGIC>MOL_PROPERTY
Delta G
SciTegic.value.DoubleValue
2.884

@<SCITEGIC>MOL_PROPERTY
G
SciTegic.value.DoubleValue
40.800

@<SCITEGIC>MOL_PROPERTY
E
SciTegic.value.DoubleValue
13.154

@<SCITEGIC>MOL_PROPERTY
-TS
SciTegic.value.DoubleValue
27.646

@<SCITEGIC>MOL_PROPERTY
U+W
SciTegic.value.DoubleValue
-5.625

@<SCITEGIC>MOL_PROPERTY
U
SciTegic.value.DoubleValue
50.133

@<SCITEGIC>MOL_PROPERTY
W
SciTegic.value.DoubleValue
-55.759

@<SCITEGIC>MOL_PROPERTY
W(PB)
SciTegic.value.DoubleValue
-57.887

@<SCITEGIC>MOL_PROPERTY
W(SA)
SciTegic.value.DoubleValue
2.128

@<SCITEGIC>MOL_PROPERTY
Valence
SciTegic.value.DoubleValue
4.276

@<SCITEGIC>MOL_PROPERTY
Coulomb
SciTegic.value.DoubleValue
45.339

@<SCITEGIC>MOL_PROPERTY
VdW
SciTegic.value.DoubleValue
0.519

@<SCITEGIC>MOL_PROPERTY
VdW6
SciTegic.value.DoubleValue
-6.084

@<SCITEGIC>MOL_PROPERTY
VdW12
SciTegic.value.DoubleValue
6.603

@<SCITEGIC>MOL_PROPERTY
Bond
SciTegic.value.DoubleValue
0.193

@<SCITEGIC>MOL_PROPERTY
Angle
SciTegic.value.DoubleValue
1.128

@<SCITEGIC>MOL_PROPERTY
Pdih
SciTegic.value.DoubleValue
2.955

@<SCITEGIC>MOL_PROPERTY
Idih
SciTegic.value.DoubleValue
0.000

@<SCITEGIC>MOL_PROPERTY
Tether
SciTegic.value.DoubleValue
0.000

@<TRIPOS>MOLECULE
guest-2_vm2.mol2 : vm2 ligand conformer 46
          23          22           1
SMALL
USER_CHARGES
 
@<TRIPOS>ATOM
       1    N1      20.368539   18.357322   25.866521 N.4        1 MOL1        -0.5940
       2    H1      19.660494   17.642139   26.061531 H          1 MOL1         0.3649
       3    H2      20.598705   18.800539   26.762422 H          1 MOL1         0.3649
       4    H3      21.212344   17.868421   25.550701 H          1 MOL1         0.3649
       5    C1      19.885083   19.368279   24.846602 C.3        1 MOL1         0.0207
       6    H4      20.673597   20.113280   24.709883 H          1 MOL1         0.0950
       7    H5      19.005922   19.870234   25.259630 H          1 MOL1         0.0950
       8    C2      19.530189   18.735145   23.489579 C.3        1 MOL1        -0.1415
       9    H6      20.409156   18.213396   23.094789 H          1 MOL1         0.0976
      10    H7      18.750186   17.976325   23.636700 H          1 MOL1         0.0976
      11    C3      19.031288   19.800773   22.484194 C.3        1 MOL1        -0.1375
      12    H8      19.778125   20.598592   22.369434 H          1 MOL1         0.0976
      13    H9      18.138790   20.279986   22.910282 H          1 MOL1         0.0976
      14    C4      18.658987   19.216155   21.096450 C.3        1 MOL1        -0.1375
      15    H10     18.307659   18.180324   21.200265 H          1 MOL1         0.0976
      16    H11     17.801064   19.781297   20.706489 H          1 MOL1         0.0976
      17    C5      19.787066   19.292420   20.035890 C.3        1 MOL1        -0.1350
      18    H12     20.059719   20.342879   19.862770 H          1 MOL1         0.0976
      19    H13     19.392181   18.919815   19.080349 H          1 MOL1         0.0976
      20    C6      21.054848   18.486908   20.394765 C.3        1 MOL1        -0.2365
      21    H14     20.807262   17.445892   20.639387 H          1 MOL1         0.0987
      22    H15     21.581514   18.931934   21.247825 H          1 MOL1         0.0987
      23    H16     21.754054   18.475729   19.548669 H          1 MOL1         0.0987
@<TRIPOS>BOND
    1     1     2    1
    2     1     3    1
    3     1     4    1
    4     1     5    1
    5     5     6    1
    6     5     7    1
    7     5     8    1
    8     8     9    1
    9     8    10    1
   10     8    11    1
   11    11    12    1
   12    11    13    1
   13    11    14    1
   14    14    15    1
   15    14    16    1
   16    14    17    1
   17    17    18    1
   18    17    19    1
   19    17    20    1
   20    20    21    1
   21    20    22    1
   22    20    23    1
@<TRIPOS>SUBSTRUCTURE
       1 MOL1            1 RESIDUE      1      MOL     
@<SCITEGIC>MOL_PROPERTY
VM2 Rank
SciTegic.value.IntegerValue
46

@<SCITEGIC>MOL_PROPERTY
Conf_Id
SciTegic.value.IntegerValue
79

@<SCITEGIC>MOL_PROPERTY
Probability
SciTegic.value.DoubleValue
0.05

@<SCITEGIC>MOL_PROPERTY
Sum Probability
SciTegic.value.DoubleValue
99.24

@<SCITEGIC>MOL_PROPERTY
Delta G
SciTegic.value.DoubleValue
3.294

@<SCITEGIC>MOL_PROPERTY
G
SciTegic.value.DoubleValue
41.210

@<SCITEGIC>MOL_PROPERTY
E
SciTegic.value.DoubleValue
13.349

@<SCITEGIC>MOL_PROPERTY
-TS
SciTegic.value.DoubleValue
27.862

@<SCITEGIC>MOL_PROPERTY
U+W
SciTegic.value.DoubleValue
-5.431

@<SCITEGIC>MOL_PROPERTY
U
SciTegic.value.DoubleValue
50.253

@<SCITEGIC>MOL_PROPERTY
W
SciTegic.value.DoubleValue
-55.684

@<SCITEGIC>MOL_PROPERTY
W(PB)
SciTegic.value.DoubleValue
-57.781

@<SCITEGIC>MOL_PROPERTY
W(SA)
SciTegic.value.DoubleValue
2.097

@<SCITEGIC>MOL_PROPERTY
Valence
SciTegic.value.DoubleValue
4.702

@<SCITEGIC>MOL_PROPERTY
Coulomb
SciTegic.value.DoubleValue
44.992

@<SCITEGIC>MOL_PROPERTY
VdW
SciTegic.value.DoubleValue
0.559

@<SCITEGIC>MOL_PROPERTY
VdW6
SciTegic.value.DoubleValue
-6.152

@<SCITEGIC>MOL_PROPERTY
VdW12
SciTegic.value.DoubleValue
6.711

@<SCITEGIC>MOL_PROPERTY
Bond
SciTegic.value.DoubleValue
0.198

@<SCITEGIC>MOL_PROPERTY
Angle
SciTegic.value.DoubleValue
1.163

@<SCITEGIC>MOL_PROPERTY
Pdih
SciTegic.value.DoubleValue
3.341

@<SCITEGIC>MOL_PROPERTY
Idih
SciTegic.value.DoubleValue
0.000

@<SCITEGIC>MOL_PROPERTY
Tether
SciTegic.value.DoubleValue
0.000

@<TRIPOS>MOLECULE
guest-2_vm2.mol2 : vm2 ligand conformer 47
          23          22           1
SMALL
USER_CHARGES
 
@<TRIPOS>ATOM
       1    N1      20.063014   17.854624   24.996585 N.4        1 MOL1        -0.5940
       2    H1      20.161415   17.394021   24.087905 H          1 MOL1         0.3649
       3    H2      19.164523   17.558256   25.391043 H          1 MOL1         0.3649
       4    H3      20.795449   17.477418   25.607580 H          1 MOL1         0.3649
       5    C1      20.153422   19.363603   24.877014 C.3        1 MOL1         0.0207
       6    H4      21.148200   19.624334   24.505871 H          1 MOL1         0.0950
       7    H5      20.051983   19.769614   25.887158 H          1 MOL1         0.0950
       8    C2      19.074851   19.995197   23.972224 C.3        1 MOL1        -0.1415
       9    H6      18.097017   19.539606   24.177394 H          1 MOL1         0.0976
      10    H7      18.979579   21.052086   24.254651 H          1 MOL1         0.0976
      11    C3      19.392045   19.935645   22.455954 C.3        1 MOL1        -0.1375
      12    H8      20.348866   20.441331   22.269093 H          1 MOL1         0.0976
      13    H9      18.627303   20.517593   21.923292 H          1 MOL1         0.0976
      14    C4      19.431254   18.503289   21.867127 C.3        1 MOL1        -0.1375
      15    H10     20.309814   17.966363   22.245764 H          1 MOL1         0.0976
      16    H11     18.545479   17.947993   22.205223 H          1 MOL1         0.0976
      17    C5      19.464294   18.480103   20.319877 C.3        1 MOL1        -0.1350
      18    H12     18.573641   18.985581   19.921070 H          1 MOL1         0.0976
      19    H13     19.402700   17.436671   19.980314 H          1 MOL1         0.0976
      20    C6      20.737121   19.124538   19.725219 C.3        1 MOL1        -0.2365
      21    H14     20.784863   20.198410   19.944771 H          1 MOL1         0.0987
      22    H15     20.751985   19.009763   18.633648 H          1 MOL1         0.0987
      23    H16     21.643259   18.650983   20.124785 H          1 MOL1         0.0987
@<TRIPOS>BOND
    1     1     2    1
    2     1     3    1
    3     1     4    1
    4     1     5    1
    5     5     6    1
    6     5     7    1
    7     5     8    1
    8     8     9    1
    9     8    10    1
   10     8    11    1
   11    11    12    1
   12    11    13    1
   13    11    14    1
   14    14    15    1
   15    14    16    1
   16    14    17    1
   17    17    18    1
   18    17    19    1
   19    17    20    1
   20    20    21    1
   21    20    22    1
   22    20    23    1
@<TRIPOS>SUBSTRUCTURE
       1 MOL1            1 RESIDUE      1      MOL     
@<SCITEGIC>MOL_PROPERTY
VM2 Rank
SciTegic.value.IntegerValue
47

@<SCITEGIC>MOL_PROPERTY
Conf_Id
SciTegic.value.IntegerValue
918

@<SCITEGIC>MOL_PROPERTY
Probability
SciTegic.value.DoubleValue
0.05

@<SCITEGIC>MOL_PROPERTY
Sum Probability
SciTegic.value.DoubleValue
99.28

@<SCITEGIC>MOL_PROPERTY
Delta G
SciTegic.value.DoubleValue
3.296

@<SCITEGIC>MOL_PROPERTY
G
SciTegic.value.DoubleValue
41.212

@<SCITEGIC>MOL_PROPERTY
E
SciTegic.value.DoubleValue
13.412

@<SCITEGIC>MOL_PROPERTY
-TS
SciTegic.value.DoubleValue
27.800

@<SCITEGIC>MOL_PROPERTY
U+W
SciTegic.value.DoubleValue
-5.367

@<SCITEGIC>MOL_PROPERTY
U
SciTegic.value.DoubleValue
50.658

@<SCITEGIC>MOL_PROPERTY
W
SciTegic.value.DoubleValue
-56.025

@<SCITEGIC>MOL_PROPERTY
W(PB)
SciTegic.value.DoubleValue
-58.107

@<SCITEGIC>MOL_PROPERTY
W(SA)
SciTegic.value.DoubleValue
2.082

@<SCITEGIC>MOL_PROPERTY
Valence
SciTegic.value.DoubleValue
3.781

@<SCITEGIC>MOL_PROPERTY
Coulomb
SciTegic.value.DoubleValue
46.354

@<SCITEGIC>MOL_PROPERTY
VdW
SciTegic.value.DoubleValue
0.522

@<SCITEGIC>MOL_PROPERTY
VdW6
SciTegic.value.DoubleValue
-6.753

@<SCITEGIC>MOL_PROPERTY
VdW12
SciTegic.value.DoubleValue
7.276

@<SCITEGIC>MOL_PROPERTY
Bond
SciTegic.value.DoubleValue
0.207

@<SCITEGIC>MOL_PROPERTY
Angle
SciTegic.value.DoubleValue
1.137

@<SCITEGIC>MOL_PROPERTY
Pdih
SciTegic.value.DoubleValue
2.438

@<SCITEGIC>MOL_PROPERTY
Idih
SciTegic.value.DoubleValue
0.000

@<SCITEGIC>MOL_PROPERTY
Tether
SciTegic.value.DoubleValue
0.000

@<TRIPOS>MOLECULE
guest-2_vm2.mol2 : vm2 ligand conformer 48
          23          22           1
SMALL
USER_CHARGES
 
@<TRIPOS>ATOM
       1    N1      19.559673   18.020786   25.829652 N.4        1 MOL1        -0.5940
       2    H1      19.015099   18.141788   26.690381 H          1 MOL1         0.3649
       3    H2      20.547971   18.010831   26.101704 H          1 MOL1         0.3649
       4    H3      19.337533   17.088760   25.465297 H          1 MOL1         0.3649
       5    C1      19.262556   19.109349   24.818340 C.3        1 MOL1         0.0207
       6    H4      19.492708   20.072475   25.281907 H          1 MOL1         0.0950
       7    H5      18.192151   19.081477   24.597136 H          1 MOL1         0.0950
       8    C2      20.064860   18.957527   23.513894 C.3        1 MOL1        -0.1415
       9    H6      21.138260   18.969366   23.745256 H          1 MOL1         0.0976
      10    H7      19.847504   17.979953   23.069186 H          1 MOL1         0.0976
      11    C3      19.738706   20.095093   22.516484 C.3        1 MOL1        -0.1375
      12    H8      19.993038   21.051222   22.994901 H          1 MOL1         0.0976
      13    H9      18.658513   20.133068   22.318525 H          1 MOL1         0.0976
      14    C4      20.521497   19.991053   21.181331 C.3        1 MOL1        -0.1375
      15    H10     20.753743   21.009756   20.841047 H          1 MOL1         0.0976
      16    H11     21.493471   19.505760   21.345384 H          1 MOL1         0.0976
      17    C5      19.757885   19.280375   20.034598 C.3        1 MOL1        -0.1350
      18    H12     20.372840   19.328177   19.124999 H          1 MOL1         0.0976
      19    H13     18.836042   19.833818   19.807260 H          1 MOL1         0.0976
      20    C6      19.410823   17.802818   20.319701 C.3        1 MOL1        -0.2365
      21    H14     18.993684   17.327188   19.422669 H          1 MOL1         0.0987
      22    H15     18.659907   17.716094   21.114518 H          1 MOL1         0.0987
      23    H16     20.302822   17.235994   20.616184 H          1 MOL1         0.0987
@<TRIPOS>BOND
    1     1     2    1
    2     1     3    1
    3     1     4    1
    4     1     5    1
    5     5     6    1
    6     5     7    1
    7     5     8    1
    8     8     9    1
    9     8    10    1
   10     8    11    1
   11    11    12    1
   12    11    13    1
   13    11    14    1
   14    14    15    1
   15    14    16    1
   16    14    17    1
   17    17    18    1
   18    17    19    1
   19    17    20    1
   20    20    21    1
   21    20    22    1
   22    20    23    1
@<TRIPOS>SUBSTRUCTURE
       1 MOL1            1 RESIDUE      1      MOL     
@<SCITEGIC>MOL_PROPERTY
VM2 Rank
SciTegic.value.IntegerValue
48

@<SCITEGIC>MOL_PROPERTY
Conf_Id
SciTegic.value.IntegerValue
933

@<SCITEGIC>MOL_PROPERTY
Probability
SciTegic.value.DoubleValue
0.04

@<SCITEGIC>MOL_PROPERTY
Sum Probability
SciTegic.value.DoubleValue
99.33

@<SCITEGIC>MOL_PROPERTY
Delta G
SciTegic.value.DoubleValue
3.353

@<SCITEGIC>MOL_PROPERTY
G
SciTegic.value.DoubleValue
41.270

@<SCITEGIC>MOL_PROPERTY
E
SciTegic.value.DoubleValue
13.408

@<SCITEGIC>MOL_PROPERTY
-TS
SciTegic.value.DoubleValue
27.861

@<SCITEGIC>MOL_PROPERTY
U+W
SciTegic.value.DoubleValue
-5.371

@<SCITEGIC>MOL_PROPERTY
U
SciTegic.value.DoubleValue
50.253

@<SCITEGIC>MOL_PROPERTY
W
SciTegic.value.DoubleValue
-55.624

@<SCITEGIC>MOL_PROPERTY
W(PB)
SciTegic.value.DoubleValue
-57.711

@<SCITEGIC>MOL_PROPERTY
W(SA)
SciTegic.value.DoubleValue
2.087

@<SCITEGIC>MOL_PROPERTY
Valence
SciTegic.value.DoubleValue
4.702

@<SCITEGIC>MOL_PROPERTY
Coulomb
SciTegic.value.DoubleValue
44.992

@<SCITEGIC>MOL_PROPERTY
VdW
SciTegic.value.DoubleValue
0.559

@<SCITEGIC>MOL_PROPERTY
VdW6
SciTegic.value.DoubleValue
-6.152

@<SCITEGIC>MOL_PROPERTY
VdW12
SciTegic.value.DoubleValue
6.711

@<SCITEGIC>MOL_PROPERTY
Bond
SciTegic.value.DoubleValue
0.198

@<SCITEGIC>MOL_PROPERTY
Angle
SciTegic.value.DoubleValue
1.163

@<SCITEGIC>MOL_PROPERTY
Pdih
SciTegic.value.DoubleValue
3.340

@<SCITEGIC>MOL_PROPERTY
Idih
SciTegic.value.DoubleValue
0.000

@<SCITEGIC>MOL_PROPERTY
Tether
SciTegic.value.DoubleValue
0.000

@<TRIPOS>MOLECULE
guest-2_vm2.mol2 : vm2 ligand conformer 49
          23          22           1
SMALL
USER_CHARGES
 
@<TRIPOS>ATOM
       1    N1      20.197820   17.910795   25.002788 N.4        1 MOL1        -0.5940
       2    H1      20.525495   17.545605   24.104565 H          1 MOL1         0.3649
       3    H2      19.903575   17.106321   25.566970 H          1 MOL1         0.3649
       4    H3      21.007589   18.325360   25.475152 H          1 MOL1         0.3649
       5    C1      19.074989   18.914860   24.827871 C.3        1 MOL1         0.0207
       6    H4      18.780274   19.240479   25.829189 H          1 MOL1         0.0950
       7    H5      18.221061   18.406205   24.372471 H          1 MOL1         0.0950
       8    C2      19.454768   20.153318   23.989505 C.3        1 MOL1        -0.1415
       9    H6      18.751258   20.957103   24.244180 H          1 MOL1         0.0976
      10    H7      20.447699   20.517863   24.284481 H          1 MOL1         0.0976
      11    C3      19.391959   19.935564   22.455923 C.3        1 MOL1        -0.1375
      12    H8      19.557939   20.904732   21.965632 H          1 MOL1         0.0976
      13    H9      18.376847   19.620757   22.179178 H          1 MOL1         0.0976
      14    C4      20.424363   18.916406   21.912451 C.3        1 MOL1        -0.1375
      15    H10     21.412979   19.140937   22.336107 H          1 MOL1         0.0976
      16    H11     20.158466   17.903353   22.238871 H          1 MOL1         0.0976
      17    C5      20.537810   18.926624   20.368871 C.3        1 MOL1        -0.1350
      18    H12     21.346114   18.245010   20.069046 H          1 MOL1         0.0976
      19    H13     20.836189   19.926663   20.024328 H          1 MOL1         0.0976
      20    C6      19.234290   18.499433   19.656591 C.3        1 MOL1        -0.2365
      21    H14     18.902374   17.510933   19.999656 H          1 MOL1         0.0987
      22    H15     19.389936   18.443188   18.571450 H          1 MOL1         0.0987
      23    H16     18.423493   19.216212   19.836923 H          1 MOL1         0.0987
@<TRIPOS>BOND
    1     1     2    1
    2     1     3    1
    3     1     4    1
    4     1     5    1
    5     5     6    1
    6     5     7    1
    7     5     8    1
    8     8     9    1
    9     8    10    1
   10     8    11    1
   11    11    12    1
   12    11    13    1
   13    11    14    1
   14    14    15    1
   15    14    16    1
   16    14    17    1
   17    17    18    1
   18    17    19    1
   19    17    20    1
   20    20    21    1
   21    20    22    1
   22    20    23    1
@<TRIPOS>SUBSTRUCTURE
       1 MOL1            1 RESIDUE      1      MOL     
@<SCITEGIC>MOL_PROPERTY
VM2 Rank
SciTegic.value.IntegerValue
49

@<SCITEGIC>MOL_PROPERTY
Conf_Id
SciTegic.value.IntegerValue
349

@<SCITEGIC>MOL_PROPERTY
Probability
SciTegic.value.DoubleValue
0.04

@<SCITEGIC>MOL_PROPERTY
Sum Probability
SciTegic.value.DoubleValue
99.37

@<SCITEGIC>MOL_PROPERTY
Delta G
SciTegic.value.DoubleValue
3.367

@<SCITEGIC>MOL_PROPERTY
G
SciTegic.value.DoubleValue
41.283

@<SCITEGIC>MOL_PROPERTY
E
SciTegic.value.DoubleValue
13.482

@<SCITEGIC>MOL_PROPERTY
-TS
SciTegic.value.DoubleValue
27.801

@<SCITEGIC>MOL_PROPERTY
U+W
SciTegic.value.DoubleValue
-5.297

@<SCITEGIC>MOL_PROPERTY
U
SciTegic.value.DoubleValue
50.658

@<SCITEGIC>MOL_PROPERTY
W
SciTegic.value.DoubleValue
-55.955

@<SCITEGIC>MOL_PROPERTY
W(PB)
SciTegic.value.DoubleValue
-58.037

@<SCITEGIC>MOL_PROPERTY
W(SA)
SciTegic.value.DoubleValue
2.082

@<SCITEGIC>MOL_PROPERTY
Valence
SciTegic.value.DoubleValue
3.781

@<SCITEGIC>MOL_PROPERTY
Coulomb
SciTegic.value.DoubleValue
46.354

@<SCITEGIC>MOL_PROPERTY
VdW
SciTegic.value.DoubleValue
0.522

@<SCITEGIC>MOL_PROPERTY
VdW6
SciTegic.value.DoubleValue
-6.754

@<SCITEGIC>MOL_PROPERTY
VdW12
SciTegic.value.DoubleValue
7.276

@<SCITEGIC>MOL_PROPERTY
Bond
SciTegic.value.DoubleValue
0.207

@<SCITEGIC>MOL_PROPERTY
Angle
SciTegic.value.DoubleValue
1.137

@<SCITEGIC>MOL_PROPERTY
Pdih
SciTegic.value.DoubleValue
2.438

@<SCITEGIC>MOL_PROPERTY
Idih
SciTegic.value.DoubleValue
0.000

@<SCITEGIC>MOL_PROPERTY
Tether
SciTegic.value.DoubleValue
0.000

@<TRIPOS>MOLECULE
guest-2_vm2.mol2 : vm2 ligand conformer 50
          23          22           1
SMALL
USER_CHARGES
 
@<TRIPOS>ATOM
       1    N1      19.592418   17.921916   25.738462 N.4        1 MOL1        -0.5940
       2    H1      20.512782   17.472017   25.701912 H          1 MOL1         0.3649
       3    H2      18.905184   17.229529   25.423684 H          1 MOL1         0.3649
       4    H3      19.392811   18.111871   26.726456 H          1 MOL1         0.3649
       5    C1      19.546789   19.184917   24.902562 C.3        1 MOL1         0.0207
       6    H4      20.279572   19.886218   25.310817 H          1 MOL1         0.0950
       7    H5      18.552001   19.625583   25.010700 H          1 MOL1         0.0950
       8    C2      19.843193   18.934538   23.413293 C.3        1 MOL1        -0.1415
       9    H6      20.836912   18.478906   23.309915 H          1 MOL1         0.0976
      10    H7      19.109540   18.219244   23.021370 H          1 MOL1         0.0976
      11    C3      19.782684   20.246358   22.598465 C.3        1 MOL1        -0.1375
      12    H8      20.420935   20.997258   23.084774 H          1 MOL1         0.0976
      13    H9      18.760505   20.648465   22.629857 H          1 MOL1         0.0976
      14    C4      20.236602   20.106395   21.122211 C.3        1 MOL1        -0.1375
      15    H10     20.193835   21.106018   20.667884 H          1 MOL1         0.0976
      16    H11     21.292942   19.807351   21.078177 H          1 MOL1         0.0976
      17    C5      19.371841   19.148973   20.262014 C.3        1 MOL1        -0.1350
      18    H12     19.315643   19.551184   19.240718 H          1 MOL1         0.0976
      19    H13     18.338437   19.128036   20.635177 H          1 MOL1         0.0976
      20    C6      19.942473   17.713903   20.176994 C.3        1 MOL1        -0.2365
      21    H14     20.004444   17.234745   21.160108 H          1 MOL1         0.0987
      22    H15     20.949267   17.718118   19.739507 H          1 MOL1         0.0987
      23    H16     19.306311   17.085141   19.540700 H          1 MOL1         0.0987
@<TRIPOS>BOND
    1     1     2    1
    2     1     3    1
    3     1     4    1
    4     1     5    1
    5     5     6    1
    6     5     7    1
    7     5     8    1
    8     8     9    1
    9     8    10    1
   10     8    11    1
   11    11    12    1
   12    11    13    1
   13    11    14    1
   14    14    15    1
   15    14    16    1
   16    14    17    1
   17    17    18    1
   18    17    19    1
   19    17    20    1
   20    20    21    1
   21    20    22    1
   22    20    23    1
@<TRIPOS>SUBSTRUCTURE
       1 MOL1            1 RESIDUE      1      MOL     
@<SCITEGIC>MOL_PROPERTY
VM2 Rank
SciTegic.value.IntegerValue
50

@<SCITEGIC>MOL_PROPERTY
Conf_Id
SciTegic.value.IntegerValue
372

@<SCITEGIC>MOL_PROPERTY
Probability
SciTegic.value.DoubleValue
0.04

@<SCITEGIC>MOL_PROPERTY
Sum Probability
SciTegic.value.DoubleValue
99.41

@<SCITEGIC>MOL_PROPERTY
Delta G
SciTegic.value.DoubleValue
3.397

@<SCITEGIC>MOL_PROPERTY
G
SciTegic.value.DoubleValue
41.313

@<SCITEGIC>MOL_PROPERTY
E
SciTegic.value.DoubleValue
13.461

@<SCITEGIC>MOL_PROPERTY
-TS
SciTegic.value.DoubleValue
27.853

@<SCITEGIC>MOL_PROPERTY
U+W
SciTegic.value.DoubleValue
-5.319

@<SCITEGIC>MOL_PROPERTY
U
SciTegic.value.DoubleValue
50.301

@<SCITEGIC>MOL_PROPERTY
W
SciTegic.value.DoubleValue
-55.620

@<SCITEGIC>MOL_PROPERTY
W(PB)
SciTegic.value.DoubleValue
-57.719

@<SCITEGIC>MOL_PROPERTY
W(SA)
SciTegic.value.DoubleValue
2.099

@<SCITEGIC>MOL_PROPERTY
Valence
SciTegic.value.DoubleValue
4.724

@<SCITEGIC>MOL_PROPERTY
Coulomb
SciTegic.value.DoubleValue
45.004

@<SCITEGIC>MOL_PROPERTY
VdW
SciTegic.value.DoubleValue
0.574

@<SCITEGIC>MOL_PROPERTY
VdW6
SciTegic.value.DoubleValue
-6.145

@<SCITEGIC>MOL_PROPERTY
VdW12
SciTegic.value.DoubleValue
6.719

@<SCITEGIC>MOL_PROPERTY
Bond
SciTegic.value.DoubleValue
0.198

@<SCITEGIC>MOL_PROPERTY
Angle
SciTegic.value.DoubleValue
1.201

@<SCITEGIC>MOL_PROPERTY
Pdih
SciTegic.value.DoubleValue
3.325

@<SCITEGIC>MOL_PROPERTY
Idih
SciTegic.value.DoubleValue
0.000

@<SCITEGIC>MOL_PROPERTY
Tether
SciTegic.value.DoubleValue
0.000

@<TRIPOS>MOLECULE
guest-2_vm2.mol2 : vm2 ligand conformer 51
          23          22           1
SMALL
USER_CHARGES
 
@<TRIPOS>ATOM
       1    N1      18.807322   18.304485   25.131357 N.4        1 MOL1        -0.5940
       2    H1      19.037007   17.463076   24.594275 H          1 MOL1         0.3649
       3    H2      17.829278   18.214427   25.426633 H          1 MOL1         0.3649
       4    H3      19.378648   18.285948   25.982161 H          1 MOL1         0.3649
       5    C1      19.038058   19.568074   24.325529 C.3        1 MOL1         0.0207
       6    H4      18.735941   20.414197   24.948700 H          1 MOL1         0.0950
       7    H5      18.378238   19.537706   23.456949 H          1 MOL1         0.0950
       8    C2      20.503601   19.763698   23.882211 C.3        1 MOL1        -0.1415
       9    H6      20.619221   20.759190   23.433501 H          1 MOL1         0.0976
      10    H7      21.133793   19.764957   24.781524 H          1 MOL1         0.0976
      11    C3      21.032187   18.684093   22.899864 C.3        1 MOL1        -0.1375
      12    H8      20.669559   17.688528   23.186454 H          1 MOL1         0.0976
      13    H9      22.124975   18.638678   23.005489 H          1 MOL1         0.0976
      14    C4      20.722918   18.949886   21.403506 C.3        1 MOL1        -0.1375
      15    H10     21.182882   19.899476   21.096986 H          1 MOL1         0.0976
      16    H11     21.216458   18.167851   20.809978 H          1 MOL1         0.0976
      17    C5      19.218230   18.970901   21.049027 C.3        1 MOL1        -0.1350
      18    H12     18.740810   19.850823   21.498756 H          1 MOL1         0.0976
      19    H13     18.723043   18.082119   21.464232 H          1 MOL1         0.0976
      20    C6      18.993683   19.015862   19.522505 C.3        1 MOL1        -0.2365
      21    H14     19.456937   19.908268   19.081757 H          1 MOL1         0.0987
      22    H15     17.921373   19.042756   19.289162 H          1 MOL1         0.0987
      23    H16     19.422042   18.131245   19.033460 H          1 MOL1         0.0987
@<TRIPOS>BOND
    1     1     2    1
    2     1     3    1
    3     1     4    1
    4     1     5    1
    5     5     6    1
    6     5     7    1
    7     5     8    1
    8     8     9    1
    9     8    10    1
   10     8    11    1
   11    11    12    1
   12    11    13    1
   13    11    14    1
   14    14    15    1
   15    14    16    1
   16    14    17    1
   17    17    18    1
   18    17    19    1
   19    17    20    1
   20    20    21    1
   21    20    22    1
   22    20    23    1
@<TRIPOS>SUBSTRUCTURE
       1 MOL1            1 RESIDUE      1      MOL     
@<SCITEGIC>MOL_PROPERTY
VM2 Rank
SciTegic.value.IntegerValue
51

@<SCITEGIC>MOL_PROPERTY
Conf_Id
SciTegic.value.IntegerValue
1149

@<SCITEGIC>MOL_PROPERTY
Probability
SciTegic.value.DoubleValue
0.04

@<SCITEGIC>MOL_PROPERTY
Sum Probability
SciTegic.value.DoubleValue
99.45

@<SCITEGIC>MOL_PROPERTY
Delta G
SciTegic.value.DoubleValue
3.398

@<SCITEGIC>MOL_PROPERTY
G
SciTegic.value.DoubleValue
41.315

@<SCITEGIC>MOL_PROPERTY
E
SciTegic.value.DoubleValue
13.416

@<SCITEGIC>MOL_PROPERTY
-TS
SciTegic.value.DoubleValue
27.899

@<SCITEGIC>MOL_PROPERTY
U+W
SciTegic.value.DoubleValue
-5.364

@<SCITEGIC>MOL_PROPERTY
U
SciTegic.value.DoubleValue
50.743

@<SCITEGIC>MOL_PROPERTY
W
SciTegic.value.DoubleValue
-56.106

@<SCITEGIC>MOL_PROPERTY
W(PB)
SciTegic.value.DoubleValue
-58.186

@<SCITEGIC>MOL_PROPERTY
W(SA)
SciTegic.value.DoubleValue
2.080

@<SCITEGIC>MOL_PROPERTY
Valence
SciTegic.value.DoubleValue
4.299

@<SCITEGIC>MOL_PROPERTY
Coulomb
SciTegic.value.DoubleValue
45.941

@<SCITEGIC>MOL_PROPERTY
VdW
SciTegic.value.DoubleValue
0.503

@<SCITEGIC>MOL_PROPERTY
VdW6
SciTegic.value.DoubleValue
-6.823

@<SCITEGIC>MOL_PROPERTY
VdW12
SciTegic.value.DoubleValue
7.326

@<SCITEGIC>MOL_PROPERTY
Bond
SciTegic.value.DoubleValue
0.216

@<SCITEGIC>MOL_PROPERTY
Angle
SciTegic.value.DoubleValue
1.354

@<SCITEGIC>MOL_PROPERTY
Pdih
SciTegic.value.DoubleValue
2.729

@<SCITEGIC>MOL_PROPERTY
Idih
SciTegic.value.DoubleValue
0.000

@<SCITEGIC>MOL_PROPERTY
Tether
SciTegic.value.DoubleValue
0.000

@<TRIPOS>MOLECULE
guest-2_vm2.mol2 : vm2 ligand conformer 52
          23          22           1
SMALL
USER_CHARGES
 
@<TRIPOS>ATOM
       1    N1      20.422607   18.267255   25.776321 N.4        1 MOL1        -0.5940
       2    H1      21.419612   18.275333   25.538223 H          1 MOL1         0.3649
       3    H2      20.097768   17.299467   25.683140 H          1 MOL1         0.3649
       4    H3      20.351715   18.510804   26.770162 H          1 MOL1         0.3649
       5    C1      19.625353   19.217603   24.906144 C.3        1 MOL1         0.0207
       6    H4      20.003371   20.229265   25.076802 H          1 MOL1         0.0950
       7    H5      18.582797   19.180495   25.233511 H          1 MOL1         0.0950
       8    C2      19.710018   18.879120   23.407233 C.3        1 MOL1        -0.1415
       9    H6      20.761824   18.906462   23.096668 H          1 MOL1         0.0976
      10    H7      19.342990   17.857498   23.241869 H          1 MOL1         0.0976
      11    C3      18.887013   19.873777   22.557645 C.3        1 MOL1        -0.1375
      12    H8      19.317475   20.880107   22.655244 H          1 MOL1         0.0976
      13    H9      17.869646   19.936029   22.968497 H          1 MOL1         0.0976
      14    C4      18.781956   19.501325   21.055912 C.3        1 MOL1        -0.1375
      15    H10     18.255536   18.543931   20.939731 H          1 MOL1         0.0976
      16    H11     18.139534   20.251528   20.574270 H          1 MOL1         0.0976
      17    C5      20.133531   19.465813   20.296709 C.3        1 MOL1        -0.1350
      18    H12     20.844842   20.170612   20.749374 H          1 MOL1         0.0976
      19    H13     19.967441   19.822310   19.270405 H          1 MOL1         0.0976
      20    C6      20.755523   18.052107   20.214036 C.3        1 MOL1        -0.2365
      21    H14     20.079699   17.356409   19.699924 H          1 MOL1         0.0987
      22    H15     20.975043   17.638491   21.204327 H          1 MOL1         0.0987
      23    H16     21.696559   18.079396   19.649573 H          1 MOL1         0.0987
@<TRIPOS>BOND
    1     1     2    1
    2     1     3    1
    3     1     4    1
    4     1     5    1
    5     5     6    1
    6     5     7    1
    7     5     8    1
    8     8     9    1
    9     8    10    1
   10     8    11    1
   11    11    12    1
   12    11    13    1
   13    11    14    1
   14    14    15    1
   15    14    16    1
   16    14    17    1
   17    17    18    1
   18    17    19    1
   19    17    20    1
   20    20    21    1
   21    20    22    1
   22    20    23    1
@<TRIPOS>SUBSTRUCTURE
       1 MOL1            1 RESIDUE      1      MOL     
@<SCITEGIC>MOL_PROPERTY
VM2 Rank
SciTegic.value.IntegerValue
52

@<SCITEGIC>MOL_PROPERTY
Conf_Id
SciTegic.value.IntegerValue
568

@<SCITEGIC>MOL_PROPERTY
Probability
SciTegic.value.DoubleValue
0.04

@<SCITEGIC>MOL_PROPERTY
Sum Probability
SciTegic.value.DoubleValue
99.49

@<SCITEGIC>MOL_PROPERTY
Delta G
SciTegic.value.DoubleValue
3.454

@<SCITEGIC>MOL_PROPERTY
G
SciTegic.value.DoubleValue
41.370

@<SCITEGIC>MOL_PROPERTY
E
SciTegic.value.DoubleValue
13.518

@<SCITEGIC>MOL_PROPERTY
-TS
SciTegic.value.DoubleValue
27.852

@<SCITEGIC>MOL_PROPERTY
U+W
SciTegic.value.DoubleValue
-5.261

@<SCITEGIC>MOL_PROPERTY
U
SciTegic.value.DoubleValue
50.301

@<SCITEGIC>MOL_PROPERTY
W
SciTegic.value.DoubleValue
-55.562

@<SCITEGIC>MOL_PROPERTY
W(PB)
SciTegic.value.DoubleValue
-57.696

@<SCITEGIC>MOL_PROPERTY
W(SA)
SciTegic.value.DoubleValue
2.134

@<SCITEGIC>MOL_PROPERTY
Valence
SciTegic.value.DoubleValue
4.724

@<SCITEGIC>MOL_PROPERTY
Coulomb
SciTegic.value.DoubleValue
45.004

@<SCITEGIC>MOL_PROPERTY
VdW
SciTegic.value.DoubleValue
0.574

@<SCITEGIC>MOL_PROPERTY
VdW6
SciTegic.value.DoubleValue
-6.145

@<SCITEGIC>MOL_PROPERTY
VdW12
SciTegic.value.DoubleValue
6.719

@<SCITEGIC>MOL_PROPERTY
Bond
SciTegic.value.DoubleValue
0.198

@<SCITEGIC>MOL_PROPERTY
Angle
SciTegic.value.DoubleValue
1.201

@<SCITEGIC>MOL_PROPERTY
Pdih
SciTegic.value.DoubleValue
3.325

@<SCITEGIC>MOL_PROPERTY
Idih
SciTegic.value.DoubleValue
0.000

@<SCITEGIC>MOL_PROPERTY
Tether
SciTegic.value.DoubleValue
0.000

@<TRIPOS>MOLECULE
guest-2_vm2.mol2 : vm2 ligand conformer 53
          23          22           1
SMALL
USER_CHARGES
 
@<TRIPOS>ATOM
       1    N1      20.749742   19.115669   25.219900 N.4        1 MOL1        -0.5940
       2    H1      20.297043   18.669369   26.023955 H          1 MOL1         0.3649
       3    H2      21.475339   19.737135   25.592937 H          1 MOL1         0.3649
       4    H3      21.228030   18.378135   24.694099 H          1 MOL1         0.3649
       5    C1      19.753592   19.866893   24.358159 C.3        1 MOL1         0.0207
       6    H4      20.304317   20.342080   23.544761 H          1 MOL1         0.0950
       7    H5      19.316077   20.656463   24.975168 H          1 MOL1         0.0950
       8    C2      18.623213   18.978405   23.796512 C.3        1 MOL1        -0.1415
       9    H6      18.111515   18.502776   24.643772 H          1 MOL1         0.0976
      10    H7      17.870301   19.611186   23.308223 H          1 MOL1         0.0976
      11    C3      19.095797   17.875425   22.811600 C.3        1 MOL1        -0.1375
      12    H8      18.354946   17.064217   22.833659 H          1 MOL1         0.0976
      13    H9      20.034242   17.423227   23.157465 H          1 MOL1         0.0976
      14    C4      19.239477   18.330420   21.335893 C.3        1 MOL1        -0.1375
      15    H10     19.495125   17.449068   20.731492 H          1 MOL1         0.0976
      16    H11     18.267106   18.681903   20.964142 H          1 MOL1         0.0976
      17    C5      20.305331   19.424867   21.098563 C.3        1 MOL1        -0.1350
      18    H12     21.250763   19.137657   21.579401 H          1 MOL1         0.0976
      19    H13     19.980041   20.368303   21.555251 H          1 MOL1         0.0976
      20    C6      20.548848   19.665320   19.593374 C.3        1 MOL1        -0.2365
      21    H14     21.298425   20.453081   19.443067 H          1 MOL1         0.0987
      22    H15     19.625160   19.978507   19.089422 H          1 MOL1         0.0987
      23    H16     20.914933   18.754699   19.101486 H          1 MOL1         0.0987
@<TRIPOS>BOND
    1     1     2    1
    2     1     3    1
    3     1     4    1
    4     1     5    1
    5     5     6    1
    6     5     7    1
    7     5     8    1
    8     8     9    1
    9     8    10    1
   10     8    11    1
   11    11    12    1
   12    11    13    1
   13    11    14    1
   14    14    15    1
   15    14    16    1
   16    14    17    1
   17    17    18    1
   18    17    19    1
   19    17    20    1
   20    20    21    1
   21    20    22    1
   22    20    23    1
@<TRIPOS>SUBSTRUCTURE
       1 MOL1            1 RESIDUE      1      MOL     
@<SCITEGIC>MOL_PROPERTY
VM2 Rank
SciTegic.value.IntegerValue
53

@<SCITEGIC>MOL_PROPERTY
Conf_Id
SciTegic.value.IntegerValue
757

@<SCITEGIC>MOL_PROPERTY
Probability
SciTegic.value.DoubleValue
0.04

@<SCITEGIC>MOL_PROPERTY
Sum Probability
SciTegic.value.DoubleValue
99.52

@<SCITEGIC>MOL_PROPERTY
Delta G
SciTegic.value.DoubleValue
3.455

@<SCITEGIC>MOL_PROPERTY
G
SciTegic.value.DoubleValue
41.371

@<SCITEGIC>MOL_PROPERTY
E
SciTegic.value.DoubleValue
13.472

@<SCITEGIC>MOL_PROPERTY
-TS
SciTegic.value.DoubleValue
27.899

@<SCITEGIC>MOL_PROPERTY
U+W
SciTegic.value.DoubleValue
-5.307

@<SCITEGIC>MOL_PROPERTY
U
SciTegic.value.DoubleValue
50.743

@<SCITEGIC>MOL_PROPERTY
W
SciTegic.value.DoubleValue
-56.049

@<SCITEGIC>MOL_PROPERTY
W(PB)
SciTegic.value.DoubleValue
-58.118

@<SCITEGIC>MOL_PROPERTY
W(SA)
SciTegic.value.DoubleValue
2.069

@<SCITEGIC>MOL_PROPERTY
Valence
SciTegic.value.DoubleValue
4.299

@<SCITEGIC>MOL_PROPERTY
Coulomb
SciTegic.value.DoubleValue
45.941

@<SCITEGIC>MOL_PROPERTY
VdW
SciTegic.value.DoubleValue
0.503

@<SCITEGIC>MOL_PROPERTY
VdW6
SciTegic.value.DoubleValue
-6.823

@<SCITEGIC>MOL_PROPERTY
VdW12
SciTegic.value.DoubleValue
7.326

@<SCITEGIC>MOL_PROPERTY
Bond
SciTegic.value.DoubleValue
0.216

@<SCITEGIC>MOL_PROPERTY
Angle
SciTegic.value.DoubleValue
1.354

@<SCITEGIC>MOL_PROPERTY
Pdih
SciTegic.value.DoubleValue
2.730

@<SCITEGIC>MOL_PROPERTY
Idih
SciTegic.value.DoubleValue
0.000

@<SCITEGIC>MOL_PROPERTY
Tether
SciTegic.value.DoubleValue
0.000

@<TRIPOS>MOLECULE
guest-2_vm2.mol2 : vm2 ligand conformer 54
          23          22           1
SMALL
USER_CHARGES
 
@<TRIPOS>ATOM
       1    N1      19.003098   18.059413   25.090304 N.4        1 MOL1        -0.5940
       2    H1      18.582618   17.763918   24.205188 H          1 MOL1         0.3649
       3    H2      18.263272   18.032183   25.800230 H          1 MOL1         0.3649
       4    H3      19.691713   17.346258   25.351021 H          1 MOL1         0.3649
       5    C1      19.631883   19.435697   24.986800 C.3        1 MOL1         0.0207
       6    H4      20.045079   19.670816   25.971439 H          1 MOL1         0.0950
       7    H5      18.845850   20.163191   24.767209 H          1 MOL1         0.0950
       8    C2      20.754634   19.542634   23.933769 C.3        1 MOL1        -0.1415
       9    H6      21.405079   20.378465   24.223917 H          1 MOL1         0.0976
      10    H7      21.386756   18.645236   23.964574 H          1 MOL1         0.0976
      11    C3      20.261486   19.806396   22.487727 C.3        1 MOL1        -0.1375
      12    H8      21.145987   19.976801   21.861073 H          1 MOL1         0.0976
      13    H9      19.684286   20.740988   22.463591 H          1 MOL1         0.0976
      14    C4      19.412792   18.660394   21.881662 C.3        1 MOL1        -0.1375
      15    H10     19.952185   17.707318   21.970631 H          1 MOL1         0.0976
      16    H11     18.484139   18.556156   22.455521 H          1 MOL1         0.0976
      17    C5      19.024443   18.897219   20.401748 C.3        1 MOL1        -0.1350
      18    H12     18.501451   19.858751   20.302873 H          1 MOL1         0.0976
      19    H13     18.304015   18.124005   20.100048 H          1 MOL1         0.0976
      20    C6      20.227664   18.855246   19.431990 C.3        1 MOL1        -0.2365
      21    H14     20.787107   17.916627   19.536946 H          1 MOL1         0.0987
      22    H15     20.918531   19.689021   19.606414 H          1 MOL1         0.0987
      23    H16     19.884213   18.925773   18.391792 H          1 MOL1         0.0987
@<TRIPOS>BOND
    1     1     2    1
    2     1     3    1
    3     1     4    1
    4     1     5    1
    5     5     6    1
    6     5     7    1
    7     5     8    1
    8     8     9    1
    9     8    10    1
   10     8    11    1
   11    11    12    1
   12    11    13    1
   13    11    14    1
   14    14    15    1
   15    14    16    1
   16    14    17    1
   17    17    18    1
   18    17    19    1
   19    17    20    1
   20    20    21    1
   21    20    22    1
   22    20    23    1
@<TRIPOS>SUBSTRUCTURE
       1 MOL1            1 RESIDUE      1      MOL     
@<SCITEGIC>MOL_PROPERTY
VM2 Rank
SciTegic.value.IntegerValue
54

@<SCITEGIC>MOL_PROPERTY
Conf_Id
SciTegic.value.IntegerValue
137

@<SCITEGIC>MOL_PROPERTY
Probability
SciTegic.value.DoubleValue
0.03

@<SCITEGIC>MOL_PROPERTY
Sum Probability
SciTegic.value.DoubleValue
99.55

@<SCITEGIC>MOL_PROPERTY
Delta G
SciTegic.value.DoubleValue
3.520

@<SCITEGIC>MOL_PROPERTY
G
SciTegic.value.DoubleValue
41.437

@<SCITEGIC>MOL_PROPERTY
E
SciTegic.value.DoubleValue
13.751

@<SCITEGIC>MOL_PROPERTY
-TS
SciTegic.value.DoubleValue
27.686

@<SCITEGIC>MOL_PROPERTY
U+W
SciTegic.value.DoubleValue
-5.029

@<SCITEGIC>MOL_PROPERTY
U
SciTegic.value.DoubleValue
50.916

@<SCITEGIC>MOL_PROPERTY
W
SciTegic.value.DoubleValue
-55.945

@<SCITEGIC>MOL_PROPERTY
W(PB)
SciTegic.value.DoubleValue
-58.029

@<SCITEGIC>MOL_PROPERTY
W(SA)
SciTegic.value.DoubleValue
2.084

@<SCITEGIC>MOL_PROPERTY
Valence
SciTegic.value.DoubleValue
3.987

@<SCITEGIC>MOL_PROPERTY
Coulomb
SciTegic.value.DoubleValue
46.335

@<SCITEGIC>MOL_PROPERTY
VdW
SciTegic.value.DoubleValue
0.594

@<SCITEGIC>MOL_PROPERTY
VdW6
SciTegic.value.DoubleValue
-6.627

@<SCITEGIC>MOL_PROPERTY
VdW12
SciTegic.value.DoubleValue
7.221

@<SCITEGIC>MOL_PROPERTY
Bond
SciTegic.value.DoubleValue
0.215

@<SCITEGIC>MOL_PROPERTY
Angle
SciTegic.value.DoubleValue
1.275

@<SCITEGIC>MOL_PROPERTY
Pdih
SciTegic.value.DoubleValue
2.497

@<SCITEGIC>MOL_PROPERTY
Idih
SciTegic.value.DoubleValue
0.000

@<SCITEGIC>MOL_PROPERTY
Tether
SciTegic.value.DoubleValue
0.000

@<TRIPOS>MOLECULE
guest-2_vm2.mol2 : vm2 ligand conformer 55
          23          22           1
SMALL
USER_CHARGES
 
@<TRIPOS>ATOM
       1    N1      20.789225   18.802402   25.171793 N.4        1 MOL1        -0.5940
       2    H1      21.362271   18.919840   24.331926 H          1 MOL1         0.3649
       3    H2      20.790393   17.803408   25.401504 H          1 MOL1         0.3649
       4    H3      21.272817   19.284245   25.937329 H          1 MOL1         0.3649
       5    C1      19.381556   19.331652   24.975301 C.3        1 MOL1         0.0207
       6    H4      19.435429   20.408430   24.793755 H          1 MOL1         0.0950
       7    H5      18.848614   19.173484   25.916832 H          1 MOL1         0.0950
       8    C2      18.599383   18.646034   23.835559 C.3        1 MOL1        -0.1415
       9    H6      18.788673   17.564412   23.846270 H          1 MOL1         0.0976
      10    H7      17.528542   18.765806   24.047292 H          1 MOL1         0.0976
      11    C3      18.870896   19.227802   22.424309 C.3        1 MOL1        -0.1375
      12    H8      18.616078   20.296530   22.414757 H          1 MOL1         0.0976
      13    H9      18.178074   18.741834   21.725805 H          1 MOL1         0.0976
      14    C4      20.325049   19.039928   21.923250 C.3        1 MOL1        -0.1375
      15    H10     21.006101   19.605457   22.570492 H          1 MOL1         0.0976
      16    H11     20.614428   17.982832   22.000857 H          1 MOL1         0.0976
      17    C5      20.544767   19.529695   20.471045 C.3        1 MOL1        -0.1350
      18    H12     21.621303   19.504024   20.251249 H          1 MOL1         0.0976
      19    H13     20.238770   20.581497   20.382051 H          1 MOL1         0.0976
      20    C6      19.805124   18.679487   19.412741 C.3        1 MOL1        -0.2365
      21    H14     18.716336   18.772961   19.506035 H          1 MOL1         0.0987
      22    H15     20.068804   17.617839   19.504248 H          1 MOL1         0.0987
      23    H16     20.076984   19.005944   18.400584 H          1 MOL1         0.0987
@<TRIPOS>BOND
    1     1     2    1
    2     1     3    1
    3     1     4    1
    4     1     5    1
    5     5     6    1
    6     5     7    1
    7     5     8    1
    8     8     9    1
    9     8    10    1
   10     8    11    1
   11    11    12    1
   12    11    13    1
   13    11    14    1
   14    14    15    1
   15    14    16    1
   16    14    17    1
   17    17    18    1
   18    17    19    1
   19    17    20    1
   20    20    21    1
   21    20    22    1
   22    20    23    1
@<TRIPOS>SUBSTRUCTURE
       1 MOL1            1 RESIDUE      1      MOL     
@<SCITEGIC>MOL_PROPERTY
VM2 Rank
SciTegic.value.IntegerValue
55

@<SCITEGIC>MOL_PROPERTY
Conf_Id
SciTegic.value.IntegerValue
736

@<SCITEGIC>MOL_PROPERTY
Probability
SciTegic.value.DoubleValue
0.03

@<SCITEGIC>MOL_PROPERTY
Sum Probability
SciTegic.value.DoubleValue
99.59

@<SCITEGIC>MOL_PROPERTY
Delta G
SciTegic.value.DoubleValue
3.523

@<SCITEGIC>MOL_PROPERTY
G
SciTegic.value.DoubleValue
41.439

@<SCITEGIC>MOL_PROPERTY
E
SciTegic.value.DoubleValue
13.753

@<SCITEGIC>MOL_PROPERTY
-TS
SciTegic.value.DoubleValue
27.686

@<SCITEGIC>MOL_PROPERTY
U+W
SciTegic.value.DoubleValue
-5.026

@<SCITEGIC>MOL_PROPERTY
U
SciTegic.value.DoubleValue
50.916

@<SCITEGIC>MOL_PROPERTY
W
SciTegic.value.DoubleValue
-55.942

@<SCITEGIC>MOL_PROPERTY
W(PB)
SciTegic.value.DoubleValue
-58.000

@<SCITEGIC>MOL_PROPERTY
W(SA)
SciTegic.value.DoubleValue
2.058

@<SCITEGIC>MOL_PROPERTY
Valence
SciTegic.value.DoubleValue
3.987

@<SCITEGIC>MOL_PROPERTY
Coulomb
SciTegic.value.DoubleValue
46.335

@<SCITEGIC>MOL_PROPERTY
VdW
SciTegic.value.DoubleValue
0.594

@<SCITEGIC>MOL_PROPERTY
VdW6
SciTegic.value.DoubleValue
-6.627

@<SCITEGIC>MOL_PROPERTY
VdW12
SciTegic.value.DoubleValue
7.221

@<SCITEGIC>MOL_PROPERTY
Bond
SciTegic.value.DoubleValue
0.215

@<SCITEGIC>MOL_PROPERTY
Angle
SciTegic.value.DoubleValue
1.275

@<SCITEGIC>MOL_PROPERTY
Pdih
SciTegic.value.DoubleValue
2.498

@<SCITEGIC>MOL_PROPERTY
Idih
SciTegic.value.DoubleValue
0.000

@<SCITEGIC>MOL_PROPERTY
Tether
SciTegic.value.DoubleValue
0.000

@<TRIPOS>MOLECULE
guest-2_vm2.mol2 : vm2 ligand conformer 56
          23          22           1
SMALL
USER_CHARGES
 
@<TRIPOS>ATOM
       1    N1      20.200875   18.033720   25.416834 N.4        1 MOL1        -0.5940
       2    H1      20.095822   18.691570   26.195918 H          1 MOL1         0.3649
       3    H2      21.024984   17.458590   25.621785 H          1 MOL1         0.3649
       4    H3      19.388456   17.409035   25.438399 H          1 MOL1         0.3649
       5    C1      20.329312   18.748546   24.087134 C.3        1 MOL1         0.0207
       6    H4      20.472994   17.991390   23.314306 H          1 MOL1         0.0950
       7    H5      21.227132   19.371249   24.125536 H          1 MOL1         0.0950
       8    C2      19.107423   19.626199   23.754232 C.3        1 MOL1        -0.1415
       9    H6      18.192280   19.019392   23.752170 H          1 MOL1         0.0976
      10    H7      18.988502   20.362935   24.559863 H          1 MOL1         0.0976
      11    C3      19.244974   20.385722   22.410151 C.3        1 MOL1        -0.1375
      12    H8      20.274016   20.746540   22.280039 H          1 MOL1         0.0976
      13    H9      18.625038   21.290907   22.470762 H          1 MOL1         0.0976
      14    C4      18.779426   19.591819   21.159264 C.3        1 MOL1        -0.1375
      15    H10     17.719892   19.327496   21.280491 H          1 MOL1         0.0976
      16    H11     18.819822   20.260912   20.288665 H          1 MOL1         0.0976
      17    C5      19.576895   18.306169   20.827504 C.3        1 MOL1        -0.1350
      18    H12     19.136066   17.846590   19.931844 H          1 MOL1         0.0976
      19    H13     19.455074   17.565400   21.627735 H          1 MOL1         0.0976
      20    C6      21.077095   18.564825   20.558882 C.3        1 MOL1        -0.2365
      21    H14     21.210924   19.294195   19.749532 H          1 MOL1         0.0987
      22    H15     21.579752   17.636128   20.259386 H          1 MOL1         0.0987
      23    H16     21.590190   18.946287   21.449653 H          1 MOL1         0.0987
@<TRIPOS>BOND
    1     1     2    1
    2     1     3    1
    3     1     4    1
    4     1     5    1
    5     5     6    1
    6     5     7    1
    7     5     8    1
    8     8     9    1
    9     8    10    1
   10     8    11    1
   11    11    12    1
   12    11    13    1
   13    11    14    1
   14    14    15    1
   15    14    16    1
   16    14    17    1
   17    17    18    1
   18    17    19    1
   19    17    20    1
   20    20    21    1
   21    20    22    1
   22    20    23    1
@<TRIPOS>SUBSTRUCTURE
       1 MOL1            1 RESIDUE      1      MOL     
@<SCITEGIC>MOL_PROPERTY
VM2 Rank
SciTegic.value.IntegerValue
56

@<SCITEGIC>MOL_PROPERTY
Conf_Id
SciTegic.value.IntegerValue
1120

@<SCITEGIC>MOL_PROPERTY
Probability
SciTegic.value.DoubleValue
0.03

@<SCITEGIC>MOL_PROPERTY
Sum Probability
SciTegic.value.DoubleValue
99.62

@<SCITEGIC>MOL_PROPERTY
Delta G
SciTegic.value.DoubleValue
3.567

@<SCITEGIC>MOL_PROPERTY
G
SciTegic.value.DoubleValue
41.483

@<SCITEGIC>MOL_PROPERTY
E
SciTegic.value.DoubleValue
13.153

@<SCITEGIC>MOL_PROPERTY
-TS
SciTegic.value.DoubleValue
28.330

@<SCITEGIC>MOL_PROPERTY
U+W
SciTegic.value.DoubleValue
-5.626

@<SCITEGIC>MOL_PROPERTY
U
SciTegic.value.DoubleValue
50.461

@<SCITEGIC>MOL_PROPERTY
W
SciTegic.value.DoubleValue
-56.086

@<SCITEGIC>MOL_PROPERTY
W(PB)
SciTegic.value.DoubleValue
-58.153

@<SCITEGIC>MOL_PROPERTY
W(SA)
SciTegic.value.DoubleValue
2.066

@<SCITEGIC>MOL_PROPERTY
Valence
SciTegic.value.DoubleValue
4.630

@<SCITEGIC>MOL_PROPERTY
Coulomb
SciTegic.value.DoubleValue
45.564

@<SCITEGIC>MOL_PROPERTY
VdW
SciTegic.value.DoubleValue
0.266

@<SCITEGIC>MOL_PROPERTY
VdW6
SciTegic.value.DoubleValue
-7.363

@<SCITEGIC>MOL_PROPERTY
VdW12
SciTegic.value.DoubleValue
7.629

@<SCITEGIC>MOL_PROPERTY
Bond
SciTegic.value.DoubleValue
0.225

@<SCITEGIC>MOL_PROPERTY
Angle
SciTegic.value.DoubleValue
1.702

@<SCITEGIC>MOL_PROPERTY
Pdih
SciTegic.value.DoubleValue
2.703

@<SCITEGIC>MOL_PROPERTY
Idih
SciTegic.value.DoubleValue
0.000

@<SCITEGIC>MOL_PROPERTY
Tether
SciTegic.value.DoubleValue
0.000

@<TRIPOS>MOLECULE
guest-2_vm2.mol2 : vm2 ligand conformer 57
          23          22           1
SMALL
USER_CHARGES
 
@<TRIPOS>ATOM
       1    N1      19.941489   17.925763   25.404946 N.4        1 MOL1        -0.5940
       2    H1      19.754415   16.929920   25.563799 H          1 MOL1         0.3649
       3    H2      19.489045   18.439044   26.168236 H          1 MOL1         0.3649
       4    H3      20.952356   18.059651   25.509542 H          1 MOL1         0.3649
       5    C1      19.448245   18.382009   24.046963 C.3        1 MOL1         0.0207
       6    H4      18.374183   18.184355   23.995575 H          1 MOL1         0.0950
       7    H5      19.943381   17.771106   23.290108 H          1 MOL1         0.0950
       8    C2      19.710276   19.877029   23.781703 C.3        1 MOL1        -0.1415
       9    H6      19.209601   20.454938   24.569935 H          1 MOL1         0.0976
      10    H7      20.782414   20.097007   23.870226 H          1 MOL1         0.0976
      11    C3      19.180221   20.358796   22.407191 C.3        1 MOL1        -0.1375
      12    H8      18.969724   21.434324   22.486460 H          1 MOL1         0.0976
      13    H9      18.212570   19.888902   22.186064 H          1 MOL1         0.0976
      14    C4      20.166148   20.168754   21.222468 C.3        1 MOL1        -0.1375
      15    H10     19.731584   20.640243   20.330218 H          1 MOL1         0.0976
      16    H11     21.087573   20.728584   21.433993 H          1 MOL1         0.0976
      17    C5      20.542453   18.707883   20.871515 C.3        1 MOL1        -0.1350
      18    H12     21.090441   18.245783   21.702250 H          1 MOL1         0.0976
      19    H13     21.246700   18.724714   20.028009 H          1 MOL1         0.0976
      20    C6      19.327168   17.836766   20.479213 C.3        1 MOL1        -0.2365
      21    H14     18.627905   17.713796   21.314775 H          1 MOL1         0.0987
      22    H15     19.655159   16.835406   20.171739 H          1 MOL1         0.0987
      23    H16     18.779514   18.282627   19.638844 H          1 MOL1         0.0987
@<TRIPOS>BOND
    1     1     2    1
    2     1     3    1
    3     1     4    1
    4     1     5    1
    5     5     6    1
    6     5     7    1
    7     5     8    1
    8     8     9    1
    9     8    10    1
   10     8    11    1
   11    11    12    1
   12    11    13    1
   13    11    14    1
   14    14    15    1
   15    14    16    1
   16    14    17    1
   17    17    18    1
   18    17    19    1
   19    17    20    1
   20    20    21    1
   21    20    22    1
   22    20    23    1
@<TRIPOS>SUBSTRUCTURE
       1 MOL1            1 RESIDUE      1      MOL     
@<SCITEGIC>MOL_PROPERTY
VM2 Rank
SciTegic.value.IntegerValue
57

@<SCITEGIC>MOL_PROPERTY
Conf_Id
SciTegic.value.IntegerValue
572

@<SCITEGIC>MOL_PROPERTY
Probability
SciTegic.value.DoubleValue
0.03

@<SCITEGIC>MOL_PROPERTY
Sum Probability
SciTegic.value.DoubleValue
99.65

@<SCITEGIC>MOL_PROPERTY
Delta G
SciTegic.value.DoubleValue
3.585

@<SCITEGIC>MOL_PROPERTY
G
SciTegic.value.DoubleValue
41.501

@<SCITEGIC>MOL_PROPERTY
E
SciTegic.value.DoubleValue
13.172

@<SCITEGIC>MOL_PROPERTY
-TS
SciTegic.value.DoubleValue
28.330

@<SCITEGIC>MOL_PROPERTY
U+W
SciTegic.value.DoubleValue
-5.608

@<SCITEGIC>MOL_PROPERTY
U
SciTegic.value.DoubleValue
50.461

@<SCITEGIC>MOL_PROPERTY
W
SciTegic.value.DoubleValue
-56.068

@<SCITEGIC>MOL_PROPERTY
W(PB)
SciTegic.value.DoubleValue
-58.143

@<SCITEGIC>MOL_PROPERTY
W(SA)
SciTegic.value.DoubleValue
2.075

@<SCITEGIC>MOL_PROPERTY
Valence
SciTegic.value.DoubleValue
4.630

@<SCITEGIC>MOL_PROPERTY
Coulomb
SciTegic.value.DoubleValue
45.564

@<SCITEGIC>MOL_PROPERTY
VdW
SciTegic.value.DoubleValue
0.267

@<SCITEGIC>MOL_PROPERTY
VdW6
SciTegic.value.DoubleValue
-7.363

@<SCITEGIC>MOL_PROPERTY
VdW12
SciTegic.value.DoubleValue
7.629

@<SCITEGIC>MOL_PROPERTY
Bond
SciTegic.value.DoubleValue
0.225

@<SCITEGIC>MOL_PROPERTY
Angle
SciTegic.value.DoubleValue
1.702

@<SCITEGIC>MOL_PROPERTY
Pdih
SciTegic.value.DoubleValue
2.703

@<SCITEGIC>MOL_PROPERTY
Idih
SciTegic.value.DoubleValue
0.000

@<SCITEGIC>MOL_PROPERTY
Tether
SciTegic.value.DoubleValue
0.000

@<TRIPOS>MOLECULE
guest-2_vm2.mol2 : vm2 ligand conformer 58
          23          22           1
SMALL
USER_CHARGES
 
@<TRIPOS>ATOM
       1    N1      18.934929   18.570868   25.506033 N.4        1 MOL1        -0.5940
       2    H1      18.966633   18.542426   26.530784 H          1 MOL1         0.3649
       3    H2      18.484637   17.703599   25.196793 H          1 MOL1         0.3649
       4    H3      18.314283   19.343732   25.247085 H          1 MOL1         0.3649
       5    C1      20.317235   18.734168   24.904634 C.3        1 MOL1         0.0207
       6    H4      20.931690   17.899382   25.252686 H          1 MOL1         0.0950
       7    H5      20.749041   19.660239   25.293661 H          1 MOL1         0.0950
       8    C2      20.323426   18.766321   23.364049 C.3        1 MOL1        -0.1415
       9    H6      21.365804   18.798593   23.020450 H          1 MOL1         0.0976
      10    H7      19.889570   17.832087   22.986493 H          1 MOL1         0.0976
      11    C3      19.554412   19.981407   22.791625 C.3        1 MOL1        -0.1375
      12    H8      19.898801   20.892180   23.301020 H          1 MOL1         0.0976
      13    H9      18.485001   19.886204   23.022799 H          1 MOL1         0.0976
      14    C4      19.727413   20.185220   21.264155 C.3        1 MOL1        -0.1375
      15    H10     19.185158   21.100899   20.990352 H          1 MOL1         0.0976
      16    H11     20.781314   20.384092   21.025559 H          1 MOL1         0.0976
      17    C5      19.187842   19.026036   20.386855 C.3        1 MOL1        -0.1350
      18    H12     18.777607   19.451347   19.460151 H          1 MOL1         0.0976
      19    H13     18.346698   18.527067   20.887947 H          1 MOL1         0.0976
      20    C6      20.270742   17.992980   19.996650 C.3        1 MOL1        -0.2365
      21    H14     21.085776   18.471618   19.438386 H          1 MOL1         0.0987
      22    H15     19.842325   17.212121   19.355069 H          1 MOL1         0.0987
      23    H16     20.706132   17.499683   20.872372 H          1 MOL1         0.0987
@<TRIPOS>BOND
    1     1     2    1
    2     1     3    1
    3     1     4    1
    4     1     5    1
    5     5     6    1
    6     5     7    1
    7     5     8    1
    8     8     9    1
    9     8    10    1
   10     8    11    1
   11    11    12    1
   12    11    13    1
   13    11    14    1
   14    14    15    1
   15    14    16    1
   16    14    17    1
   17    17    18    1
   18    17    19    1
   19    17    20    1
   20    20    21    1
   21    20    22    1
   22    20    23    1
@<TRIPOS>SUBSTRUCTURE
       1 MOL1            1 RESIDUE      1      MOL     
@<SCITEGIC>MOL_PROPERTY
VM2 Rank
SciTegic.value.IntegerValue
58

@<SCITEGIC>MOL_PROPERTY
Conf_Id
SciTegic.value.IntegerValue
364

@<SCITEGIC>MOL_PROPERTY
Probability
SciTegic.value.DoubleValue
0.03

@<SCITEGIC>MOL_PROPERTY
Sum Probability
SciTegic.value.DoubleValue
99.67

@<SCITEGIC>MOL_PROPERTY
Delta G
SciTegic.value.DoubleValue
3.640

@<SCITEGIC>MOL_PROPERTY
G
SciTegic.value.DoubleValue
41.556

@<SCITEGIC>MOL_PROPERTY
E
SciTegic.value.DoubleValue
13.603

@<SCITEGIC>MOL_PROPERTY
-TS
SciTegic.value.DoubleValue
27.954

@<SCITEGIC>MOL_PROPERTY
U+W
SciTegic.value.DoubleValue
-5.176

@<SCITEGIC>MOL_PROPERTY
U
SciTegic.value.DoubleValue
50.700

@<SCITEGIC>MOL_PROPERTY
W
SciTegic.value.DoubleValue
-55.876

@<SCITEGIC>MOL_PROPERTY
W(PB)
SciTegic.value.DoubleValue
-57.964

@<SCITEGIC>MOL_PROPERTY
W(SA)
SciTegic.value.DoubleValue
2.088

@<SCITEGIC>MOL_PROPERTY
Valence
SciTegic.value.DoubleValue
4.818

@<SCITEGIC>MOL_PROPERTY
Coulomb
SciTegic.value.DoubleValue
45.214

@<SCITEGIC>MOL_PROPERTY
VdW
SciTegic.value.DoubleValue
0.668

@<SCITEGIC>MOL_PROPERTY
VdW6
SciTegic.value.DoubleValue
-6.661

@<SCITEGIC>MOL_PROPERTY
VdW12
SciTegic.value.DoubleValue
7.328

@<SCITEGIC>MOL_PROPERTY
Bond
SciTegic.value.DoubleValue
0.218

@<SCITEGIC>MOL_PROPERTY
Angle
SciTegic.value.DoubleValue
1.219

@<SCITEGIC>MOL_PROPERTY
Pdih
SciTegic.value.DoubleValue
3.381

@<SCITEGIC>MOL_PROPERTY
Idih
SciTegic.value.DoubleValue
0.000

@<SCITEGIC>MOL_PROPERTY
Tether
SciTegic.value.DoubleValue
0.000

@<TRIPOS>MOLECULE
guest-2_vm2.mol2 : vm2 ligand conformer 59
          23          22           1
SMALL
USER_CHARGES
 
@<TRIPOS>ATOM
       1    N1      19.655756   19.272028   25.798861 N.4        1 MOL1        -0.5940
       2    H1      19.881982   20.227073   25.505186 H          1 MOL1         0.3649
       3    H2      20.534182   18.825373   26.080803 H          1 MOL1         0.3649
       4    H3      19.074977   19.347216   26.640866 H          1 MOL1         0.3649
       5    C1      18.955971   18.496118   24.699997 C.3        1 MOL1         0.0207
       6    H4      18.020225   19.010274   24.464544 H          1 MOL1         0.0950
       7    H5      18.710505   17.507457   25.097325 H          1 MOL1         0.0950
       8    C2      19.796496   18.336861   23.418237 C.3        1 MOL1        -0.1415
       9    H6      20.737077   17.824739   23.660739 H          1 MOL1         0.0976
      10    H7      19.254683   17.675147   22.733225 H          1 MOL1         0.0976
      11    C3      20.097557   19.692367   22.729296 C.3        1 MOL1        -0.1375
      12    H8      20.708093   20.301195   23.409417 H          1 MOL1         0.0976
      13    H9      19.167375   20.254798   22.568709 H          1 MOL1         0.0976
      14    C4      20.866980   19.544548   21.390551 C.3        1 MOL1        -0.1375
      15    H10     21.564297   20.389120   21.301453 H          1 MOL1         0.0976
      16    H11     21.495341   18.643424   21.408846 H          1 MOL1         0.0976
      17    C5      19.971698   19.544780   20.124977 C.3        1 MOL1        -0.1350
      18    H12     20.620867   19.509886   19.238876 H          1 MOL1         0.0976
      19    H13     19.423011   20.494924   20.062194 H          1 MOL1         0.0976
      20    C6      18.971543   18.370298   20.052080 C.3        1 MOL1        -0.2365
      21    H14     19.482928   17.406322   20.170701 H          1 MOL1         0.0987
      22    H15     18.460549   18.361725   19.080637 H          1 MOL1         0.0987
      23    H16     18.199706   18.455230   20.826890 H          1 MOL1         0.0987
@<TRIPOS>BOND
    1     1     2    1
    2     1     3    1
    3     1     4    1
    4     1     5    1
    5     5     6    1
    6     5     7    1
    7     5     8    1
    8     8     9    1
    9     8    10    1
   10     8    11    1
   11    11    12    1
   12    11    13    1
   13    11    14    1
   14    14    15    1
   15    14    16    1
   16    14    17    1
   17    17    18    1
   18    17    19    1
   19    17    20    1
   20    20    21    1
   21    20    22    1
   22    20    23    1
@<TRIPOS>SUBSTRUCTURE
       1 MOL1            1 RESIDUE      1      MOL     
@<SCITEGIC>MOL_PROPERTY
VM2 Rank
SciTegic.value.IntegerValue
59

@<SCITEGIC>MOL_PROPERTY
Conf_Id
SciTegic.value.IntegerValue
52

@<SCITEGIC>MOL_PROPERTY
Probability
SciTegic.value.DoubleValue
0.03

@<SCITEGIC>MOL_PROPERTY
Sum Probability
SciTegic.value.DoubleValue
99.70

@<SCITEGIC>MOL_PROPERTY
Delta G
SciTegic.value.DoubleValue
3.653

@<SCITEGIC>MOL_PROPERTY
G
SciTegic.value.DoubleValue
41.569

@<SCITEGIC>MOL_PROPERTY
E
SciTegic.value.DoubleValue
13.583

@<SCITEGIC>MOL_PROPERTY
-TS
SciTegic.value.DoubleValue
27.986

@<SCITEGIC>MOL_PROPERTY
U+W
SciTegic.value.DoubleValue
-5.196

@<SCITEGIC>MOL_PROPERTY
U
SciTegic.value.DoubleValue
50.625

@<SCITEGIC>MOL_PROPERTY
W
SciTegic.value.DoubleValue
-55.822

@<SCITEGIC>MOL_PROPERTY
W(PB)
SciTegic.value.DoubleValue
-57.895

@<SCITEGIC>MOL_PROPERTY
W(SA)
SciTegic.value.DoubleValue
2.073

@<SCITEGIC>MOL_PROPERTY
Valence
SciTegic.value.DoubleValue
4.837

@<SCITEGIC>MOL_PROPERTY
Coulomb
SciTegic.value.DoubleValue
45.097

@<SCITEGIC>MOL_PROPERTY
VdW
SciTegic.value.DoubleValue
0.692

@<SCITEGIC>MOL_PROPERTY
VdW6
SciTegic.value.DoubleValue
-6.655

@<SCITEGIC>MOL_PROPERTY
VdW12
SciTegic.value.DoubleValue
7.347

@<SCITEGIC>MOL_PROPERTY
Bond
SciTegic.value.DoubleValue
0.223

@<SCITEGIC>MOL_PROPERTY
Angle
SciTegic.value.DoubleValue
1.167

@<SCITEGIC>MOL_PROPERTY
Pdih
SciTegic.value.DoubleValue
3.447

@<SCITEGIC>MOL_PROPERTY
Idih
SciTegic.value.DoubleValue
0.000

@<SCITEGIC>MOL_PROPERTY
Tether
SciTegic.value.DoubleValue
0.000

@<TRIPOS>MOLECULE
guest-2_vm2.mol2 : vm2 ligand conformer 60
          23          22           1
SMALL
USER_CHARGES
 
@<TRIPOS>ATOM
       1    N1      19.417721   19.173230   25.787963 N.4        1 MOL1        -0.5940
       2    H1      18.605771   19.696620   25.446886 H          1 MOL1         0.3649
       3    H2      19.707037   19.610279   26.669559 H          1 MOL1         0.3649
       4    H3      19.095050   18.227278   26.015305 H          1 MOL1         0.3649
       5    C1      20.543506   19.156112   24.772309 C.3        1 MOL1         0.0207
       6    H4      21.384692   18.619215   25.219211 H          1 MOL1         0.0950
       7    H5      20.855099   20.188774   24.593609 H          1 MOL1         0.0950
       8    C2      20.165350   18.490132   23.435065 C.3        1 MOL1        -0.1415
       9    H6      21.067255   18.428575   22.815833 H          1 MOL1         0.0976
      10    H7      19.848420   17.455240   23.620331 H          1 MOL1         0.0976
      11    C3      19.048101   19.255968   22.681460 C.3        1 MOL1        -0.1375
      12    H8      19.315753   20.316381   22.575434 H          1 MOL1         0.0976
      13    H9      18.135719   19.231679   23.292163 H          1 MOL1         0.0976
      14    C4      18.716274   18.650259   21.292538 C.3        1 MOL1        -0.1375
      15    H10     18.911427   17.569006   21.291088 H          1 MOL1         0.0976
      16    H11     17.635785   18.755613   21.122433 H          1 MOL1         0.0976
      17    C5      19.442921   19.324895   20.100879 C.3        1 MOL1        -0.1350
      18    H12     19.160502   20.385764   20.050183 H          1 MOL1         0.0976
      19    H13     19.080598   18.869322   19.168683 H          1 MOL1         0.0976
      20    C6      20.982127   19.206405   20.143786 C.3        1 MOL1        -0.2365
      21    H14     21.403778   19.787640   20.973035 H          1 MOL1         0.0987
      22    H15     21.422379   19.593415   19.215728 H          1 MOL1         0.0987
      23    H16     21.296194   18.160374   20.253399 H          1 MOL1         0.0987
@<TRIPOS>BOND
    1     1     2    1
    2     1     3    1
    3     1     4    1
    4     1     5    1
    5     5     6    1
    6     5     7    1
    7     5     8    1
    8     8     9    1
    9     8    10    1
   10     8    11    1
   11    11    12    1
   12    11    13    1
   13    11    14    1
   14    14    15    1
   15    14    16    1
   16    14    17    1
   17    17    18    1
   18    17    19    1
   19    17    20    1
   20    20    21    1
   21    20    22    1
   22    20    23    1
@<TRIPOS>SUBSTRUCTURE
       1 MOL1            1 RESIDUE      1      MOL     
@<SCITEGIC>MOL_PROPERTY
VM2 Rank
SciTegic.value.IntegerValue
60

@<SCITEGIC>MOL_PROPERTY
Conf_Id
SciTegic.value.IntegerValue
1125

@<SCITEGIC>MOL_PROPERTY
Probability
SciTegic.value.DoubleValue
0.02

@<SCITEGIC>MOL_PROPERTY
Sum Probability
SciTegic.value.DoubleValue
99.72

@<SCITEGIC>MOL_PROPERTY
Delta G
SciTegic.value.DoubleValue
3.698

@<SCITEGIC>MOL_PROPERTY
G
SciTegic.value.DoubleValue
41.614

@<SCITEGIC>MOL_PROPERTY
E
SciTegic.value.DoubleValue
13.628

@<SCITEGIC>MOL_PROPERTY
-TS
SciTegic.value.DoubleValue
27.986

@<SCITEGIC>MOL_PROPERTY
U+W
SciTegic.value.DoubleValue
-5.151

@<SCITEGIC>MOL_PROPERTY
U
SciTegic.value.DoubleValue
50.626

@<SCITEGIC>MOL_PROPERTY
W
SciTegic.value.DoubleValue
-55.777

@<SCITEGIC>MOL_PROPERTY
W(PB)
SciTegic.value.DoubleValue
-57.840

@<SCITEGIC>MOL_PROPERTY
W(SA)
SciTegic.value.DoubleValue
2.064

@<SCITEGIC>MOL_PROPERTY
Valence
SciTegic.value.DoubleValue
4.837

@<SCITEGIC>MOL_PROPERTY
Coulomb
SciTegic.value.DoubleValue
45.097

@<SCITEGIC>MOL_PROPERTY
VdW
SciTegic.value.DoubleValue
0.692

@<SCITEGIC>MOL_PROPERTY
VdW6
SciTegic.value.DoubleValue
-6.655

@<SCITEGIC>MOL_PROPERTY
VdW12
SciTegic.value.DoubleValue
7.348

@<SCITEGIC>MOL_PROPERTY
Bond
SciTegic.value.DoubleValue
0.223

@<SCITEGIC>MOL_PROPERTY
Angle
SciTegic.value.DoubleValue
1.166

@<SCITEGIC>MOL_PROPERTY
Pdih
SciTegic.value.DoubleValue
3.447

@<SCITEGIC>MOL_PROPERTY
Idih
SciTegic.value.DoubleValue
0.000

@<SCITEGIC>MOL_PROPERTY
Tether
SciTegic.value.DoubleValue
0.000

@<TRIPOS>MOLECULE
guest-2_vm2.mol2 : vm2 ligand conformer 61
          23          22           1
SMALL
USER_CHARGES
 
@<TRIPOS>ATOM
       1    N1      20.442833   19.197851   25.574726 N.4        1 MOL1        -0.5940
       2    H1      20.351729   20.190893   25.339900 H          1 MOL1         0.3649
       3    H2      21.396814   18.914459   25.329460 H          1 MOL1         0.3649
       4    H3      20.361239   19.122300   26.594316 H          1 MOL1         0.3649
       5    C1      19.403246   18.354155   24.863000 C.3        1 MOL1         0.0207
       6    H4      18.414440   18.689562   25.187300 H          1 MOL1         0.0950
       7    H5      19.535605   17.318925   25.189103 H          1 MOL1         0.0950
       8    C2      19.495616   18.422125   23.326340 C.3        1 MOL1        -0.1415
       9    H6      20.490738   18.082009   23.013887 H          1 MOL1         0.0976
      10    H7      18.767447   17.718258   22.902083 H          1 MOL1         0.0976
      11    C3      19.220078   19.842380   22.776395 C.3        1 MOL1        -0.1375
      12    H8      20.020481   20.524587   23.092771 H          1 MOL1         0.0976
      13    H9      18.294153   20.225001   23.227900 H          1 MOL1         0.0976
      14    C4      19.072843   19.913040   21.234331 C.3        1 MOL1        -0.1375
      15    H10     18.210565   19.315181   20.908405 H          1 MOL1         0.0976
      16    H11     18.826778   20.951869   20.974021 H          1 MOL1         0.0976
      17    C5      20.340208   19.505157   20.439401 C.3        1 MOL1        -0.1350
      18    H12     21.245111   19.732100   21.020122 H          1 MOL1         0.0976
      19    H13     20.399210   20.125600   19.534121 H          1 MOL1         0.0976
      20    C6      20.341175   18.022293   19.999807 C.3        1 MOL1        -0.2365
      21    H14     19.473483   17.801349   19.364725 H          1 MOL1         0.0987
      22    H15     20.316478   17.337721   20.854528 H          1 MOL1         0.0987
      23    H16     21.244490   17.795095   19.419021 H          1 MOL1         0.0987
@<TRIPOS>BOND
    1     1     2    1
    2     1     3    1
    3     1     4    1
    4     1     5    1
    5     5     6    1
    6     5     7    1
    7     5     8    1
    8     8     9    1
    9     8    10    1
   10     8    11    1
   11    11    12    1
   12    11    13    1
   13    11    14    1
   14    14    15    1
   15    14    16    1
   16    14    17    1
   17    17    18    1
   18    17    19    1
   19    17    20    1
   20    20    21    1
   21    20    22    1
   22    20    23    1
@<TRIPOS>SUBSTRUCTURE
       1 MOL1            1 RESIDUE      1      MOL     
@<SCITEGIC>MOL_PROPERTY
VM2 Rank
SciTegic.value.IntegerValue
61

@<SCITEGIC>MOL_PROPERTY
Conf_Id
SciTegic.value.IntegerValue
510

@<SCITEGIC>MOL_PROPERTY
Probability
SciTegic.value.DoubleValue
0.02

@<SCITEGIC>MOL_PROPERTY
Sum Probability
SciTegic.value.DoubleValue
99.75

@<SCITEGIC>MOL_PROPERTY
Delta G
SciTegic.value.DoubleValue
3.706

@<SCITEGIC>MOL_PROPERTY
G
SciTegic.value.DoubleValue
41.622

@<SCITEGIC>MOL_PROPERTY
E
SciTegic.value.DoubleValue
13.669

@<SCITEGIC>MOL_PROPERTY
-TS
SciTegic.value.DoubleValue
27.954

@<SCITEGIC>MOL_PROPERTY
U+W
SciTegic.value.DoubleValue
-5.110

@<SCITEGIC>MOL_PROPERTY
U
SciTegic.value.DoubleValue
50.700

@<SCITEGIC>MOL_PROPERTY
W
SciTegic.value.DoubleValue
-55.810

@<SCITEGIC>MOL_PROPERTY
W(PB)
SciTegic.value.DoubleValue
-57.884

@<SCITEGIC>MOL_PROPERTY
W(SA)
SciTegic.value.DoubleValue
2.074

@<SCITEGIC>MOL_PROPERTY
Valence
SciTegic.value.DoubleValue
4.818

@<SCITEGIC>MOL_PROPERTY
Coulomb
SciTegic.value.DoubleValue
45.214

@<SCITEGIC>MOL_PROPERTY
VdW
SciTegic.value.DoubleValue
0.668

@<SCITEGIC>MOL_PROPERTY
VdW6
SciTegic.value.DoubleValue
-6.660

@<SCITEGIC>MOL_PROPERTY
VdW12
SciTegic.value.DoubleValue
7.328

@<SCITEGIC>MOL_PROPERTY
Bond
SciTegic.value.DoubleValue
0.218

@<SCITEGIC>MOL_PROPERTY
Angle
SciTegic.value.DoubleValue
1.219

@<SCITEGIC>MOL_PROPERTY
Pdih
SciTegic.value.DoubleValue
3.381

@<SCITEGIC>MOL_PROPERTY
Idih
SciTegic.value.DoubleValue
0.000

@<SCITEGIC>MOL_PROPERTY
Tether
SciTegic.value.DoubleValue
0.000

@<TRIPOS>MOLECULE
guest-2_vm2.mol2 : vm2 ligand conformer 62
          23          22           1
SMALL
USER_CHARGES
 
@<TRIPOS>ATOM
       1    N1      20.018466   18.746481   25.775846 N.4        1 MOL1        -0.5940
       2    H1      20.517654   17.852671   25.725375 H          1 MOL1         0.3649
       3    H2      19.682229   18.846904   26.739593 H          1 MOL1         0.3649
       4    H3      20.708337   19.487802   25.621174 H          1 MOL1         0.3649
       5    C1      18.882458   18.815204   24.773674 C.3        1 MOL1         0.0207
       6    H4      18.379206   19.778204   24.895286 H          1 MOL1         0.0950
       7    H5      18.170623   18.024899   25.027210 H          1 MOL1         0.0950
       8    C2      19.331560   18.645471   23.309185 C.3        1 MOL1        -0.1415
       9    H6      19.860819   17.690156   23.195568 H          1 MOL1         0.0976
      10    H7      18.430142   18.588322   22.686856 H          1 MOL1         0.0976
      11    C3      20.223185   19.811693   22.817518 C.3        1 MOL1        -0.1375
      12    H8      21.072491   19.935884   23.502053 H          1 MOL1         0.0976
      13    H9      19.653342   20.750035   22.864421 H          1 MOL1         0.0976
      14    C4      20.788908   19.624312   21.385771 C.3        1 MOL1        -0.1375
      15    H10     21.434749   20.486947   21.170741 H          1 MOL1         0.0976
      16    H11     21.448807   18.746447   21.352432 H          1 MOL1         0.0976
      17    C5      19.718487   19.533531   20.267559 C.3        1 MOL1        -0.1350
      18    H12     20.107903   20.032272   19.368902 H          1 MOL1         0.0976
      19    H13     18.816626   20.091696   20.555130 H          1 MOL1         0.0976
      20    C6      19.352936   18.080307   19.884448 C.3        1 MOL1        -0.2365
      21    H14     18.936703   17.522269   20.730299 H          1 MOL1         0.0987
      22    H15     20.235797   17.536799   19.523597 H          1 MOL1         0.0987
      23    H16     18.605725   18.071653   19.080386 H          1 MOL1         0.0987
@<TRIPOS>BOND
    1     1     2    1
    2     1     3    1
    3     1     4    1
    4     1     5    1
    5     5     6    1
    6     5     7    1
    7     5     8    1
    8     8     9    1
    9     8    10    1
   10     8    11    1
   11    11    12    1
   12    11    13    1
   13    11    14    1
   14    14    15    1
   15    14    16    1
   16    14    17    1
   17    17    18    1
   18    17    19    1
   19    17    20    1
   20    20    21    1
   21    20    22    1
   22    20    23    1
@<TRIPOS>SUBSTRUCTURE
       1 MOL1            1 RESIDUE      1      MOL     
@<SCITEGIC>MOL_PROPERTY
VM2 Rank
SciTegic.value.IntegerValue
62

@<SCITEGIC>MOL_PROPERTY
Conf_Id
SciTegic.value.IntegerValue
495

@<SCITEGIC>MOL_PROPERTY
Probability
SciTegic.value.DoubleValue
0.02

@<SCITEGIC>MOL_PROPERTY
Sum Probability
SciTegic.value.DoubleValue
99.77

@<SCITEGIC>MOL_PROPERTY
Delta G
SciTegic.value.DoubleValue
3.712

@<SCITEGIC>MOL_PROPERTY
G
SciTegic.value.DoubleValue
41.629

@<SCITEGIC>MOL_PROPERTY
E
SciTegic.value.DoubleValue
13.680

@<SCITEGIC>MOL_PROPERTY
-TS
SciTegic.value.DoubleValue
27.949

@<SCITEGIC>MOL_PROPERTY
U+W
SciTegic.value.DoubleValue
-5.099

@<SCITEGIC>MOL_PROPERTY
U
SciTegic.value.DoubleValue
50.701

@<SCITEGIC>MOL_PROPERTY
W
SciTegic.value.DoubleValue
-55.800

@<SCITEGIC>MOL_PROPERTY
W(PB)
SciTegic.value.DoubleValue
-57.867

@<SCITEGIC>MOL_PROPERTY
W(SA)
SciTegic.value.DoubleValue
2.067

@<SCITEGIC>MOL_PROPERTY
Valence
SciTegic.value.DoubleValue
4.881

@<SCITEGIC>MOL_PROPERTY
Coulomb
SciTegic.value.DoubleValue
45.095

@<SCITEGIC>MOL_PROPERTY
VdW
SciTegic.value.DoubleValue
0.726

@<SCITEGIC>MOL_PROPERTY
VdW6
SciTegic.value.DoubleValue
-6.620

@<SCITEGIC>MOL_PROPERTY
VdW12
SciTegic.value.DoubleValue
7.345

@<SCITEGIC>MOL_PROPERTY
Bond
SciTegic.value.DoubleValue
0.222

@<SCITEGIC>MOL_PROPERTY
Angle
SciTegic.value.DoubleValue
1.260

@<SCITEGIC>MOL_PROPERTY
Pdih
SciTegic.value.DoubleValue
3.398

@<SCITEGIC>MOL_PROPERTY
Idih
SciTegic.value.DoubleValue
0.000

@<SCITEGIC>MOL_PROPERTY
Tether
SciTegic.value.DoubleValue
0.000

@<TRIPOS>MOLECULE
guest-2_vm2.mol2 : vm2 ligand conformer 63
          23          22           1
SMALL
USER_CHARGES
 
@<TRIPOS>ATOM
       1    N1      20.827747   18.808415   25.241857 N.4        1 MOL1        -0.5940
       2    H1      21.363510   18.017132   24.871352 H          1 MOL1         0.3649
       3    H2      21.014596   18.850370   26.249469 H          1 MOL1         0.3649
       4    H3      21.219675   19.660160   24.829110 H          1 MOL1         0.3649
       5    C1      19.346029   18.672157   24.950110 C.3        1 MOL1         0.0207
       6    H4      18.832211   19.529443   25.393343 H          1 MOL1         0.0950
       7    H5      18.991667   17.766759   25.450355 H          1 MOL1         0.0950
       8    C2      19.014809   18.588639   23.447616 C.3        1 MOL1        -0.1415
       9    H6      19.534955   17.728834   23.010816 H          1 MOL1         0.0976
      10    H7      17.940900   18.385324   23.342290 H          1 MOL1         0.0976
      11    C3      19.362190   19.894336   22.687642 C.3        1 MOL1        -0.1375
      12    H8      20.428227   20.135662   22.791876 H          1 MOL1         0.0976
      13    H9      18.815484   20.720366   23.163470 H          1 MOL1         0.0976
      14    C4      18.978266   19.854568   21.185241 C.3        1 MOL1        -0.1375
      15    H10     18.103990   19.207294   21.031141 H          1 MOL1         0.0976
      16    H11     18.655590   20.862098   20.888206 H          1 MOL1         0.0976
      17    C5      20.126561   19.434241   20.232388 C.3        1 MOL1        -0.1350
      18    H12     20.955491   20.150989   20.315399 H          1 MOL1         0.0976
      19    H13     19.764279   19.507676   19.197414 H          1 MOL1         0.0976
      20    C6      20.660399   18.004644   20.469147 C.3        1 MOL1        -0.2365
      21    H14     21.370565   17.725236   19.680178 H          1 MOL1         0.0987
      22    H15     19.844540   17.270367   20.461885 H          1 MOL1         0.0987
      23    H16     21.190346   17.930761   21.426525 H          1 MOL1         0.0987
@<TRIPOS>BOND
    1     1     2    1
    2     1     3    1
    3     1     4    1
    4     1     5    1
    5     5     6    1
    6     5     7    1
    7     5     8    1
    8     8     9    1
    9     8    10    1
   10     8    11    1
   11    11    12    1
   12    11    13    1
   13    11    14    1
   14    14    15    1
   15    14    16    1
   16    14    17    1
   17    17    18    1
   18    17    19    1
   19    17    20    1
   20    20    21    1
   21    20    22    1
   22    20    23    1
@<TRIPOS>SUBSTRUCTURE
       1 MOL1            1 RESIDUE      1      MOL     
@<SCITEGIC>MOL_PROPERTY
VM2 Rank
SciTegic.value.IntegerValue
63

@<SCITEGIC>MOL_PROPERTY
Conf_Id
SciTegic.value.IntegerValue
319

@<SCITEGIC>MOL_PROPERTY
Probability
SciTegic.value.DoubleValue
0.02

@<SCITEGIC>MOL_PROPERTY
Sum Probability
SciTegic.value.DoubleValue
99.79

@<SCITEGIC>MOL_PROPERTY
Delta G
SciTegic.value.DoubleValue
3.761

@<SCITEGIC>MOL_PROPERTY
G
SciTegic.value.DoubleValue
41.678

@<SCITEGIC>MOL_PROPERTY
E
SciTegic.value.DoubleValue
13.724

@<SCITEGIC>MOL_PROPERTY
-TS
SciTegic.value.DoubleValue
27.953

@<SCITEGIC>MOL_PROPERTY
U+W
SciTegic.value.DoubleValue
-5.055

@<SCITEGIC>MOL_PROPERTY
U
SciTegic.value.DoubleValue
50.975

@<SCITEGIC>MOL_PROPERTY
W
SciTegic.value.DoubleValue
-56.030

@<SCITEGIC>MOL_PROPERTY
W(PB)
SciTegic.value.DoubleValue
-58.076

@<SCITEGIC>MOL_PROPERTY
W(SA)
SciTegic.value.DoubleValue
2.047

@<SCITEGIC>MOL_PROPERTY
Valence
SciTegic.value.DoubleValue
4.792

@<SCITEGIC>MOL_PROPERTY
Coulomb
SciTegic.value.DoubleValue
45.573

@<SCITEGIC>MOL_PROPERTY
VdW
SciTegic.value.DoubleValue
0.610

@<SCITEGIC>MOL_PROPERTY
VdW6
SciTegic.value.DoubleValue
-6.731

@<SCITEGIC>MOL_PROPERTY
VdW12
SciTegic.value.DoubleValue
7.341

@<SCITEGIC>MOL_PROPERTY
Bond
SciTegic.value.DoubleValue
0.224

@<SCITEGIC>MOL_PROPERTY
Angle
SciTegic.value.DoubleValue
1.227

@<SCITEGIC>MOL_PROPERTY
Pdih
SciTegic.value.DoubleValue
3.342

@<SCITEGIC>MOL_PROPERTY
Idih
SciTegic.value.DoubleValue
0.000

@<SCITEGIC>MOL_PROPERTY
Tether
SciTegic.value.DoubleValue
0.000

@<TRIPOS>MOLECULE
guest-2_vm2.mol2 : vm2 ligand conformer 64
          23          22           1
SMALL
USER_CHARGES
 
@<TRIPOS>ATOM
       1    N1      18.966200   18.034149   25.156874 N.4        1 MOL1        -0.5940
       2    H1      18.727101   17.898883   26.145048 H          1 MOL1         0.3649
       3    H2      19.178994   17.108559   24.771585 H          1 MOL1         0.3649
       4    H3      18.120146   18.371029   24.687678 H          1 MOL1         0.3649
       5    C1      20.125522   18.996347   24.985650 C.3        1 MOL1         0.0207
       6    H4      20.976388   18.592191   25.540849 H          1 MOL1         0.0950
       7    H5      19.844957   19.950620   25.439576 H          1 MOL1         0.0950
       8    C2      20.533825   19.220479   23.516898 C.3        1 MOL1        -0.1415
       9    H6      21.439823   19.840684   23.501917 H          1 MOL1         0.0976
      10    H7      20.811279   18.259742   23.068997 H          1 MOL1         0.0976
      11    C3      19.424640   19.920353   22.690479 C.3        1 MOL1        -0.1375
      12    H8      19.186805   20.874871   23.180330 H          1 MOL1         0.0976
      13    H9      18.497301   19.332645   22.703864 H          1 MOL1         0.0976
      14    C4      19.838917   20.212446   21.224448 C.3        1 MOL1        -0.1375
      15    H10     19.375396   21.161395   20.920952 H          1 MOL1         0.0976
      16    H11     20.922877   20.379458   21.159593 H          1 MOL1         0.0976
      17    C5      19.404082   19.133756   20.199491 C.3        1 MOL1        -0.1350
      18    H12     19.686721   19.475357   19.193889 H          1 MOL1         0.0976
      19    H13     18.308304   19.050115   20.194823 H          1 MOL1         0.0976
      20    C6      20.022815   17.739470   20.440159 C.3        1 MOL1        -0.2365
      21    H14     19.783086   17.065027   19.607973 H          1 MOL1         0.0987
      22    H15     19.628848   17.281409   21.355499 H          1 MOL1         0.0987
      23    H16     21.115954   17.799046   20.519787 H          1 MOL1         0.0987
@<TRIPOS>BOND
    1     1     2    1
    2     1     3    1
    3     1     4    1
    4     1     5    1
    5     5     6    1
    6     5     7    1
    7     5     8    1
    8     8     9    1
    9     8    10    1
   10     8    11    1
   11    11    12    1
   12    11    13    1
   13    11    14    1
   14    14    15    1
   15    14    16    1
   16    14    17    1
   17    17    18    1
   18    17    19    1
   19    17    20    1
   20    20    21    1
   21    20    22    1
   22    20    23    1
@<TRIPOS>SUBSTRUCTURE
       1 MOL1            1 RESIDUE      1      MOL     
@<SCITEGIC>MOL_PROPERTY
VM2 Rank
SciTegic.value.IntegerValue
64

@<SCITEGIC>MOL_PROPERTY
Conf_Id
SciTegic.value.IntegerValue
860

@<SCITEGIC>MOL_PROPERTY
Probability
SciTegic.value.DoubleValue
0.02

@<SCITEGIC>MOL_PROPERTY
Sum Probability
SciTegic.value.DoubleValue
99.81

@<SCITEGIC>MOL_PROPERTY
Delta G
SciTegic.value.DoubleValue
3.796

@<SCITEGIC>MOL_PROPERTY
G
SciTegic.value.DoubleValue
41.713

@<SCITEGIC>MOL_PROPERTY
E
SciTegic.value.DoubleValue
13.759

@<SCITEGIC>MOL_PROPERTY
-TS
SciTegic.value.DoubleValue
27.953

@<SCITEGIC>MOL_PROPERTY
U+W
SciTegic.value.DoubleValue
-5.020

@<SCITEGIC>MOL_PROPERTY
U
SciTegic.value.DoubleValue
50.975

@<SCITEGIC>MOL_PROPERTY
W
SciTegic.value.DoubleValue
-55.995

@<SCITEGIC>MOL_PROPERTY
W(PB)
SciTegic.value.DoubleValue
-58.046

@<SCITEGIC>MOL_PROPERTY
W(SA)
SciTegic.value.DoubleValue
2.051

@<SCITEGIC>MOL_PROPERTY
Valence
SciTegic.value.DoubleValue
4.792

@<SCITEGIC>MOL_PROPERTY
Coulomb
SciTegic.value.DoubleValue
45.573

@<SCITEGIC>MOL_PROPERTY
VdW
SciTegic.value.DoubleValue
0.610

@<SCITEGIC>MOL_PROPERTY
VdW6
SciTegic.value.DoubleValue
-6.731

@<SCITEGIC>MOL_PROPERTY
VdW12
SciTegic.value.DoubleValue
7.341

@<SCITEGIC>MOL_PROPERTY
Bond
SciTegic.value.DoubleValue
0.224

@<SCITEGIC>MOL_PROPERTY
Angle
SciTegic.value.DoubleValue
1.226

@<SCITEGIC>MOL_PROPERTY
Pdih
SciTegic.value.DoubleValue
3.342

@<SCITEGIC>MOL_PROPERTY
Idih
SciTegic.value.DoubleValue
0.000

@<SCITEGIC>MOL_PROPERTY
Tether
SciTegic.value.DoubleValue
0.000

@<TRIPOS>MOLECULE
guest-2_vm2.mol2 : vm2 ligand conformer 65
          23          22           1
SMALL
USER_CHARGES
 
@<TRIPOS>ATOM
       1    N1      19.536812   18.546299   25.753953 N.4        1 MOL1        -0.5940
       2    H1      18.539720   18.585989   25.522364 H          1 MOL1         0.3649
       3    H2      19.626991   18.824199   26.737106 H          1 MOL1         0.3649
       4    H3      19.822980   17.563887   25.693904 H          1 MOL1         0.3649
       5    C1      20.363477   19.431179   24.841153 C.3        1 MOL1         0.0207
       6    H4      21.402999   19.369262   25.174519 H          1 MOL1         0.0950
       7    H5      20.025690   20.463003   24.970222 H          1 MOL1         0.0950
       8    C2      20.281931   19.040649   23.352505 C.3        1 MOL1        -0.1415
       9    H6      21.003479   19.658494   22.804096 H          1 MOL1         0.0976
      10    H7      20.595461   17.995602   23.229112 H          1 MOL1         0.0976
      11    C3      18.868530   19.248134   22.755799 C.3        1 MOL1        -0.1375
      12    H8      18.600622   20.312062   22.816547 H          1 MOL1         0.0976
      13    H9      18.131313   18.712358   23.367996 H          1 MOL1         0.0976
      14    C4      18.715092   18.761735   21.291240 C.3        1 MOL1        -0.1375
      15    H10     18.875881   17.676278   21.235077 H          1 MOL1         0.0976
      16    H11     17.667701   18.920122   20.999052 H          1 MOL1         0.0976
      17    C5      19.617549   19.491612   20.262992 C.3        1 MOL1        -0.1350
      18    H12     19.833287   20.514549   20.601598 H          1 MOL1         0.0976
      19    H13     19.060788   19.596948   19.321241 H          1 MOL1         0.0976
      20    C6      20.932610   18.737392   19.956357 C.3        1 MOL1        -0.2365
      21    H14     21.525745   19.286322   19.213538 H          1 MOL1         0.0987
      22    H15     20.725508   17.740680   19.545584 H          1 MOL1         0.0987
      23    H16     21.554188   18.610762   20.849513 H          1 MOL1         0.0987
@<TRIPOS>BOND
    1     1     2    1
    2     1     3    1
    3     1     4    1
    4     1     5    1
    5     5     6    1
    6     5     7    1
    7     5     8    1
    8     8     9    1
    9     8    10    1
   10     8    11    1
   11    11    12    1
   12    11    13    1
   13    11    14    1
   14    14    15    1
   15    14    16    1
   16    14    17    1
   17    17    18    1
   18    17    19    1
   19    17    20    1
   20    20    21    1
   21    20    22    1
   22    20    23    1
@<TRIPOS>SUBSTRUCTURE
       1 MOL1            1 RESIDUE      1      MOL     
@<SCITEGIC>MOL_PROPERTY
VM2 Rank
SciTegic.value.IntegerValue
65

@<SCITEGIC>MOL_PROPERTY
Conf_Id
SciTegic.value.IntegerValue
1022

@<SCITEGIC>MOL_PROPERTY
Probability
SciTegic.value.DoubleValue
0.02

@<SCITEGIC>MOL_PROPERTY
Sum Probability
SciTegic.value.DoubleValue
99.83

@<SCITEGIC>MOL_PROPERTY
Delta G
SciTegic.value.DoubleValue
3.803

@<SCITEGIC>MOL_PROPERTY
G
SciTegic.value.DoubleValue
41.719

@<SCITEGIC>MOL_PROPERTY
E
SciTegic.value.DoubleValue
13.770

@<SCITEGIC>MOL_PROPERTY
-TS
SciTegic.value.DoubleValue
27.949

@<SCITEGIC>MOL_PROPERTY
U+W
SciTegic.value.DoubleValue
-5.009

@<SCITEGIC>MOL_PROPERTY
U
SciTegic.value.DoubleValue
50.701

@<SCITEGIC>MOL_PROPERTY
W
SciTegic.value.DoubleValue
-55.709

@<SCITEGIC>MOL_PROPERTY
W(PB)
SciTegic.value.DoubleValue
-57.768

@<SCITEGIC>MOL_PROPERTY
W(SA)
SciTegic.value.DoubleValue
2.058

@<SCITEGIC>MOL_PROPERTY
Valence
SciTegic.value.DoubleValue
4.881

@<SCITEGIC>MOL_PROPERTY
Coulomb
SciTegic.value.DoubleValue
45.095

@<SCITEGIC>MOL_PROPERTY
VdW
SciTegic.value.DoubleValue
0.726

@<SCITEGIC>MOL_PROPERTY
VdW6
SciTegic.value.DoubleValue
-6.620

@<SCITEGIC>MOL_PROPERTY
VdW12
SciTegic.value.DoubleValue
7.345

@<SCITEGIC>MOL_PROPERTY
Bond
SciTegic.value.DoubleValue
0.222

@<SCITEGIC>MOL_PROPERTY
Angle
SciTegic.value.DoubleValue
1.260

@<SCITEGIC>MOL_PROPERTY
Pdih
SciTegic.value.DoubleValue
3.398

@<SCITEGIC>MOL_PROPERTY
Idih
SciTegic.value.DoubleValue
0.000

@<SCITEGIC>MOL_PROPERTY
Tether
SciTegic.value.DoubleValue
0.000

@<TRIPOS>MOLECULE
guest-2_vm2.mol2 : vm2 ligand conformer 66
          23          22           1
SMALL
USER_CHARGES
 
@<TRIPOS>ATOM
       1    N1      20.989788   18.913645   24.756442 N.4        1 MOL1        -0.5940
       2    H1      21.355176   19.490428   23.992959 H          1 MOL1         0.3649
       3    H2      21.721260   18.238868   25.004362 H          1 MOL1         0.3649
       4    H3      20.863355   19.528260   25.566945 H          1 MOL1         0.3649
       5    C1      19.696131   18.225407   24.367096 C.3        1 MOL1         0.0207
       6    H4      19.378378   17.613672   25.215812 H          1 MOL1         0.0950
       7    H5      19.899520   17.554786   23.529404 H          1 MOL1         0.0950
       8    C2      18.564352   19.201624   23.993003 C.3        1 MOL1        -0.1415
       9    H6      17.658090   18.621344   23.774593 H          1 MOL1         0.0976
      10    H7      18.325164   19.813068   24.873202 H          1 MOL1         0.0976
      11    C3      18.869239   20.142094   22.796344 C.3        1 MOL1        -0.1375
      12    H8      19.736044   20.780083   23.014135 H          1 MOL1         0.0976
      13    H9      18.018454   20.830906   22.700515 H          1 MOL1         0.0976
      14    C4      19.052975   19.426372   21.432189 C.3        1 MOL1        -0.1375
      15    H10     18.371464   18.567416   21.362489 H          1 MOL1         0.0976
      16    H11     18.744387   20.121694   20.639169 H          1 MOL1         0.0976
      17    C5      20.506787   18.983204   21.138544 C.3        1 MOL1        -0.1350
      18    H12     20.847167   18.249134   21.877275 H          1 MOL1         0.0976
      19    H13     21.180389   19.847969   21.215736 H          1 MOL1         0.0976
      20    C6      20.636727   18.364653   19.730382 C.3        1 MOL1        -0.2365
      21    H14     20.348459   19.085033   18.953740 H          1 MOL1         0.0987
      22    H15     19.997389   17.478028   19.628536 H          1 MOL1         0.0987
      23    H16     21.672434   18.057080   19.536080 H          1 MOL1         0.0987
@<TRIPOS>BOND
    1     1     2    1
    2     1     3    1
    3     1     4    1
    4     1     5    1
    5     5     6    1
    6     5     7    1
    7     5     8    1
    8     8     9    1
    9     8    10    1
   10     8    11    1
   11    11    12    1
   12    11    13    1
   13    11    14    1
   14    14    15    1
   15    14    16    1
   16    14    17    1
   17    17    18    1
   18    17    19    1
   19    17    20    1
   20    20    21    1
   21    20    22    1
   22    20    23    1
@<TRIPOS>SUBSTRUCTURE
       1 MOL1            1 RESIDUE      1      MOL     
@<SCITEGIC>MOL_PROPERTY
VM2 Rank
SciTegic.value.IntegerValue
66

@<SCITEGIC>MOL_PROPERTY
Conf_Id
SciTegic.value.IntegerValue
559

@<SCITEGIC>MOL_PROPERTY
Probability
SciTegic.value.DoubleValue
0.02

@<SCITEGIC>MOL_PROPERTY
Sum Probability
SciTegic.value.DoubleValue
99.85

@<SCITEGIC>MOL_PROPERTY
Delta G
SciTegic.value.DoubleValue
3.854

@<SCITEGIC>MOL_PROPERTY
G
SciTegic.value.DoubleValue
41.770

@<SCITEGIC>MOL_PROPERTY
E
SciTegic.value.DoubleValue
13.750

@<SCITEGIC>MOL_PROPERTY
-TS
SciTegic.value.DoubleValue
28.020

@<SCITEGIC>MOL_PROPERTY
U+W
SciTegic.value.DoubleValue
-5.029

@<SCITEGIC>MOL_PROPERTY
U
SciTegic.value.DoubleValue
51.112

@<SCITEGIC>MOL_PROPERTY
W
SciTegic.value.DoubleValue
-56.141

@<SCITEGIC>MOL_PROPERTY
W(PB)
SciTegic.value.DoubleValue
-58.236

@<SCITEGIC>MOL_PROPERTY
W(SA)
SciTegic.value.DoubleValue
2.094

@<SCITEGIC>MOL_PROPERTY
Valence
SciTegic.value.DoubleValue
4.455

@<SCITEGIC>MOL_PROPERTY
Coulomb
SciTegic.value.DoubleValue
46.320

@<SCITEGIC>MOL_PROPERTY
VdW
SciTegic.value.DoubleValue
0.337

@<SCITEGIC>MOL_PROPERTY
VdW6
SciTegic.value.DoubleValue
-7.022

@<SCITEGIC>MOL_PROPERTY
VdW12
SciTegic.value.DoubleValue
7.359

@<SCITEGIC>MOL_PROPERTY
Bond
SciTegic.value.DoubleValue
0.222

@<SCITEGIC>MOL_PROPERTY
Angle
SciTegic.value.DoubleValue
1.454

@<SCITEGIC>MOL_PROPERTY
Pdih
SciTegic.value.DoubleValue
2.779

@<SCITEGIC>MOL_PROPERTY
Idih
SciTegic.value.DoubleValue
0.000

@<SCITEGIC>MOL_PROPERTY
Tether
SciTegic.value.DoubleValue
0.000

@<TRIPOS>MOLECULE
guest-2_vm2.mol2 : vm2 ligand conformer 67
          23          22           1
SMALL
USER_CHARGES
 
@<TRIPOS>ATOM
       1    N1      20.302547   18.196707   25.653851 N.4        1 MOL1        -0.5940
       2    H1      20.955019   18.563484   26.355099 H          1 MOL1         0.3649
       3    H2      20.718954   17.338042   25.279656 H          1 MOL1         0.3649
       4    H3      19.449813   17.925485   26.153934 H          1 MOL1         0.3649
       5    C1      20.020197   19.210192   24.563430 C.3        1 MOL1         0.0207
       6    H4      20.972841   19.474657   24.097920 H          1 MOL1         0.0950
       7    H5      19.607355   20.106224   25.034671 H          1 MOL1         0.0950
       8    C2      19.040608   18.689352   23.494442 C.3        1 MOL1        -0.1415
       9    H6      19.450692   17.784131   23.033269 H          1 MOL1         0.0976
      10    H7      18.106225   18.389905   23.987414 H          1 MOL1         0.0976
      11    C3      18.713514   19.753498   22.416052 C.3        1 MOL1        -0.1375
      12    H8      18.331498   20.648539   22.926553 H          1 MOL1         0.0976
      13    H9      17.887346   19.398788   21.784635 H          1 MOL1         0.0976
      14    C4      19.913747   20.166895   21.520697 C.3        1 MOL1        -0.1375
      15    H10     19.792686   21.227578   21.260488 H          1 MOL1         0.0976
      16    H11     20.857681   20.108473   22.077457 H          1 MOL1         0.0976
      17    C5      20.036087   19.376494   20.192862 C.3        1 MOL1        -0.1350
      18    H12     20.863265   19.804120   19.609129 H          1 MOL1         0.0976
      19    H13     19.129917   19.525564   19.589216 H          1 MOL1         0.0976
      20    C6      20.289299   17.863861   20.372668 C.3        1 MOL1        -0.2365
      21    H14     20.510234   17.394731   19.405203 H          1 MOL1         0.0987
      22    H15     19.407763   17.359005   20.786027 H          1 MOL1         0.0987
      23    H16     21.143206   17.680675   21.037632 H          1 MOL1         0.0987
@<TRIPOS>BOND
    1     1     2    1
    2     1     3    1
    3     1     4    1
    4     1     5    1
    5     5     6    1
    6     5     7    1
    7     5     8    1
    8     8     9    1
    9     8    10    1
   10     8    11    1
   11    11    12    1
   12    11    13    1
   13    11    14    1
   14    14    15    1
   15    14    16    1
   16    14    17    1
   17    17    18    1
   18    17    19    1
   19    17    20    1
   20    20    21    1
   21    20    22    1
   22    20    23    1
@<TRIPOS>SUBSTRUCTURE
       1 MOL1            1 RESIDUE      1      MOL     
@<SCITEGIC>MOL_PROPERTY
VM2 Rank
SciTegic.value.IntegerValue
67

@<SCITEGIC>MOL_PROPERTY
Conf_Id
SciTegic.value.IntegerValue
857

@<SCITEGIC>MOL_PROPERTY
Probability
SciTegic.value.DoubleValue
0.02

@<SCITEGIC>MOL_PROPERTY
Sum Probability
SciTegic.value.DoubleValue
99.87

@<SCITEGIC>MOL_PROPERTY
Delta G
SciTegic.value.DoubleValue
3.869

@<SCITEGIC>MOL_PROPERTY
G
SciTegic.value.DoubleValue
41.785

@<SCITEGIC>MOL_PROPERTY
E
SciTegic.value.DoubleValue
13.890

@<SCITEGIC>MOL_PROPERTY
-TS
SciTegic.value.DoubleValue
27.895

@<SCITEGIC>MOL_PROPERTY
U+W
SciTegic.value.DoubleValue
-4.889

@<SCITEGIC>MOL_PROPERTY
U
SciTegic.value.DoubleValue
51.036

@<SCITEGIC>MOL_PROPERTY
W
SciTegic.value.DoubleValue
-55.925

@<SCITEGIC>MOL_PROPERTY
W(PB)
SciTegic.value.DoubleValue
-57.988

@<SCITEGIC>MOL_PROPERTY
W(SA)
SciTegic.value.DoubleValue
2.063

@<SCITEGIC>MOL_PROPERTY
Valence
SciTegic.value.DoubleValue
5.117

@<SCITEGIC>MOL_PROPERTY
Coulomb
SciTegic.value.DoubleValue
45.321

@<SCITEGIC>MOL_PROPERTY
VdW
SciTegic.value.DoubleValue
0.598

@<SCITEGIC>MOL_PROPERTY
VdW6
SciTegic.value.DoubleValue
-6.707

@<SCITEGIC>MOL_PROPERTY
VdW12
SciTegic.value.DoubleValue
7.305

@<SCITEGIC>MOL_PROPERTY
Bond
SciTegic.value.DoubleValue
0.233

@<SCITEGIC>MOL_PROPERTY
Angle
SciTegic.value.DoubleValue
1.409

@<SCITEGIC>MOL_PROPERTY
Pdih
SciTegic.value.DoubleValue
3.475

@<SCITEGIC>MOL_PROPERTY
Idih
SciTegic.value.DoubleValue
0.000

@<SCITEGIC>MOL_PROPERTY
Tether
SciTegic.value.DoubleValue
0.000

@<TRIPOS>MOLECULE
guest-2_vm2.mol2 : vm2 ligand conformer 68
          23          22           1
SMALL
USER_CHARGES
 
@<TRIPOS>ATOM
       1    N1      19.736181   17.961071   25.628005 N.4        1 MOL1        -0.5940
       2    H1      18.964096   17.735190   26.264289 H          1 MOL1         0.3649
       3    H2      20.487937   18.357362   26.201256 H          1 MOL1         0.3649
       4    H3      20.080916   17.072587   25.250543 H          1 MOL1         0.3649
       5    C1      19.301400   18.911141   24.530635 C.3        1 MOL1         0.0207
       6    H4      18.920189   19.820331   25.003323 H          1 MOL1         0.0950
       7    H5      18.481611   18.438234   23.984305 H          1 MOL1         0.0950
       8    C2      20.440705   19.271812   23.558266 C.3        1 MOL1        -0.1415
       9    H6      21.270323   19.706200   24.131679 H          1 MOL1         0.0976
      10    H7      20.829564   18.357769   23.096113 H          1 MOL1         0.0976
      11    C3      20.000550   20.288944   22.474738 C.3        1 MOL1        -0.1375
      12    H8      20.880594   20.644043   21.921124 H          1 MOL1         0.0976
      13    H9      19.595383   21.174341   22.984203 H          1 MOL1         0.0976
      14    C4      18.934864   19.759741   21.476052 C.3        1 MOL1        -0.1375
      15    H10     18.270385   19.032300   21.959481 H          1 MOL1         0.0976
      16    H11     18.289124   20.602163   21.191875 H          1 MOL1         0.0976
      17    C5      19.511640   19.158326   20.168964 C.3        1 MOL1        -0.1350
      18    H12     20.089185   19.924466   19.633027 H          1 MOL1         0.0976
      19    H13     18.673561   18.893366   19.509229 H          1 MOL1         0.0976
      20    C6      20.390659   17.905965   20.377341 C.3        1 MOL1        -0.2365
      21    H14     20.642751   17.449775   19.411306 H          1 MOL1         0.0987
      22    H15     19.869207   17.150787   20.979575 H          1 MOL1         0.0987
      23    H16     21.334831   18.160411   20.873977 H          1 MOL1         0.0987
@<TRIPOS>BOND
    1     1     2    1
    2     1     3    1
    3     1     4    1
    4     1     5    1
    5     5     6    1
    6     5     7    1
    7     5     8    1
    8     8     9    1
    9     8    10    1
   10     8    11    1
   11    11    12    1
   12    11    13    1
   13    11    14    1
   14    14    15    1
   15    14    16    1
   16    14    17    1
   17    17    18    1
   18    17    19    1
   19    17    20    1
   20    20    21    1
   21    20    22    1
   22    20    23    1
@<TRIPOS>SUBSTRUCTURE
       1 MOL1            1 RESIDUE      1      MOL     
@<SCITEGIC>MOL_PROPERTY
VM2 Rank
SciTegic.value.IntegerValue
68

@<SCITEGIC>MOL_PROPERTY
Conf_Id
SciTegic.value.IntegerValue
664

@<SCITEGIC>MOL_PROPERTY
Probability
SciTegic.value.DoubleValue
0.02

@<SCITEGIC>MOL_PROPERTY
Sum Probability
SciTegic.value.DoubleValue
99.89

@<SCITEGIC>MOL_PROPERTY
Delta G
SciTegic.value.DoubleValue
3.874

@<SCITEGIC>MOL_PROPERTY
G
SciTegic.value.DoubleValue
41.790

@<SCITEGIC>MOL_PROPERTY
E
SciTegic.value.DoubleValue
13.895

@<SCITEGIC>MOL_PROPERTY
-TS
SciTegic.value.DoubleValue
27.895

@<SCITEGIC>MOL_PROPERTY
U+W
SciTegic.value.DoubleValue
-4.884

@<SCITEGIC>MOL_PROPERTY
U
SciTegic.value.DoubleValue
51.036

@<SCITEGIC>MOL_PROPERTY
W
SciTegic.value.DoubleValue
-55.920

@<SCITEGIC>MOL_PROPERTY
W(PB)
SciTegic.value.DoubleValue
-57.979

@<SCITEGIC>MOL_PROPERTY
W(SA)
SciTegic.value.DoubleValue
2.059

@<SCITEGIC>MOL_PROPERTY
Valence
SciTegic.value.DoubleValue
5.117

@<SCITEGIC>MOL_PROPERTY
Coulomb
SciTegic.value.DoubleValue
45.321

@<SCITEGIC>MOL_PROPERTY
VdW
SciTegic.value.DoubleValue
0.598

@<SCITEGIC>MOL_PROPERTY
VdW6
SciTegic.value.DoubleValue
-6.707

@<SCITEGIC>MOL_PROPERTY
VdW12
SciTegic.value.DoubleValue
7.304

@<SCITEGIC>MOL_PROPERTY
Bond
SciTegic.value.DoubleValue
0.233

@<SCITEGIC>MOL_PROPERTY
Angle
SciTegic.value.DoubleValue
1.410

@<SCITEGIC>MOL_PROPERTY
Pdih
SciTegic.value.DoubleValue
3.475

@<SCITEGIC>MOL_PROPERTY
Idih
SciTegic.value.DoubleValue
0.000

@<SCITEGIC>MOL_PROPERTY
Tether
SciTegic.value.DoubleValue
0.000

@<TRIPOS>MOLECULE
guest-2_vm2.mol2 : vm2 ligand conformer 69
          23          22           1
SMALL
USER_CHARGES
 
@<TRIPOS>ATOM
       1    N1      18.815234   18.009785   24.657411 N.4        1 MOL1        -0.5940
       2    H1      18.759691   17.007857   24.869298 H          1 MOL1         0.3649
       3    H2      18.209600   18.183178   23.849801 H          1 MOL1         0.3649
       4    H3      18.406407   18.506845   25.455186 H          1 MOL1         0.3649
       5    C1      20.241019   18.451866   24.391869 C.3        1 MOL1         0.0207
       6    H4      20.637580   17.861606   23.562919 H          1 MOL1         0.0950
       7    H5      20.831291   18.217458   25.281890 H          1 MOL1         0.0950
       8    C2      20.374194   19.953875   24.075475 C.3        1 MOL1        -0.1415
       9    H6      20.041246   20.526326   24.951414 H          1 MOL1         0.0976
      10    H7      21.438255   20.192563   23.946870 H          1 MOL1         0.0976
      11    C3      19.587447   20.440629   22.829066 C.3        1 MOL1        -0.1375
      12    H8      19.705076   21.531946   22.777370 H          1 MOL1         0.0976
      13    H9      18.510309   20.270649   22.958260 H          1 MOL1         0.0976
      14    C4      20.070660   19.849370   21.478566 C.3        1 MOL1        -0.1375
      15    H10     19.857018   20.584143   20.689866 H          1 MOL1         0.0976
      16    H11     21.162504   19.727421   21.489721 H          1 MOL1         0.0976
      17    C5      19.385827   18.517376   21.087423 C.3        1 MOL1        -0.1350
      18    H12     18.294850   18.648810   21.084054 H          1 MOL1         0.0976
      19    H13     19.608676   17.734535   21.820866 H          1 MOL1         0.0976
      20    C6      19.841619   18.034099   19.694189 C.3        1 MOL1        -0.2365
      21    H14     19.594811   18.771627   18.919361 H          1 MOL1         0.0987
      22    H15     19.346812   17.090451   19.430112 H          1 MOL1         0.0987
      23    H16     20.925908   17.863767   19.671055 H          1 MOL1         0.0987
@<TRIPOS>BOND
    1     1     2    1
    2     1     3    1
    3     1     4    1
    4     1     5    1
    5     5     6    1
    6     5     7    1
    7     5     8    1
    8     8     9    1
    9     8    10    1
   10     8    11    1
   11    11    12    1
   12    11    13    1
   13    11    14    1
   14    14    15    1
   15    14    16    1
   16    14    17    1
   17    17    18    1
   18    17    19    1
   19    17    20    1
   20    20    21    1
   21    20    22    1
   22    20    23    1
@<TRIPOS>SUBSTRUCTURE
       1 MOL1            1 RESIDUE      1      MOL     
@<SCITEGIC>MOL_PROPERTY
VM2 Rank
SciTegic.value.IntegerValue
69

@<SCITEGIC>MOL_PROPERTY
Conf_Id
SciTegic.value.IntegerValue
726

@<SCITEGIC>MOL_PROPERTY
Probability
SciTegic.value.DoubleValue
0.02

@<SCITEGIC>MOL_PROPERTY
Sum Probability
SciTegic.value.DoubleValue
99.91

@<SCITEGIC>MOL_PROPERTY
Delta G
SciTegic.value.DoubleValue
3.925

@<SCITEGIC>MOL_PROPERTY
G
SciTegic.value.DoubleValue
41.841

@<SCITEGIC>MOL_PROPERTY
E
SciTegic.value.DoubleValue
13.821

@<SCITEGIC>MOL_PROPERTY
-TS
SciTegic.value.DoubleValue
28.020

@<SCITEGIC>MOL_PROPERTY
U+W
SciTegic.value.DoubleValue
-4.958

@<SCITEGIC>MOL_PROPERTY
U
SciTegic.value.DoubleValue
51.112

@<SCITEGIC>MOL_PROPERTY
W
SciTegic.value.DoubleValue
-56.070

@<SCITEGIC>MOL_PROPERTY
W(PB)
SciTegic.value.DoubleValue
-58.128

@<SCITEGIC>MOL_PROPERTY
W(SA)
SciTegic.value.DoubleValue
2.058

@<SCITEGIC>MOL_PROPERTY
Valence
SciTegic.value.DoubleValue
4.455

@<SCITEGIC>MOL_PROPERTY
Coulomb
SciTegic.value.DoubleValue
46.320

@<SCITEGIC>MOL_PROPERTY
VdW
SciTegic.value.DoubleValue
0.337

@<SCITEGIC>MOL_PROPERTY
VdW6
SciTegic.value.DoubleValue
-7.022

@<SCITEGIC>MOL_PROPERTY
VdW12
SciTegic.value.DoubleValue
7.359

@<SCITEGIC>MOL_PROPERTY
Bond
SciTegic.value.DoubleValue
0.222

@<SCITEGIC>MOL_PROPERTY
Angle
SciTegic.value.DoubleValue
1.454

@<SCITEGIC>MOL_PROPERTY
Pdih
SciTegic.value.DoubleValue
2.779

@<SCITEGIC>MOL_PROPERTY
Idih
SciTegic.value.DoubleValue
0.000

@<SCITEGIC>MOL_PROPERTY
Tether
SciTegic.value.DoubleValue
0.000

@<TRIPOS>MOLECULE
guest-2_vm2.mol2 : vm2 ligand conformer 70
          23          22           1
SMALL
USER_CHARGES
 
@<TRIPOS>ATOM
       1    N1      20.055825   17.778541   25.251335 N.4        1 MOL1        -0.5940
       2    H1      19.457825   17.031108   25.619649 H          1 MOL1         0.3649
       3    H2      20.339725   18.353435   26.051128 H          1 MOL1         0.3649
       4    H3      20.902405   17.330893   24.886185 H          1 MOL1         0.3649
       5    C1      19.345690   18.596800   24.192184 C.3        1 MOL1         0.0207
       6    H4      18.443024   19.020143   24.640862 H          1 MOL1         0.0950
       7    H5      19.044638   17.919003   23.389254 H          1 MOL1         0.0950
       8    C2      20.217745   19.728899   23.617482 C.3        1 MOL1        -0.1415
       9    H6      20.532887   20.387544   24.437623 H          1 MOL1         0.0976
      10    H7      21.138926   19.317230   23.187636 H          1 MOL1         0.0976
      11    C3      19.473691   20.576285   22.558065 C.3        1 MOL1        -0.1375
      12    H8      20.144419   21.371175   22.203872 H          1 MOL1         0.0976
      13    H9      18.635090   21.090216   23.048060 H          1 MOL1         0.0976
      14    C4      18.923124   19.795013   21.334201 C.3        1 MOL1        -0.1375
      15    H10     18.174964   19.055350   21.649252 H          1 MOL1         0.0976
      16    H11     18.373633   20.514538   20.711454 H          1 MOL1         0.0976
      17    C5      20.002586   19.126511   20.443616 C.3        1 MOL1        -0.1350
      18    H12     20.929310   19.716836   20.458285 H          1 MOL1         0.0976
      19    H13     19.650862   19.143980   19.402482 H          1 MOL1         0.0976
      20    C6      20.297340   17.654952   20.817117 C.3        1 MOL1        -0.2365
      21    H14     19.382152   17.049723   20.784798 H          1 MOL1         0.0987
      22    H15     20.732235   17.561015   21.817370 H          1 MOL1         0.0987
      23    H16     21.010459   17.216409   20.107168 H          1 MOL1         0.0987
@<TRIPOS>BOND
    1     1     2    1
    2     1     3    1
    3     1     4    1
    4     1     5    1
    5     5     6    1
    6     5     7    1
    7     5     8    1
    8     8     9    1
    9     8    10    1
   10     8    11    1
   11    11    12    1
   12    11    13    1
   13    11    14    1
   14    14    15    1
   15    14    16    1
   16    14    17    1
   17    17    18    1
   18    17    19    1
   19    17    20    1
   20    20    21    1
   21    20    22    1
   22    20    23    1
@<TRIPOS>SUBSTRUCTURE
       1 MOL1            1 RESIDUE      1      MOL     
@<SCITEGIC>MOL_PROPERTY
VM2 Rank
SciTegic.value.IntegerValue
70

@<SCITEGIC>MOL_PROPERTY
Conf_Id
SciTegic.value.IntegerValue
1083

@<SCITEGIC>MOL_PROPERTY
Probability
SciTegic.value.DoubleValue
0.02

@<SCITEGIC>MOL_PROPERTY
Sum Probability
SciTegic.value.DoubleValue
99.92

@<SCITEGIC>MOL_PROPERTY
Delta G
SciTegic.value.DoubleValue
3.977

@<SCITEGIC>MOL_PROPERTY
G
SciTegic.value.DoubleValue
41.893

@<SCITEGIC>MOL_PROPERTY
E
SciTegic.value.DoubleValue
13.664

@<SCITEGIC>MOL_PROPERTY
-TS
SciTegic.value.DoubleValue
28.229

@<SCITEGIC>MOL_PROPERTY
U+W
SciTegic.value.DoubleValue
-5.115

@<SCITEGIC>MOL_PROPERTY
U
SciTegic.value.DoubleValue
51.053

@<SCITEGIC>MOL_PROPERTY
W
SciTegic.value.DoubleValue
-56.168

@<SCITEGIC>MOL_PROPERTY
W(PB)
SciTegic.value.DoubleValue
-58.205

@<SCITEGIC>MOL_PROPERTY
W(SA)
SciTegic.value.DoubleValue
2.037

@<SCITEGIC>MOL_PROPERTY
Valence
SciTegic.value.DoubleValue
5.021

@<SCITEGIC>MOL_PROPERTY
Coulomb
SciTegic.value.DoubleValue
45.787

@<SCITEGIC>MOL_PROPERTY
VdW
SciTegic.value.DoubleValue
0.245

@<SCITEGIC>MOL_PROPERTY
VdW6
SciTegic.value.DoubleValue
-7.353

@<SCITEGIC>MOL_PROPERTY
VdW12
SciTegic.value.DoubleValue
7.597

@<SCITEGIC>MOL_PROPERTY
Bond
SciTegic.value.DoubleValue
0.229

@<SCITEGIC>MOL_PROPERTY
Angle
SciTegic.value.DoubleValue
1.631

@<SCITEGIC>MOL_PROPERTY
Pdih
SciTegic.value.DoubleValue
3.162

@<SCITEGIC>MOL_PROPERTY
Idih
SciTegic.value.DoubleValue
0.000

@<SCITEGIC>MOL_PROPERTY
Tether
SciTegic.value.DoubleValue
0.000

@<TRIPOS>MOLECULE
guest-2_vm2.mol2 : vm2 ligand conformer 71
          23          22           1
SMALL
USER_CHARGES
 
@<TRIPOS>ATOM
       1    N1      19.125072   18.916243   25.464837 N.4        1 MOL1        -0.5940
       2    H1      19.754232   19.443660   26.078419 H          1 MOL1         0.3649
       3    H2      18.574438   18.292985   26.064942 H          1 MOL1         0.3649
       4    H3      18.472235   19.587940   25.049868 H          1 MOL1         0.3649
       5    C1      19.886929   18.147965   24.402939 C.3        1 MOL1         0.0207
       6    H4      19.163579   17.587958   23.805314 H          1 MOL1         0.0950
       7    H5      20.531724   17.427423   24.913394 H          1 MOL1         0.0950
       8    C2      20.747717   19.040852   23.485236 C.3        1 MOL1        -0.1415
       9    H6      21.504202   19.549462   24.097345 H          1 MOL1         0.0976
      10    H7      21.305773   18.396303   22.797750 H          1 MOL1         0.0976
      11    C3      19.942471   20.106475   22.692431 C.3        1 MOL1        -0.1375
      12    H8      20.636218   20.740427   22.123419 H          1 MOL1         0.0976
      13    H9      19.459493   20.781297   23.411558 H          1 MOL1         0.0976
      14    C4      18.854610   19.541921   21.737431 C.3        1 MOL1        -0.1375
      15    H10     18.403986   18.629679   22.147884 H          1 MOL1         0.0976
      16    H11     18.036406   20.273766   21.689414 H          1 MOL1         0.0976
      17    C5      19.328067   19.287693   20.283402 C.3        1 MOL1        -0.1350
      18    H12     19.677419   20.229557   19.837798 H          1 MOL1         0.0976
      19    H13     18.459847   18.973993   19.687064 H          1 MOL1         0.0976
      20    C6      20.431133   18.215852   20.147725 C.3        1 MOL1        -0.2365
      21    H14     21.386562   18.575604   20.547831 H          1 MOL1         0.0987
      22    H15     20.594545   17.966353   19.091350 H          1 MOL1         0.0987
      23    H16     20.154738   17.292166   20.672405 H          1 MOL1         0.0987
@<TRIPOS>BOND
    1     1     2    1
    2     1     3    1
    3     1     4    1
    4     1     5    1
    5     5     6    1
    6     5     7    1
    7     5     8    1
    8     8     9    1
    9     8    10    1
   10     8    11    1
   11    11    12    1
   12    11    13    1
   13    11    14    1
   14    14    15    1
   15    14    16    1
   16    14    17    1
   17    17    18    1
   18    17    19    1
   19    17    20    1
   20    20    21    1
   21    20    22    1
   22    20    23    1
@<TRIPOS>SUBSTRUCTURE
       1 MOL1            1 RESIDUE      1      MOL     
@<SCITEGIC>MOL_PROPERTY
VM2 Rank
SciTegic.value.IntegerValue
71

@<SCITEGIC>MOL_PROPERTY
Conf_Id
SciTegic.value.IntegerValue
929

@<SCITEGIC>MOL_PROPERTY
Probability
SciTegic.value.DoubleValue
0.01

@<SCITEGIC>MOL_PROPERTY
Sum Probability
SciTegic.value.DoubleValue
99.93

@<SCITEGIC>MOL_PROPERTY
Delta G
SciTegic.value.DoubleValue
4.131

@<SCITEGIC>MOL_PROPERTY
G
SciTegic.value.DoubleValue
42.047

@<SCITEGIC>MOL_PROPERTY
E
SciTegic.value.DoubleValue
14.152

@<SCITEGIC>MOL_PROPERTY
-TS
SciTegic.value.DoubleValue
27.895

@<SCITEGIC>MOL_PROPERTY
U+W
SciTegic.value.DoubleValue
-4.627

@<SCITEGIC>MOL_PROPERTY
U
SciTegic.value.DoubleValue
51.455

@<SCITEGIC>MOL_PROPERTY
W
SciTegic.value.DoubleValue
-56.082

@<SCITEGIC>MOL_PROPERTY
W(PB)
SciTegic.value.DoubleValue
-58.109

@<SCITEGIC>MOL_PROPERTY
W(SA)
SciTegic.value.DoubleValue
2.028

@<SCITEGIC>MOL_PROPERTY
Valence
SciTegic.value.DoubleValue
5.238

@<SCITEGIC>MOL_PROPERTY
Coulomb
SciTegic.value.DoubleValue
45.552

@<SCITEGIC>MOL_PROPERTY
VdW
SciTegic.value.DoubleValue
0.665

@<SCITEGIC>MOL_PROPERTY
VdW6
SciTegic.value.DoubleValue
-7.395

@<SCITEGIC>MOL_PROPERTY
VdW12
SciTegic.value.DoubleValue
8.060

@<SCITEGIC>MOL_PROPERTY
Bond
SciTegic.value.DoubleValue
0.274

@<SCITEGIC>MOL_PROPERTY
Angle
SciTegic.value.DoubleValue
1.686

@<SCITEGIC>MOL_PROPERTY
Pdih
SciTegic.value.DoubleValue
3.278

@<SCITEGIC>MOL_PROPERTY
Idih
SciTegic.value.DoubleValue
0.000

@<SCITEGIC>MOL_PROPERTY
Tether
SciTegic.value.DoubleValue
0.000

@<TRIPOS>MOLECULE
guest-2_vm2.mol2 : vm2 ligand conformer 72
          23          22           1
SMALL
USER_CHARGES
 
@<TRIPOS>ATOM
       1    N1      20.068334   19.308039   25.507796 N.4        1 MOL1        -0.5940
       2    H1      20.084133   20.257519   25.123334 H          1 MOL1         0.3649
       3    H2      20.849511   19.238015   26.168579 H          1 MOL1         0.3649
       4    H3      19.205619   19.215675   26.053402 H          1 MOL1         0.3649
       5    C1      20.158816   18.260903   24.415264 C.3        1 MOL1         0.0207
       6    H4      20.175865   17.279541   24.897080 H          1 MOL1         0.0950
       7    H5      21.109499   18.396395   23.893880 H          1 MOL1         0.0950
       8    C2      18.993596   18.312143   23.405304 C.3        1 MOL1        -0.1415
       9    H6      19.110708   17.484432   22.697713 H          1 MOL1         0.0976
      10    H7      18.054864   18.116472   23.940212 H          1 MOL1         0.0976
      11    C3      18.867079   19.659770   22.643461 C.3        1 MOL1        -0.1375
      12    H8      18.673349   20.454725   23.375794 H          1 MOL1         0.0976
      13    H9      17.975340   19.635073   22.002254 H          1 MOL1         0.0976
      14    C4      20.104783   20.061409   21.794368 C.3        1 MOL1        -0.1375
      15    H10     20.165615   21.158494   21.786312 H          1 MOL1         0.0976
      16    H11     21.034853   19.722882   22.267751 H          1 MOL1         0.0976
      17    C5      20.064772   19.593743   20.316975 C.3        1 MOL1        -0.1350
      18    H12     20.942873   20.005650   19.800158 H          1 MOL1         0.0976
      19    H13     19.187597   20.025939   19.815487 H          1 MOL1         0.0976
      20    C6      20.058620   18.060993   20.130832 C.3        1 MOL1        -0.2365
      21    H14     19.101851   17.626232   20.443765 H          1 MOL1         0.0987
      22    H15     20.865489   17.587452   20.704941 H          1 MOL1         0.0987
      23    H16     20.202332   17.803234   19.073577 H          1 MOL1         0.0987
@<TRIPOS>BOND
    1     1     2    1
    2     1     3    1
    3     1     4    1
    4     1     5    1
    5     5     6    1
    6     5     7    1
    7     5     8    1
    8     8     9    1
    9     8    10    1
   10     8    11    1
   11    11    12    1
   12    11    13    1
   13    11    14    1
   14    14    15    1
   15    14    16    1
   16    14    17    1
   17    17    18    1
   18    17    19    1
   19    17    20    1
   20    20    21    1
   21    20    22    1
   22    20    23    1
@<TRIPOS>SUBSTRUCTURE
       1 MOL1            1 RESIDUE      1      MOL     
@<SCITEGIC>MOL_PROPERTY
VM2 Rank
SciTegic.value.IntegerValue
72

@<SCITEGIC>MOL_PROPERTY
Conf_Id
SciTegic.value.IntegerValue
511

@<SCITEGIC>MOL_PROPERTY
Probability
SciTegic.value.DoubleValue
0.01

@<SCITEGIC>MOL_PROPERTY
Sum Probability
SciTegic.value.DoubleValue
99.94

@<SCITEGIC>MOL_PROPERTY
Delta G
SciTegic.value.DoubleValue
4.170

@<SCITEGIC>MOL_PROPERTY
G
SciTegic.value.DoubleValue
42.087

@<SCITEGIC>MOL_PROPERTY
E
SciTegic.value.DoubleValue
14.191

@<SCITEGIC>MOL_PROPERTY
-TS
SciTegic.value.DoubleValue
27.895

@<SCITEGIC>MOL_PROPERTY
U+W
SciTegic.value.DoubleValue
-4.588

@<SCITEGIC>MOL_PROPERTY
U
SciTegic.value.DoubleValue
51.455

@<SCITEGIC>MOL_PROPERTY
W
SciTegic.value.DoubleValue
-56.042

@<SCITEGIC>MOL_PROPERTY
W(PB)
SciTegic.value.DoubleValue
-58.082

@<SCITEGIC>MOL_PROPERTY
W(SA)
SciTegic.value.DoubleValue
2.040

@<SCITEGIC>MOL_PROPERTY
Valence
SciTegic.value.DoubleValue
5.238

@<SCITEGIC>MOL_PROPERTY
Coulomb
SciTegic.value.DoubleValue
45.552

@<SCITEGIC>MOL_PROPERTY
VdW
SciTegic.value.DoubleValue
0.665

@<SCITEGIC>MOL_PROPERTY
VdW6
SciTegic.value.DoubleValue
-7.395

@<SCITEGIC>MOL_PROPERTY
VdW12
SciTegic.value.DoubleValue
8.060

@<SCITEGIC>MOL_PROPERTY
Bond
SciTegic.value.DoubleValue
0.274

@<SCITEGIC>MOL_PROPERTY
Angle
SciTegic.value.DoubleValue
1.687

@<SCITEGIC>MOL_PROPERTY
Pdih
SciTegic.value.DoubleValue
3.277

@<SCITEGIC>MOL_PROPERTY
Idih
SciTegic.value.DoubleValue
0.000

@<SCITEGIC>MOL_PROPERTY
Tether
SciTegic.value.DoubleValue
0.000

@<TRIPOS>MOLECULE
guest-2_vm2.mol2 : vm2 ligand conformer 73
          23          22           1
SMALL
USER_CHARGES
 
@<TRIPOS>ATOM
       1    N1      20.375139   18.520117   25.207749 N.4        1 MOL1        -0.5940
       2    H1      20.865465   17.710983   25.603453 H          1 MOL1         0.3649
       3    H2      19.864723   18.966074   25.976545 H          1 MOL1         0.3649
       4    H3      21.090911   19.182806   24.894740 H          1 MOL1         0.3649
       5    C1      19.450106   18.120552   24.075198 C.3        1 MOL1         0.0207
       6    H4      18.734460   17.394239   24.469892 H          1 MOL1         0.0950
       7    H5      20.049637   17.624785   23.307447 H          1 MOL1         0.0950
       8    C2      18.686211   19.307130   23.453281 C.3        1 MOL1        -0.1415
       9    H6      17.979011   18.931422   22.703968 H          1 MOL1         0.0976
      10    H7      18.070503   19.780959   24.229192 H          1 MOL1         0.0976
      11    C3      19.603945   20.377856   22.810939 C.3        1 MOL1        -0.1375
      12    H8      20.180505   20.873110   23.603708 H          1 MOL1         0.0976
      13    H9      18.975063   21.164504   22.371871 H          1 MOL1         0.0976
      14    C4      20.593057   19.860671   21.731296 C.3        1 MOL1        -0.1375
      15    H10     21.222231   20.711566   21.435385 H          1 MOL1         0.0976
      16    H11     21.286015   19.123179   22.157544 H          1 MOL1         0.0976
      17    C5      19.927990   19.298269   20.448054 C.3        1 MOL1        -0.1350
      18    H12     20.590560   19.507497   19.596475 H          1 MOL1         0.0976
      19    H13     18.990560   19.831843   20.238274 H          1 MOL1         0.0976
      20    C6      19.679551   17.772405   20.487482 C.3        1 MOL1        -0.2365
      21    H14     18.951001   17.491486   21.254798 H          1 MOL1         0.0987
      22    H15     20.611289   17.226498   20.684349 H          1 MOL1         0.0987
      23    H16     19.288707   17.424568   19.522523 H          1 MOL1         0.0987
@<TRIPOS>BOND
    1     1     2    1
    2     1     3    1
    3     1     4    1
    4     1     5    1
    5     5     6    1
    6     5     7    1
    7     5     8    1
    8     8     9    1
    9     8    10    1
   10     8    11    1
   11    11    12    1
   12    11    13    1
   13    11    14    1
   14    14    15    1
   15    14    16    1
   16    14    17    1
   17    17    18    1
   18    17    19    1
   19    17    20    1
   20    20    21    1
   21    20    22    1
   22    20    23    1
@<TRIPOS>SUBSTRUCTURE
       1 MOL1            1 RESIDUE      1      MOL     
@<SCITEGIC>MOL_PROPERTY
VM2 Rank
SciTegic.value.IntegerValue
73

@<SCITEGIC>MOL_PROPERTY
Conf_Id
SciTegic.value.IntegerValue
366

@<SCITEGIC>MOL_PROPERTY
Probability
SciTegic.value.DoubleValue
0.01

@<SCITEGIC>MOL_PROPERTY
Sum Probability
SciTegic.value.DoubleValue
99.95

@<SCITEGIC>MOL_PROPERTY
Delta G
SciTegic.value.DoubleValue
4.280

@<SCITEGIC>MOL_PROPERTY
G
SciTegic.value.DoubleValue
42.197

@<SCITEGIC>MOL_PROPERTY
E
SciTegic.value.DoubleValue
13.815

@<SCITEGIC>MOL_PROPERTY
-TS
SciTegic.value.DoubleValue
28.381

@<SCITEGIC>MOL_PROPERTY
U+W
SciTegic.value.DoubleValue
-4.964

@<SCITEGIC>MOL_PROPERTY
U
SciTegic.value.DoubleValue
51.195

@<SCITEGIC>MOL_PROPERTY
W
SciTegic.value.DoubleValue
-56.159

@<SCITEGIC>MOL_PROPERTY
W(PB)
SciTegic.value.DoubleValue
-58.177

@<SCITEGIC>MOL_PROPERTY
W(SA)
SciTegic.value.DoubleValue
2.018

@<SCITEGIC>MOL_PROPERTY
Valence
SciTegic.value.DoubleValue
5.115

@<SCITEGIC>MOL_PROPERTY
Coulomb
SciTegic.value.DoubleValue
45.778

@<SCITEGIC>MOL_PROPERTY
VdW
SciTegic.value.DoubleValue
0.302

@<SCITEGIC>MOL_PROPERTY
VdW6
SciTegic.value.DoubleValue
-7.950

@<SCITEGIC>MOL_PROPERTY
VdW12
SciTegic.value.DoubleValue
8.252

@<SCITEGIC>MOL_PROPERTY
Bond
SciTegic.value.DoubleValue
0.252

@<SCITEGIC>MOL_PROPERTY
Angle
SciTegic.value.DoubleValue
1.729

@<SCITEGIC>MOL_PROPERTY
Pdih
SciTegic.value.DoubleValue
3.133

@<SCITEGIC>MOL_PROPERTY
Idih
SciTegic.value.DoubleValue
0.000

@<SCITEGIC>MOL_PROPERTY
Tether
SciTegic.value.DoubleValue
0.000

@<TRIPOS>MOLECULE
guest-2_vm2.mol2 : vm2 ligand conformer 74
          23          22           1
SMALL
USER_CHARGES
 
@<TRIPOS>ATOM
       1    N1      19.490680   18.152482   25.167735 N.4        1 MOL1        -0.5940
       2    H1      19.688394   17.221736   25.550253 H          1 MOL1         0.3649
       3    H2      18.543262   18.123608   24.779116 H          1 MOL1         0.3649
       4    H3      19.473984   18.803815   25.958899 H          1 MOL1         0.3649
       5    C1      20.510698   18.561492   24.123567 C.3        1 MOL1         0.0207
       6    H4      20.499904   17.811978   23.328094 H          1 MOL1         0.0950
       7    H5      21.496742   18.542626   24.595608 H          1 MOL1         0.0950
       8    C2      20.255577   19.959568   23.524752 C.3        1 MOL1        -0.1415
       9    H6      20.292449   20.704754   24.330348 H          1 MOL1         0.0976
      10    H7      21.076179   20.219027   22.845012 H          1 MOL1         0.0976
      11    C3      18.903152   20.086401   22.779001 C.3        1 MOL1        -0.1375
      12    H8      18.822003   21.100843   22.364985 H          1 MOL1         0.0976
      13    H9      18.086297   20.002175   23.508270 H          1 MOL1         0.0976
      14    C4      18.658455   19.056285   21.643031 C.3        1 MOL1        -0.1375
      15    H10     18.660776   18.031597   22.037722 H          1 MOL1         0.0976
      16    H11     17.637400   19.221038   21.271884 H          1 MOL1         0.0976
      17    C5      19.623108   19.171602   20.434117 C.3        1 MOL1        -0.1350
      18    H12     19.920118   20.218389   20.280797 H          1 MOL1         0.0976
      19    H13     19.075851   18.878022   19.527321 H          1 MOL1         0.0976
      20    C6      20.874331   18.269170   20.541797 C.3        1 MOL1        -0.2365
      21    H14     21.525182   18.561571   21.372078 H          1 MOL1         0.0987
      22    H15     21.469883   18.331548   19.621838 H          1 MOL1         0.0987
      23    H16     20.591049   17.218124   20.683082 H          1 MOL1         0.0987
@<TRIPOS>BOND
    1     1     2    1
    2     1     3    1
    3     1     4    1
    4     1     5    1
    5     5     6    1
    6     5     7    1
    7     5     8    1
    8     8     9    1
    9     8    10    1
   10     8    11    1
   11    11    12    1
   12    11    13    1
   13    11    14    1
   14    14    15    1
   15    14    16    1
   16    14    17    1
   17    17    18    1
   18    17    19    1
   19    17    20    1
   20    20    21    1
   21    20    22    1
   22    20    23    1
@<TRIPOS>SUBSTRUCTURE
       1 MOL1            1 RESIDUE      1      MOL     
@<SCITEGIC>MOL_PROPERTY
VM2 Rank
SciTegic.value.IntegerValue
74

@<SCITEGIC>MOL_PROPERTY
Conf_Id
SciTegic.value.IntegerValue
175

@<SCITEGIC>MOL_PROPERTY
Probability
SciTegic.value.DoubleValue
0.01

@<SCITEGIC>MOL_PROPERTY
Sum Probability
SciTegic.value.DoubleValue
99.96

@<SCITEGIC>MOL_PROPERTY
Delta G
SciTegic.value.DoubleValue
4.289

@<SCITEGIC>MOL_PROPERTY
G
SciTegic.value.DoubleValue
42.206

@<SCITEGIC>MOL_PROPERTY
E
SciTegic.value.DoubleValue
13.825

@<SCITEGIC>MOL_PROPERTY
-TS
SciTegic.value.DoubleValue
28.381

@<SCITEGIC>MOL_PROPERTY
U+W
SciTegic.value.DoubleValue
-4.955

@<SCITEGIC>MOL_PROPERTY
U
SciTegic.value.DoubleValue
51.195

@<SCITEGIC>MOL_PROPERTY
W
SciTegic.value.DoubleValue
-56.149

@<SCITEGIC>MOL_PROPERTY
W(PB)
SciTegic.value.DoubleValue
-58.166

@<SCITEGIC>MOL_PROPERTY
W(SA)
SciTegic.value.DoubleValue
2.017

@<SCITEGIC>MOL_PROPERTY
Valence
SciTegic.value.DoubleValue
5.115

@<SCITEGIC>MOL_PROPERTY
Coulomb
SciTegic.value.DoubleValue
45.778

@<SCITEGIC>MOL_PROPERTY
VdW
SciTegic.value.DoubleValue
0.302

@<SCITEGIC>MOL_PROPERTY
VdW6
SciTegic.value.DoubleValue
-7.949

@<SCITEGIC>MOL_PROPERTY
VdW12
SciTegic.value.DoubleValue
8.251

@<SCITEGIC>MOL_PROPERTY
Bond
SciTegic.value.DoubleValue
0.252

@<SCITEGIC>MOL_PROPERTY
Angle
SciTegic.value.DoubleValue
1.729

@<SCITEGIC>MOL_PROPERTY
Pdih
SciTegic.value.DoubleValue
3.134

@<SCITEGIC>MOL_PROPERTY
Idih
SciTegic.value.DoubleValue
0.000

@<SCITEGIC>MOL_PROPERTY
Tether
SciTegic.value.DoubleValue
0.000

@<TRIPOS>MOLECULE
guest-2_vm2.mol2 : vm2 ligand conformer 75
          23          22           1
SMALL
USER_CHARGES
 
@<TRIPOS>ATOM
       1    N1      20.134499   17.627622   24.254157 N.4        1 MOL1        -0.5940
       2    H1      20.589704   17.692994   23.339059 H          1 MOL1         0.3649
       3    H2      19.307811   17.032454   24.140551 H          1 MOL1         0.3649
       4    H3      20.776419   17.129836   24.880523 H          1 MOL1         0.3649
       5    C1      19.769344   18.996006   24.795529 C.3        1 MOL1         0.0207
       6    H4      20.691517   19.551720   24.985361 H          1 MOL1         0.0950
       7    H5      19.266728   18.836880   25.753412 H          1 MOL1         0.0950
       8    C2      18.846469   19.818286   23.871871 C.3        1 MOL1        -0.1415
       9    H6      18.046388   19.182966   23.471320 H          1 MOL1         0.0976
      10    H7      18.341799   20.570832   24.492159 H          1 MOL1         0.0976
      11    C3      19.584814   20.568289   22.730522 C.3        1 MOL1        -0.1375
      12    H8      20.299082   21.273740   23.177224 H          1 MOL1         0.0976
      13    H9      18.855176   21.186608   22.189605 H          1 MOL1         0.0976
      14    C4      20.340168   19.683093   21.706595 C.3        1 MOL1        -0.1375
      15    H10     20.824418   20.344147   20.974443 H          1 MOL1         0.0976
      16    H11     21.158299   19.146393   22.202289 H          1 MOL1         0.0976
      17    C5      19.425105   18.692661   20.947774 C.3        1 MOL1        -0.1350
      18    H12     18.623809   19.247661   20.440096 H          1 MOL1         0.0976
      19    H13     18.934573   18.004894   21.648017 H          1 MOL1         0.0976
      20    C6      20.215601   17.871043   19.907551 C.3        1 MOL1        -0.2365
      21    H14     21.006332   17.279699   20.387142 H          1 MOL1         0.0987
      22    H15     20.683983   18.525594   19.160925 H          1 MOL1         0.0987
      23    H16     19.551443   17.176961   19.376298 H          1 MOL1         0.0987
@<TRIPOS>BOND
    1     1     2    1
    2     1     3    1
    3     1     4    1
    4     1     5    1
    5     5     6    1
    6     5     7    1
    7     5     8    1
    8     8     9    1
    9     8    10    1
   10     8    11    1
   11    11    12    1
   12    11    13    1
   13    11    14    1
   14    14    15    1
   15    14    16    1
   16    14    17    1
   17    17    18    1
   18    17    19    1
   19    17    20    1
   20    20    21    1
   21    20    22    1
   22    20    23    1
@<TRIPOS>SUBSTRUCTURE
       1 MOL1            1 RESIDUE      1      MOL     
@<SCITEGIC>MOL_PROPERTY
VM2 Rank
SciTegic.value.IntegerValue
75

@<SCITEGIC>MOL_PROPERTY
Conf_Id
SciTegic.value.IntegerValue
190

@<SCITEGIC>MOL_PROPERTY
Probability
SciTegic.value.DoubleValue
0.01

@<SCITEGIC>MOL_PROPERTY
Sum Probability
SciTegic.value.DoubleValue
99.97

@<SCITEGIC>MOL_PROPERTY
Delta G
SciTegic.value.DoubleValue
4.457

@<SCITEGIC>MOL_PROPERTY
G
SciTegic.value.DoubleValue
42.373

@<SCITEGIC>MOL_PROPERTY
E
SciTegic.value.DoubleValue
14.097

@<SCITEGIC>MOL_PROPERTY
-TS
SciTegic.value.DoubleValue
28.276

@<SCITEGIC>MOL_PROPERTY
U+W
SciTegic.value.DoubleValue
-4.682

@<SCITEGIC>MOL_PROPERTY
U
SciTegic.value.DoubleValue
50.877

@<SCITEGIC>MOL_PROPERTY
W
SciTegic.value.DoubleValue
-55.558

@<SCITEGIC>MOL_PROPERTY
W(PB)
SciTegic.value.DoubleValue
-57.617

@<SCITEGIC>MOL_PROPERTY
W(SA)
SciTegic.value.DoubleValue
2.059

@<SCITEGIC>MOL_PROPERTY
Valence
SciTegic.value.DoubleValue
3.812

@<SCITEGIC>MOL_PROPERTY
Coulomb
SciTegic.value.DoubleValue
46.852

@<SCITEGIC>MOL_PROPERTY
VdW
SciTegic.value.DoubleValue
0.213

@<SCITEGIC>MOL_PROPERTY
VdW6
SciTegic.value.DoubleValue
-7.416

@<SCITEGIC>MOL_PROPERTY
VdW12
SciTegic.value.DoubleValue
7.629

@<SCITEGIC>MOL_PROPERTY
Bond
SciTegic.value.DoubleValue
0.215

@<SCITEGIC>MOL_PROPERTY
Angle
SciTegic.value.DoubleValue
1.471

@<SCITEGIC>MOL_PROPERTY
Pdih
SciTegic.value.DoubleValue
2.126

@<SCITEGIC>MOL_PROPERTY
Idih
SciTegic.value.DoubleValue
0.000

@<SCITEGIC>MOL_PROPERTY
Tether
SciTegic.value.DoubleValue
0.000

@<TRIPOS>MOLECULE
guest-2_vm2.mol2 : vm2 ligand conformer 76
          23          22           1
SMALL
USER_CHARGES
 
@<TRIPOS>ATOM
       1    N1      20.365609   17.723781   24.264804 N.4        1 MOL1        -0.5940
       2    H1      20.070748   17.477102   23.315545 H          1 MOL1         0.3649
       3    H2      20.218860   16.897947   24.855269 H          1 MOL1         0.3649
       4    H3      21.376088   17.892844   24.234886 H          1 MOL1         0.3649
       5    C1      19.611167   18.930249   24.788393 C.3        1 MOL1         0.0207
       6    H4      20.002382   19.142985   25.786982 H          1 MOL1         0.0950
       7    H5      18.555683   18.663303   24.888153 H          1 MOL1         0.0950
       8    C2      19.748443   20.193483   23.912967 C.3        1 MOL1        -0.1415
       9    H6      19.521808   21.061720   24.545878 H          1 MOL1         0.0976
      10    H7      20.790924   20.324619   23.596360 H          1 MOL1         0.0976
      11    C3      18.787668   20.236612   22.694201 C.3        1 MOL1        -0.1375
      12    H8      18.903967   21.206858   22.191827 H          1 MOL1         0.0976
      13    H9      17.752198   20.214139   23.061187 H          1 MOL1         0.0976
      14    C4      18.963615   19.110373   21.643870 C.3        1 MOL1        -0.1375
      15    H10     18.731009   18.136495   22.091699 H          1 MOL1         0.0976
      16    H11     18.212377   19.257418   20.855481 H          1 MOL1         0.0976
      17    C5      20.365960   19.084141   20.990533 C.3        1 MOL1        -0.1350
      18    H12     21.143003   18.923799   21.748479 H          1 MOL1         0.0976
      19    H13     20.574673   20.059379   20.528812 H          1 MOL1         0.0976
      20    C6      20.473538   17.978360   19.919232 C.3        1 MOL1        -0.2365
      21    H14     21.472277   17.976269   19.463599 H          1 MOL1         0.0987
      22    H15     19.739086   18.132388   19.117904 H          1 MOL1         0.0987
      23    H16     20.300266   16.985855   20.354962 H          1 MOL1         0.0987
@<TRIPOS>BOND
    1     1     2    1
    2     1     3    1
    3     1     4    1
    4     1     5    1
    5     5     6    1
    6     5     7    1
    7     5     8    1
    8     8     9    1
    9     8    10    1
   10     8    11    1
   11    11    12    1
   12    11    13    1
   13    11    14    1
   14    14    15    1
   15    14    16    1
   16    14    17    1
   17    17    18    1
   18    17    19    1
   19    17    20    1
   20    20    21    1
   21    20    22    1
   22    20    23    1
@<TRIPOS>SUBSTRUCTURE
       1 MOL1            1 RESIDUE      1      MOL     
@<SCITEGIC>MOL_PROPERTY
VM2 Rank
SciTegic.value.IntegerValue
76

@<SCITEGIC>MOL_PROPERTY
Conf_Id
SciTegic.value.IntegerValue
1101

@<SCITEGIC>MOL_PROPERTY
Probability
SciTegic.value.DoubleValue
0.01

@<SCITEGIC>MOL_PROPERTY
Sum Probability
SciTegic.value.DoubleValue
99.97

@<SCITEGIC>MOL_PROPERTY
Delta G
SciTegic.value.DoubleValue
4.547

@<SCITEGIC>MOL_PROPERTY
G
SciTegic.value.DoubleValue
42.463

@<SCITEGIC>MOL_PROPERTY
E
SciTegic.value.DoubleValue
14.187

@<SCITEGIC>MOL_PROPERTY
-TS
SciTegic.value.DoubleValue
28.276

@<SCITEGIC>MOL_PROPERTY
U+W
SciTegic.value.DoubleValue
-4.592

@<SCITEGIC>MOL_PROPERTY
U
SciTegic.value.DoubleValue
50.876

@<SCITEGIC>MOL_PROPERTY
W
SciTegic.value.DoubleValue
-55.468

@<SCITEGIC>MOL_PROPERTY
W(PB)
SciTegic.value.DoubleValue
-57.490

@<SCITEGIC>MOL_PROPERTY
W(SA)
SciTegic.value.DoubleValue
2.022

@<SCITEGIC>MOL_PROPERTY
Valence
SciTegic.value.DoubleValue
3.812

@<SCITEGIC>MOL_PROPERTY
Coulomb
SciTegic.value.DoubleValue
46.852

@<SCITEGIC>MOL_PROPERTY
VdW
SciTegic.value.DoubleValue
0.213

@<SCITEGIC>MOL_PROPERTY
VdW6
SciTegic.value.DoubleValue
-7.415

@<SCITEGIC>MOL_PROPERTY
VdW12
SciTegic.value.DoubleValue
7.628

@<SCITEGIC>MOL_PROPERTY
Bond
SciTegic.value.DoubleValue
0.215

@<SCITEGIC>MOL_PROPERTY
Angle
SciTegic.value.DoubleValue
1.471

@<SCITEGIC>MOL_PROPERTY
Pdih
SciTegic.value.DoubleValue
2.126

@<SCITEGIC>MOL_PROPERTY
Idih
SciTegic.value.DoubleValue
0.000

@<SCITEGIC>MOL_PROPERTY
Tether
SciTegic.value.DoubleValue
0.000

@<TRIPOS>MOLECULE
guest-2_vm2.mol2 : vm2 ligand conformer 77
          23          22           1
SMALL
USER_CHARGES
 
@<TRIPOS>ATOM
       1    N1      19.498940   17.699733   24.762658 N.4        1 MOL1        -0.5940
       2    H1      18.783402   16.995029   24.970634 H          1 MOL1         0.3649
       3    H2      19.978608   17.906265   25.644669 H          1 MOL1         0.3649
       4    H3      20.184485   17.259757   24.142072 H          1 MOL1         0.3649
       5    C1      18.897420   18.947451   24.145305 C.3        1 MOL1         0.0207
       6    H4      18.165577   19.343663   24.854470 H          1 MOL1         0.0950
       7    H5      18.364962   18.653582   23.238914 H          1 MOL1         0.0950
       8    C2      19.937261   20.040987   23.824813 C.3        1 MOL1        -0.1415
       9    H6      19.417259   20.971078   23.560011 H          1 MOL1         0.0976
      10    H7      20.496141   20.261490   24.744002 H          1 MOL1         0.0976
      11    C3      20.940152   19.666748   22.700560 C.3        1 MOL1        -0.1375
      12    H8      21.241739   18.614830   22.778673 H          1 MOL1         0.0976
      13    H9      21.860229   20.243333   22.868686 H          1 MOL1         0.0976
      14    C4      20.454132   19.989443   21.261464 C.3        1 MOL1        -0.1375
      15    H10     20.258496   21.068007   21.186699 H          1 MOL1         0.0976
      16    H11     21.278010   19.789135   20.562652 H          1 MOL1         0.0976
      17    C5      19.199240   19.223125   20.775043 C.3        1 MOL1        -0.1350
      18    H12     18.956855   19.565029   19.759130 H          1 MOL1         0.0976
      19    H13     18.329432   19.487166   21.389641 H          1 MOL1         0.0976
      20    C6      19.388855   17.689514   20.744157 C.3        1 MOL1        -0.2365
      21    H14     18.500365   17.200788   20.323958 H          1 MOL1         0.0987
      22    H15     19.547863   17.279610   21.747898 H          1 MOL1         0.0987
      23    H16     20.249514   17.412564   20.121667 H          1 MOL1         0.0987
@<TRIPOS>BOND
    1     1     2    1
    2     1     3    1
    3     1     4    1
    4     1     5    1
    5     5     6    1
    6     5     7    1
    7     5     8    1
    8     8     9    1
    9     8    10    1
   10     8    11    1
   11    11    12    1
   12    11    13    1
   13    11    14    1
   14    14    15    1
   15    14    16    1
   16    14    17    1
   17    17    18    1
   18    17    19    1
   19    17    20    1
   20    20    21    1
   21    20    22    1
   22    20    23    1
@<TRIPOS>SUBSTRUCTURE
       1 MOL1            1 RESIDUE      1      MOL     
@<SCITEGIC>MOL_PROPERTY
VM2 Rank
SciTegic.value.IntegerValue
77

@<SCITEGIC>MOL_PROPERTY
Conf_Id
SciTegic.value.IntegerValue
1104

@<SCITEGIC>MOL_PROPERTY
Probability
SciTegic.value.DoubleValue
0.01

@<SCITEGIC>MOL_PROPERTY
Sum Probability
SciTegic.value.DoubleValue
99.98

@<SCITEGIC>MOL_PROPERTY
Delta G
SciTegic.value.DoubleValue
4.550

@<SCITEGIC>MOL_PROPERTY
G
SciTegic.value.DoubleValue
42.466

@<SCITEGIC>MOL_PROPERTY
E
SciTegic.value.DoubleValue
13.890

@<SCITEGIC>MOL_PROPERTY
-TS
SciTegic.value.DoubleValue
28.576

@<SCITEGIC>MOL_PROPERTY
U+W
SciTegic.value.DoubleValue
-4.889

@<SCITEGIC>MOL_PROPERTY
U
SciTegic.value.DoubleValue
51.403

@<SCITEGIC>MOL_PROPERTY
W
SciTegic.value.DoubleValue
-56.291

@<SCITEGIC>MOL_PROPERTY
W(PB)
SciTegic.value.DoubleValue
-58.317

@<SCITEGIC>MOL_PROPERTY
W(SA)
SciTegic.value.DoubleValue
2.025

@<SCITEGIC>MOL_PROPERTY
Valence
SciTegic.value.DoubleValue
4.890

@<SCITEGIC>MOL_PROPERTY
Coulomb
SciTegic.value.DoubleValue
46.339

@<SCITEGIC>MOL_PROPERTY
VdW
SciTegic.value.DoubleValue
0.174

@<SCITEGIC>MOL_PROPERTY
VdW6
SciTegic.value.DoubleValue
-8.061

@<SCITEGIC>MOL_PROPERTY
VdW12
SciTegic.value.DoubleValue
8.235

@<SCITEGIC>MOL_PROPERTY
Bond
SciTegic.value.DoubleValue
0.255

@<SCITEGIC>MOL_PROPERTY
Angle
SciTegic.value.DoubleValue
1.788

@<SCITEGIC>MOL_PROPERTY
Pdih
SciTegic.value.DoubleValue
2.848

@<SCITEGIC>MOL_PROPERTY
Idih
SciTegic.value.DoubleValue
0.000

@<SCITEGIC>MOL_PROPERTY
Tether
SciTegic.value.DoubleValue
0.000

@<TRIPOS>MOLECULE
guest-2_vm2.mol2 : vm2 ligand conformer 78
          23          22           1
SMALL
USER_CHARGES
 
@<TRIPOS>ATOM
       1    N1      20.721319   18.208230   24.818302 N.4        1 MOL1        -0.5940
       2    H1      21.706407   18.210987   25.103696 H          1 MOL1         0.3649
       3    H2      20.599704   17.432499   24.160939 H          1 MOL1         0.3649
       4    H3      20.170060   17.985853   25.653372 H          1 MOL1         0.3649
       5    C1      20.307974   19.534257   24.209574 C.3        1 MOL1         0.0207
       6    H4      20.960061   19.733226   23.357159 H          1 MOL1         0.0950
       7    H5      20.486138   20.309021   24.960232 H          1 MOL1         0.0950
       8    C2      18.828695   19.579794   23.774304 C.3        1 MOL1        -0.1415
       9    H6      18.209007   19.309942   24.639777 H          1 MOL1         0.0976
      10    H7      18.555690   20.612653   23.520808 H          1 MOL1         0.0976
      11    C3      18.476914   18.642041   22.588280 C.3        1 MOL1        -0.1375
      12    H8      17.409813   18.391956   22.665820 H          1 MOL1         0.0976
      13    H9      19.003922   17.683896   22.676642 H          1 MOL1         0.0976
      14    C4      18.701236   19.260279   21.181579 C.3        1 MOL1        -0.1375
      15    H10     18.318920   18.558243   20.427779 H          1 MOL1         0.0976
      16    H11     18.080759   20.162121   21.087485 H          1 MOL1         0.0976
      17    C5      20.162382   19.623786   20.818923 C.3        1 MOL1        -0.1350
      18    H12     20.538318   20.406116   21.490226 H          1 MOL1         0.0976
      19    H13     20.169256   20.069284   19.814327 H          1 MOL1         0.0976
      20    C6      21.117480   18.408614   20.823039 C.3        1 MOL1        -0.2365
      21    H14     22.119737   18.706391   20.488909 H          1 MOL1         0.0987
      22    H15     20.757672   17.623875   20.145063 H          1 MOL1         0.0987
      23    H16     21.218278   17.974618   21.824182 H          1 MOL1         0.0987
@<TRIPOS>BOND
    1     1     2    1
    2     1     3    1
    3     1     4    1
    4     1     5    1
    5     5     6    1
    6     5     7    1
    7     5     8    1
    8     8     9    1
    9     8    10    1
   10     8    11    1
   11    11    12    1
   12    11    13    1
   13    11    14    1
   14    14    15    1
   15    14    16    1
   16    14    17    1
   17    17    18    1
   18    17    19    1
   19    17    20    1
   20    20    21    1
   21    20    22    1
   22    20    23    1
@<TRIPOS>SUBSTRUCTURE
       1 MOL1            1 RESIDUE      1      MOL     
@<SCITEGIC>MOL_PROPERTY
VM2 Rank
SciTegic.value.IntegerValue
78

@<SCITEGIC>MOL_PROPERTY
Conf_Id
SciTegic.value.IntegerValue
172

@<SCITEGIC>MOL_PROPERTY
Probability
SciTegic.value.DoubleValue
0.01

@<SCITEGIC>MOL_PROPERTY
Sum Probability
SciTegic.value.DoubleValue
99.99

@<SCITEGIC>MOL_PROPERTY
Delta G
SciTegic.value.DoubleValue
4.562

@<SCITEGIC>MOL_PROPERTY
G
SciTegic.value.DoubleValue
42.479

@<SCITEGIC>MOL_PROPERTY
E
SciTegic.value.DoubleValue
13.903

@<SCITEGIC>MOL_PROPERTY
-TS
SciTegic.value.DoubleValue
28.576

@<SCITEGIC>MOL_PROPERTY
U+W
SciTegic.value.DoubleValue
-4.877

@<SCITEGIC>MOL_PROPERTY
U
SciTegic.value.DoubleValue
51.403

@<SCITEGIC>MOL_PROPERTY
W
SciTegic.value.DoubleValue
-56.279

@<SCITEGIC>MOL_PROPERTY
W(PB)
SciTegic.value.DoubleValue
-58.290

@<SCITEGIC>MOL_PROPERTY
W(SA)
SciTegic.value.DoubleValue
2.011

@<SCITEGIC>MOL_PROPERTY
Valence
SciTegic.value.DoubleValue
4.890

@<SCITEGIC>MOL_PROPERTY
Coulomb
SciTegic.value.DoubleValue
46.339

@<SCITEGIC>MOL_PROPERTY
VdW
SciTegic.value.DoubleValue
0.174

@<SCITEGIC>MOL_PROPERTY
VdW6
SciTegic.value.DoubleValue
-8.062

@<SCITEGIC>MOL_PROPERTY
VdW12
SciTegic.value.DoubleValue
8.235

@<SCITEGIC>MOL_PROPERTY
Bond
SciTegic.value.DoubleValue
0.255

@<SCITEGIC>MOL_PROPERTY
Angle
SciTegic.value.DoubleValue
1.788

@<SCITEGIC>MOL_PROPERTY
Pdih
SciTegic.value.DoubleValue
2.848

@<SCITEGIC>MOL_PROPERTY
Idih
SciTegic.value.DoubleValue
0.000

@<SCITEGIC>MOL_PROPERTY
Tether
SciTegic.value.DoubleValue
0.000

@<TRIPOS>MOLECULE
guest-2_vm2.mol2 : vm2 ligand conformer 79
          23          22           1
SMALL
USER_CHARGES
 
@<TRIPOS>ATOM
       1    N1      19.363696   17.779628   24.591794 N.4        1 MOL1        -0.5940
       2    H1      18.717806   17.719496   23.799827 H          1 MOL1         0.3649
       3    H2      18.866678   17.428461   25.417471 H          1 MOL1         0.3649
       4    H3      20.133340   17.128410   24.407694 H          1 MOL1         0.3649
       5    C1      19.864648   19.195260   24.798096 C.3        1 MOL1         0.0207
       6    H4      20.551974   19.170044   25.648046 H          1 MOL1         0.0950
       7    H5      19.014683   19.827055   25.069441 H          1 MOL1         0.0950
       8    C2      20.593586   19.798764   23.579296 C.3        1 MOL1        -0.1415
       9    H6      21.208470   20.632575   23.943097 H          1 MOL1         0.0976
      10    H7      21.300808   19.072225   23.159632 H          1 MOL1         0.0976
      11    C3      19.650105   20.355904   22.479849 C.3        1 MOL1        -0.1375
      12    H8      20.255183   20.897210   21.740418 H          1 MOL1         0.0976
      13    H9      18.993859   21.113985   22.929140 H          1 MOL1         0.0976
      14    C4      18.768411   19.313168   21.742087 C.3        1 MOL1        -0.1375
      15    H10     18.031677   18.894619   22.438552 H          1 MOL1         0.0976
      16    H11     18.176170   19.839146   20.980546 H          1 MOL1         0.0976
      17    C5      19.544329   18.161394   21.052846 C.3        1 MOL1        -0.1350
      18    H12     18.819189   17.480199   20.585993 H          1 MOL1         0.0976
      19    H13     20.085893   17.562607   21.796050 H          1 MOL1         0.0976
      20    C6      20.531225   18.652882   19.970033 C.3        1 MOL1        -0.2365
      21    H14     20.018541   19.266271   19.217806 H          1 MOL1         0.0987
      22    H15     20.990121   17.800659   19.452369 H          1 MOL1         0.0987
      23    H16     21.341740   19.249890   20.406269 H          1 MOL1         0.0987
@<TRIPOS>BOND
    1     1     2    1
    2     1     3    1
    3     1     4    1
    4     1     5    1
    5     5     6    1
    6     5     7    1
    7     5     8    1
    8     8     9    1
    9     8    10    1
   10     8    11    1
   11    11    12    1
   12    11    13    1
   13    11    14    1
   14    14    15    1
   15    14    16    1
   16    14    17    1
   17    17    18    1
   18    17    19    1
   19    17    20    1
   20    20    21    1
   21    20    22    1
   22    20    23    1
@<TRIPOS>SUBSTRUCTURE
       1 MOL1            1 RESIDUE      1      MOL     
@<SCITEGIC>MOL_PROPERTY
VM2 Rank
SciTegic.value.IntegerValue
79

@<SCITEGIC>MOL_PROPERTY
Conf_Id
SciTegic.value.IntegerValue
684

@<SCITEGIC>MOL_PROPERTY
Probability
SciTegic.value.DoubleValue
0.00

@<SCITEGIC>MOL_PROPERTY
Sum Probability
SciTegic.value.DoubleValue
99.99

@<SCITEGIC>MOL_PROPERTY
Delta G
SciTegic.value.DoubleValue
4.664

@<SCITEGIC>MOL_PROPERTY
G
SciTegic.value.DoubleValue
42.580

@<SCITEGIC>MOL_PROPERTY
E
SciTegic.value.DoubleValue
14.117

@<SCITEGIC>MOL_PROPERTY
-TS
SciTegic.value.DoubleValue
28.464

@<SCITEGIC>MOL_PROPERTY
U+W
SciTegic.value.DoubleValue
-4.662

@<SCITEGIC>MOL_PROPERTY
U
SciTegic.value.DoubleValue
51.397

@<SCITEGIC>MOL_PROPERTY
W
SciTegic.value.DoubleValue
-56.058

@<SCITEGIC>MOL_PROPERTY
W(PB)
SciTegic.value.DoubleValue
-58.084

@<SCITEGIC>MOL_PROPERTY
W(SA)
SciTegic.value.DoubleValue
2.026

@<SCITEGIC>MOL_PROPERTY
Valence
SciTegic.value.DoubleValue
4.231

@<SCITEGIC>MOL_PROPERTY
Coulomb
SciTegic.value.DoubleValue
46.940

@<SCITEGIC>MOL_PROPERTY
VdW
SciTegic.value.DoubleValue
0.225

@<SCITEGIC>MOL_PROPERTY
VdW6
SciTegic.value.DoubleValue
-8.093

@<SCITEGIC>MOL_PROPERTY
VdW12
SciTegic.value.DoubleValue
8.319

@<SCITEGIC>MOL_PROPERTY
Bond
SciTegic.value.DoubleValue
0.258

@<SCITEGIC>MOL_PROPERTY
Angle
SciTegic.value.DoubleValue
1.779

@<SCITEGIC>MOL_PROPERTY
Pdih
SciTegic.value.DoubleValue
2.194

@<SCITEGIC>MOL_PROPERTY
Idih
SciTegic.value.DoubleValue
0.000

@<SCITEGIC>MOL_PROPERTY
Tether
SciTegic.value.DoubleValue
0.000

@<TRIPOS>MOLECULE
guest-2_vm2.mol2 : vm2 ligand conformer 80
          23          22           1
SMALL
USER_CHARGES
 
@<TRIPOS>ATOM
       1    N1      20.773024   18.366154   24.656156 N.4        1 MOL1        -0.5940
       2    H1      20.708403   17.367728   24.434119 H          1 MOL1         0.3649
       3    H2      21.306422   18.443889   25.528813 H          1 MOL1         0.3649
       4    H3      21.330316   18.806659   23.919011 H          1 MOL1         0.3649
       5    C1      19.402941   19.003155   24.777074 C.3        1 MOL1         0.0207
       6    H4      19.530911   20.041940   25.092958 H          1 MOL1         0.0950
       7    H5      18.872494   18.471212   25.571512 H          1 MOL1         0.0950
       8    C2      18.558629   18.951865   23.486516 C.3        1 MOL1        -0.1415
       9    H6      18.609481   17.952147   23.036940 H          1 MOL1         0.0976
      10    H7      17.508399   19.092699   23.774361 H          1 MOL1         0.0976
      11    C3      18.911454   20.048479   22.446181 C.3        1 MOL1        -0.1375
      12    H8      18.800295   21.033374   22.920345 H          1 MOL1         0.0976
      13    H9      18.160838   20.025660   21.644968 H          1 MOL1         0.0976
      14    C4      20.325850   19.961249   21.813050 C.3        1 MOL1        -0.1375
      15    H10     20.428046   20.776238   21.083190 H          1 MOL1         0.0976
      16    H11     21.085267   20.165255   22.577701 H          1 MOL1         0.0976
      17    C5      20.650419   18.621690   21.103174 C.3        1 MOL1        -0.1350
      18    H12     20.636841   17.791840   21.821056 H          1 MOL1         0.0976
      19    H13     21.677879   18.669863   20.716121 H          1 MOL1         0.0976
      20    C6      19.693683   18.304409   19.931848 C.3        1 MOL1        -0.2365
      21    H14     20.015330   17.395125   19.407834 H          1 MOL1         0.0987
      22    H15     19.677294   19.124430   19.202304 H          1 MOL1         0.0987
      23    H16     18.668319   18.137319   20.284498 H          1 MOL1         0.0987
@<TRIPOS>BOND
    1     1     2    1
    2     1     3    1
    3     1     4    1
    4     1     5    1
    5     5     6    1
    6     5     7    1
    7     5     8    1
    8     8     9    1
    9     8    10    1
   10     8    11    1
   11    11    12    1
   12    11    13    1
   13    11    14    1
   14    14    15    1
   15    14    16    1
   16    14    17    1
   17    17    18    1
   18    17    19    1
   19    17    20    1
   20    20    21    1
   21    20    22    1
   22    20    23    1
@<TRIPOS>SUBSTRUCTURE
       1 MOL1            1 RESIDUE      1      MOL     
@<SCITEGIC>MOL_PROPERTY
VM2 Rank
SciTegic.value.IntegerValue
80

@<SCITEGIC>MOL_PROPERTY
Conf_Id
SciTegic.value.IntegerValue
1084

@<SCITEGIC>MOL_PROPERTY
Probability
SciTegic.value.DoubleValue
0.00

@<SCITEGIC>MOL_PROPERTY
Sum Probability
SciTegic.value.DoubleValue
99.99

@<SCITEGIC>MOL_PROPERTY
Delta G
SciTegic.value.DoubleValue
4.718

@<SCITEGIC>MOL_PROPERTY
G
SciTegic.value.DoubleValue
42.634

@<SCITEGIC>MOL_PROPERTY
E
SciTegic.value.DoubleValue
14.171

@<SCITEGIC>MOL_PROPERTY
-TS
SciTegic.value.DoubleValue
28.463

@<SCITEGIC>MOL_PROPERTY
U+W
SciTegic.value.DoubleValue
-4.608

@<SCITEGIC>MOL_PROPERTY
U
SciTegic.value.DoubleValue
51.396

@<SCITEGIC>MOL_PROPERTY
W
SciTegic.value.DoubleValue
-56.004

@<SCITEGIC>MOL_PROPERTY
W(PB)
SciTegic.value.DoubleValue
-58.024

@<SCITEGIC>MOL_PROPERTY
W(SA)
SciTegic.value.DoubleValue
2.020

@<SCITEGIC>MOL_PROPERTY
Valence
SciTegic.value.DoubleValue
4.231

@<SCITEGIC>MOL_PROPERTY
Coulomb
SciTegic.value.DoubleValue
46.940

@<SCITEGIC>MOL_PROPERTY
VdW
SciTegic.value.DoubleValue
0.225

@<SCITEGIC>MOL_PROPERTY
VdW6
SciTegic.value.DoubleValue
-8.093

@<SCITEGIC>MOL_PROPERTY
VdW12
SciTegic.value.DoubleValue
8.318

@<SCITEGIC>MOL_PROPERTY
Bond
SciTegic.value.DoubleValue
0.258

@<SCITEGIC>MOL_PROPERTY
Angle
SciTegic.value.DoubleValue
1.779

@<SCITEGIC>MOL_PROPERTY
Pdih
SciTegic.value.DoubleValue
2.195

@<SCITEGIC>MOL_PROPERTY
Idih
SciTegic.value.DoubleValue
0.000

@<SCITEGIC>MOL_PROPERTY
Tether
SciTegic.value.DoubleValue
0.000

@<TRIPOS>MOLECULE
guest-2_vm2.mol2 : vm2 ligand conformer 81
          23          22           1
SMALL
USER_CHARGES
 
@<TRIPOS>ATOM
       1    N1      19.236458   17.640271   24.284969 N.4        1 MOL1        -0.5940
       2    H1      19.506617   17.353224   23.339451 H          1 MOL1         0.3649
       3    H2      18.372882   17.139627   24.520794 H          1 MOL1         0.3649
       4    H3      19.962181   17.304753   24.926493 H          1 MOL1         0.3649
       5    C1      19.058792   19.142873   24.375048 C.3        1 MOL1         0.0207
       6    H4      18.736364   19.378941   25.392791 H          1 MOL1         0.0950
       7    H5      18.256749   19.436264   23.694382 H          1 MOL1         0.0950
       8    C2      20.337148   19.939048   24.049778 C.3        1 MOL1        -0.1415
       9    H6      20.116612   21.010381   24.146199 H          1 MOL1         0.0976
      10    H7      21.090345   19.716987   24.817357 H          1 MOL1         0.0976
      11    C3      20.954823   19.667716   22.651518 C.3        1 MOL1        -0.1375
      12    H8      21.271865   18.621766   22.566141 H          1 MOL1         0.0976
      13    H9      21.884306   20.250805   22.593432 H          1 MOL1         0.0976
      14    C4      20.067650   20.085092   21.446045 C.3        1 MOL1        -0.1375
      15    H10     19.562029   21.032347   21.678557 H          1 MOL1         0.0976
      16    H11     20.726126   20.306337   20.594662 H          1 MOL1         0.0976
      17    C5      19.018351   19.044201   20.974592 C.3        1 MOL1        -0.1350
      18    H12     18.421840   19.499598   20.171703 H          1 MOL1         0.0976
      19    H13     18.305055   18.812440   21.772805 H          1 MOL1         0.0976
      20    C6      19.642777   17.737799   20.432051 C.3        1 MOL1        -0.2365
      21    H14     20.355787   17.949189   19.624558 H          1 MOL1         0.0987
      22    H15     18.863155   17.081337   20.024200 H          1 MOL1         0.0987
      23    H16     20.169049   17.177153   21.212841 H          1 MOL1         0.0987
@<TRIPOS>BOND
    1     1     2    1
    2     1     3    1
    3     1     4    1
    4     1     5    1
    5     5     6    1
    6     5     7    1
    7     5     8    1
    8     8     9    1
    9     8    10    1
   10     8    11    1
   11    11    12    1
   12    11    13    1
   13    11    14    1
   14    14    15    1
   15    14    16    1
   16    14    17    1
   17    17    18    1
   18    17    19    1
   19    17    20    1
   20    20    21    1
   21    20    22    1
   22    20    23    1
@<TRIPOS>SUBSTRUCTURE
       1 MOL1            1 RESIDUE      1      MOL     
@<SCITEGIC>MOL_PROPERTY
VM2 Rank
SciTegic.value.IntegerValue
81

@<SCITEGIC>MOL_PROPERTY
Conf_Id
SciTegic.value.IntegerValue
176

@<SCITEGIC>MOL_PROPERTY
Probability
SciTegic.value.DoubleValue
0.00

@<SCITEGIC>MOL_PROPERTY
Sum Probability
SciTegic.value.DoubleValue
100.00

@<SCITEGIC>MOL_PROPERTY
Delta G
SciTegic.value.DoubleValue
5.388

@<SCITEGIC>MOL_PROPERTY
G
SciTegic.value.DoubleValue
43.304

@<SCITEGIC>MOL_PROPERTY
E
SciTegic.value.DoubleValue
14.888

@<SCITEGIC>MOL_PROPERTY
-TS
SciTegic.value.DoubleValue
28.416

@<SCITEGIC>MOL_PROPERTY
U+W
SciTegic.value.DoubleValue
-3.891

@<SCITEGIC>MOL_PROPERTY
U
SciTegic.value.DoubleValue
51.834

@<SCITEGIC>MOL_PROPERTY
W
SciTegic.value.DoubleValue
-55.725

@<SCITEGIC>MOL_PROPERTY
W(PB)
SciTegic.value.DoubleValue
-57.738

@<SCITEGIC>MOL_PROPERTY
W(SA)
SciTegic.value.DoubleValue
2.013

@<SCITEGIC>MOL_PROPERTY
Valence
SciTegic.value.DoubleValue
5.094

@<SCITEGIC>MOL_PROPERTY
Coulomb
SciTegic.value.DoubleValue
46.450

@<SCITEGIC>MOL_PROPERTY
VdW
SciTegic.value.DoubleValue
0.290

@<SCITEGIC>MOL_PROPERTY
VdW6
SciTegic.value.DoubleValue
-8.010

@<SCITEGIC>MOL_PROPERTY
VdW12
SciTegic.value.DoubleValue
8.300

@<SCITEGIC>MOL_PROPERTY
Bond
SciTegic.value.DoubleValue
0.281

@<SCITEGIC>MOL_PROPERTY
Angle
SciTegic.value.DoubleValue
2.109

@<SCITEGIC>MOL_PROPERTY
Pdih
SciTegic.value.DoubleValue
2.704

@<SCITEGIC>MOL_PROPERTY
Idih
SciTegic.value.DoubleValue
0.000

@<SCITEGIC>MOL_PROPERTY
Tether
SciTegic.value.DoubleValue
0.000

@<TRIPOS>MOLECULE
guest-2_vm2.mol2 : vm2 ligand conformer 82
          23          22           1
SMALL
USER_CHARGES
 
@<TRIPOS>ATOM
       1    N1      20.984760   18.367757   24.364747 N.4        1 MOL1        -0.5940
       2    H1      21.927048   18.618597   24.682858 H          1 MOL1         0.3649
       3    H2      21.071767   18.004462   23.410895 H          1 MOL1         0.3649
       4    H3      20.663315   17.596504   24.958581 H          1 MOL1         0.3649
       5    C1      20.038382   19.550478   24.419768 C.3        1 MOL1         0.0207
       6    H4      20.446282   20.347348   23.794249 H          1 MOL1         0.0950
       7    H5      20.018530   19.912465   25.451302 H          1 MOL1         0.0950
       8    C2      18.602679   19.217256   23.970768 C.3        1 MOL1        -0.1415
       9    H6      18.171833   18.502383   24.684297 H          1 MOL1         0.0976
      10    H7      17.991277   20.125923   24.049479 H          1 MOL1         0.0976
      11    C3      18.469828   18.633782   22.538225 C.3        1 MOL1        -0.1375
      12    H8      17.409105   18.388827   22.389331 H          1 MOL1         0.0976
      13    H9      18.994562   17.674253   22.462246 H          1 MOL1         0.0976
      14    C4      18.890556   19.595424   21.392504 C.3        1 MOL1        -0.1375
      15    H10     18.337701   19.312957   20.485885 H          1 MOL1         0.0976
      16    H11     18.556832   20.614139   21.633032 H          1 MOL1         0.0976
      17    C5      20.400613   19.619203   21.037658 C.3        1 MOL1        -0.1350
      18    H12     21.003527   19.934640   21.895937 H          1 MOL1         0.0976
      19    H13     20.559231   20.388930   20.269413 H          1 MOL1         0.0976
      20    C6      20.929182   18.273100   20.490329 C.3        1 MOL1        -0.2365
      21    H14     20.896050   17.479542   21.245372 H          1 MOL1         0.0987
      22    H15     21.972854   18.375106   20.165618 H          1 MOL1         0.0987
      23    H16     20.341635   17.943820   19.623451 H          1 MOL1         0.0987
@<TRIPOS>BOND
    1     1     2    1
    2     1     3    1
    3     1     4    1
    4     1     5    1
    5     5     6    1
    6     5     7    1
    7     5     8    1
    8     8     9    1
    9     8    10    1
   10     8    11    1
   11    11    12    1
   12    11    13    1
   13    11    14    1
   14    14    15    1
   15    14    16    1
   16    14    17    1
   17    17    18    1
   18    17    19    1
   19    17    20    1
   20    20    21    1
   21    20    22    1
   22    20    23    1
@<TRIPOS>SUBSTRUCTURE
       1 MOL1            1 RESIDUE      1      MOL     
@<SCITEGIC>MOL_PROPERTY
VM2 Rank
SciTegic.value.IntegerValue
82

@<SCITEGIC>MOL_PROPERTY
Conf_Id
SciTegic.value.IntegerValue
683

@<SCITEGIC>MOL_PROPERTY
Probability
SciTegic.value.DoubleValue
0.00

@<SCITEGIC>MOL_PROPERTY
Sum Probability
SciTegic.value.DoubleValue
100.00

@<SCITEGIC>MOL_PROPERTY
Delta G
SciTegic.value.DoubleValue
5.429

@<SCITEGIC>MOL_PROPERTY
G
SciTegic.value.DoubleValue
43.345

@<SCITEGIC>MOL_PROPERTY
E
SciTegic.value.DoubleValue
14.929

@<SCITEGIC>MOL_PROPERTY
-TS
SciTegic.value.DoubleValue
28.416

@<SCITEGIC>MOL_PROPERTY
U+W
SciTegic.value.DoubleValue
-3.850

@<SCITEGIC>MOL_PROPERTY
U
SciTegic.value.DoubleValue
51.834

@<SCITEGIC>MOL_PROPERTY
W
SciTegic.value.DoubleValue
-55.683

@<SCITEGIC>MOL_PROPERTY
W(PB)
SciTegic.value.DoubleValue
-57.700

@<SCITEGIC>MOL_PROPERTY
W(SA)
SciTegic.value.DoubleValue
2.017

@<SCITEGIC>MOL_PROPERTY
Valence
SciTegic.value.DoubleValue
5.094

@<SCITEGIC>MOL_PROPERTY
Coulomb
SciTegic.value.DoubleValue
46.449

@<SCITEGIC>MOL_PROPERTY
VdW
SciTegic.value.DoubleValue
0.291

@<SCITEGIC>MOL_PROPERTY
VdW6
SciTegic.value.DoubleValue
-8.009

@<SCITEGIC>MOL_PROPERTY
VdW12
SciTegic.value.DoubleValue
8.300

@<SCITEGIC>MOL_PROPERTY
Bond
SciTegic.value.DoubleValue
0.281

@<SCITEGIC>MOL_PROPERTY
Angle
SciTegic.value.DoubleValue
2.108

@<SCITEGIC>MOL_PROPERTY
Pdih
SciTegic.value.DoubleValue
2.705

@<SCITEGIC>MOL_PROPERTY
Idih
SciTegic.value.DoubleValue
0.000

@<SCITEGIC>MOL_PROPERTY
Tether
SciTegic.value.DoubleValue
0.000

@<TRIPOS>MOLECULE
guest-2_vm2.mol2 : vm2 ligand conformer 83
          23          22           1
SMALL
USER_CHARGES
 
@<TRIPOS>ATOM
       1    N1      20.853605   18.509621   25.244678 N.4        1 MOL1        -0.5940
       2    H1      21.718293   18.944407   25.584081 H          1 MOL1         0.3649
       3    H2      21.097820   17.565234   24.930109 H          1 MOL1         0.3649
       4    H3      20.234671   18.406580   26.055285 H          1 MOL1         0.3649
       5    C1      20.208679   19.324874   24.142350 C.3        1 MOL1         0.0207
       6    H4      20.933376   19.424621   23.331893 H          1 MOL1         0.0950
       7    H5      20.001600   20.322494   24.538862 H          1 MOL1         0.0950
       8    C2      18.903530   18.698968   23.613560 C.3        1 MOL1        -0.1415
       9    H6      19.080983   17.674546   23.261050 H          1 MOL1         0.0976
      10    H7      18.200874   18.618722   24.453666 H          1 MOL1         0.0976
      11    C3      18.239307   19.539575   22.495130 C.3        1 MOL1        -0.1375
      12    H8      18.342943   20.610216   22.719913 H          1 MOL1         0.0976
      13    H9      17.159431   19.337530   22.517552 H          1 MOL1         0.0976
      14    C4      18.734646   19.249657   21.052202 C.3        1 MOL1        -0.1375
      15    H10     18.523967   18.204774   20.785596 H          1 MOL1         0.0976
      16    H11     18.121183   19.853915   20.369528 H          1 MOL1         0.0976
      17    C5      20.222538   19.581812   20.773652 C.3        1 MOL1        -0.1350
      18    H12     20.564141   20.394312   21.429035 H          1 MOL1         0.0976
      19    H13     20.308240   19.970478   19.749162 H          1 MOL1         0.0976
      20    C6      21.153694   18.352493   20.892426 C.3        1 MOL1        -0.2365
      21    H14     22.197075   18.640402   20.709857 H          1 MOL1         0.0987
      22    H15     20.885380   17.587816   20.151929 H          1 MOL1         0.0987
      23    H16     21.102693   17.888819   21.883399 H          1 MOL1         0.0987
@<TRIPOS>BOND
    1     1     2    1
    2     1     3    1
    3     1     4    1
    4     1     5    1
    5     5     6    1
    6     5     7    1
    7     5     8    1
    8     8     9    1
    9     8    10    1
   10     8    11    1
   11    11    12    1
   12    11    13    1
   13    11    14    1
   14    14    15    1
   15    14    16    1
   16    14    17    1
   17    17    18    1
   18    17    19    1
   19    17    20    1
   20    20    21    1
   21    20    22    1
   22    20    23    1
@<TRIPOS>SUBSTRUCTURE
       1 MOL1            1 RESIDUE      1      MOL     
@<SCITEGIC>MOL_PROPERTY
VM2 Rank
SciTegic.value.IntegerValue
83

@<SCITEGIC>MOL_PROPERTY
Conf_Id
SciTegic.value.IntegerValue
864

@<SCITEGIC>MOL_PROPERTY
Probability
SciTegic.value.DoubleValue
0.00

@<SCITEGIC>MOL_PROPERTY
Sum Probability
SciTegic.value.DoubleValue
100.00

@<SCITEGIC>MOL_PROPERTY
Delta G
SciTegic.value.DoubleValue
5.840

@<SCITEGIC>MOL_PROPERTY
G
SciTegic.value.DoubleValue
43.756

@<SCITEGIC>MOL_PROPERTY
E
SciTegic.value.DoubleValue
15.363

@<SCITEGIC>MOL_PROPERTY
-TS
SciTegic.value.DoubleValue
28.393

@<SCITEGIC>MOL_PROPERTY
U+W
SciTegic.value.DoubleValue
-3.416

@<SCITEGIC>MOL_PROPERTY
U
SciTegic.value.DoubleValue
52.784

@<SCITEGIC>MOL_PROPERTY
W
SciTegic.value.DoubleValue
-56.200

@<SCITEGIC>MOL_PROPERTY
W(PB)
SciTegic.value.DoubleValue
-58.238

@<SCITEGIC>MOL_PROPERTY
W(SA)
SciTegic.value.DoubleValue
2.038

@<SCITEGIC>MOL_PROPERTY
Valence
SciTegic.value.DoubleValue
6.630

@<SCITEGIC>MOL_PROPERTY
Coulomb
SciTegic.value.DoubleValue
45.868

@<SCITEGIC>MOL_PROPERTY
VdW
SciTegic.value.DoubleValue
0.285

@<SCITEGIC>MOL_PROPERTY
VdW6
SciTegic.value.DoubleValue
-7.559

@<SCITEGIC>MOL_PROPERTY
VdW12
SciTegic.value.DoubleValue
7.844

@<SCITEGIC>MOL_PROPERTY
Bond
SciTegic.value.DoubleValue
0.231

@<SCITEGIC>MOL_PROPERTY
Angle
SciTegic.value.DoubleValue
1.767

@<SCITEGIC>MOL_PROPERTY
Pdih
SciTegic.value.DoubleValue
4.633

@<SCITEGIC>MOL_PROPERTY
Idih
SciTegic.value.DoubleValue
0.000

@<SCITEGIC>MOL_PROPERTY
Tether
SciTegic.value.DoubleValue
0.000

@<TRIPOS>MOLECULE
guest-2_vm2.mol2 : vm2 ligand conformer 84
          23          22           1
SMALL
USER_CHARGES
 
@<TRIPOS>ATOM
       1    N1      19.159493   17.804906   25.167398 N.4        1 MOL1        -0.5940
       2    H1      18.218347   17.488616   25.424540 H          1 MOL1         0.3649
       3    H2      19.604143   18.144109   26.026473 H          1 MOL1         0.3649
       4    H3      19.680932   16.975851   24.865355 H          1 MOL1         0.3649
       5    C1      19.120584   18.872330   24.092784 C.3        1 MOL1         0.0207
       6    H4      18.529010   19.709993   24.471876 H          1 MOL1         0.0950
       7    H5      18.604021   18.455916   23.225756 H          1 MOL1         0.0950
       8    C2      20.520921   19.371721   23.687246 C.3        1 MOL1        -0.1415
       9    H6      21.005875   19.785418   24.581458 H          1 MOL1         0.0976
      10    H7      21.148888   18.534689   23.355239 H          1 MOL1         0.0976
      11    C3      20.478853   20.471119   22.597175 C.3        1 MOL1        -0.1375
      12    H8      21.378239   21.092314   22.709778 H          1 MOL1         0.0976
      13    H9      19.630736   21.145892   22.778607 H          1 MOL1         0.0976
      14    C4      20.448250   19.962465   21.130277 C.3        1 MOL1        -0.1375
      15    H10     20.504018   20.845116   20.478106 H          1 MOL1         0.0976
      16    H11     21.356555   19.383051   20.914626 H          1 MOL1         0.0976
      17    C5      19.190231   19.152407   20.726625 C.3        1 MOL1        -0.1350
      18    H12     18.934383   19.398945   19.686555 H          1 MOL1         0.0976
      19    H13     18.324380   19.462690   21.326959 H          1 MOL1         0.0976
      20    C6      19.397667   17.622052   20.812495 C.3        1 MOL1        -0.2365
      21    H14     20.184801   17.296368   20.120102 H          1 MOL1         0.0987
      22    H15     18.475557   17.092387   20.540402 H          1 MOL1         0.0987
      23    H16     19.684885   17.299102   21.818889 H          1 MOL1         0.0987
@<TRIPOS>BOND
    1     1     2    1
    2     1     3    1
    3     1     4    1
    4     1     5    1
    5     5     6    1
    6     5     7    1
    7     5     8    1
    8     8     9    1
    9     8    10    1
   10     8    11    1
   11    11    12    1
   12    11    13    1
   13    11    14    1
   14    14    15    1
   15    14    16    1
   16    14    17    1
   17    17    18    1
   18    17    19    1
   19    17    20    1
   20    20    21    1
   21    20    22    1
   22    20    23    1
@<TRIPOS>SUBSTRUCTURE
       1 MOL1            1 RESIDUE      1      MOL     
@<SCITEGIC>MOL_PROPERTY
VM2 Rank
SciTegic.value.IntegerValue
84

@<SCITEGIC>MOL_PROPERTY
Conf_Id
SciTegic.value.IntegerValue
1115

@<SCITEGIC>MOL_PROPERTY
Probability
SciTegic.value.DoubleValue
0.00

@<SCITEGIC>MOL_PROPERTY
Sum Probability
SciTegic.value.DoubleValue
100.00

@<SCITEGIC>MOL_PROPERTY
Delta G
SciTegic.value.DoubleValue
5.873

@<SCITEGIC>MOL_PROPERTY
G
SciTegic.value.DoubleValue
43.789

@<SCITEGIC>MOL_PROPERTY
E
SciTegic.value.DoubleValue
15.396

@<SCITEGIC>MOL_PROPERTY
-TS
SciTegic.value.DoubleValue
28.393

@<SCITEGIC>MOL_PROPERTY
U+W
SciTegic.value.DoubleValue
-3.383

@<SCITEGIC>MOL_PROPERTY
U
SciTegic.value.DoubleValue
52.784

@<SCITEGIC>MOL_PROPERTY
W
SciTegic.value.DoubleValue
-56.167

@<SCITEGIC>MOL_PROPERTY
W(PB)
SciTegic.value.DoubleValue
-58.215

@<SCITEGIC>MOL_PROPERTY
W(SA)
SciTegic.value.DoubleValue
2.048

@<SCITEGIC>MOL_PROPERTY
Valence
SciTegic.value.DoubleValue
6.630

@<SCITEGIC>MOL_PROPERTY
Coulomb
SciTegic.value.DoubleValue
45.869

@<SCITEGIC>MOL_PROPERTY
VdW
SciTegic.value.DoubleValue
0.285

@<SCITEGIC>MOL_PROPERTY
VdW6
SciTegic.value.DoubleValue
-7.559

@<SCITEGIC>MOL_PROPERTY
VdW12
SciTegic.value.DoubleValue
7.844

@<SCITEGIC>MOL_PROPERTY
Bond
SciTegic.value.DoubleValue
0.231

@<SCITEGIC>MOL_PROPERTY
Angle
SciTegic.value.DoubleValue
1.767

@<SCITEGIC>MOL_PROPERTY
Pdih
SciTegic.value.DoubleValue
4.632

@<SCITEGIC>MOL_PROPERTY
Idih
SciTegic.value.DoubleValue
0.000

@<SCITEGIC>MOL_PROPERTY
Tether
SciTegic.value.DoubleValue
0.000

@<TRIPOS>MOLECULE
guest-2_vm2.mol2 : vm2 ligand conformer 85
          23          22           1
SMALL
USER_CHARGES
 
@<TRIPOS>ATOM
       1    N1      20.465682   19.620905   25.104898 N.4        1 MOL1        -0.5940
       2    H1      21.410687   19.828602   25.444945 H          1 MOL1         0.3649
       3    H2      19.904054   19.364153   25.922963 H          1 MOL1         0.3649
       4    H3      20.080567   20.495423   24.736102 H          1 MOL1         0.3649
       5    C1      20.472115   18.522613   24.059434 C.3        1 MOL1         0.0207
       6    H4      20.927860   17.638833   24.514101 H          1 MOL1         0.0950
       7    H5      21.110807   18.845994   23.235310 H          1 MOL1         0.0950
       8    C2      19.068310   18.156135   23.533573 C.3        1 MOL1        -0.1415
       9    H6      19.133422   17.260034   22.902734 H          1 MOL1         0.0976
      10    H7      18.446423   17.872314   24.392955 H          1 MOL1         0.0976
      11    C3      18.357567   19.292883   22.752581 C.3        1 MOL1        -0.1375
      12    H8      18.525427   20.260553   23.242670 H          1 MOL1         0.0976
      13    H9      17.274934   19.117615   22.819997 H          1 MOL1         0.0976
      14    C4      18.713058   19.396532   21.244658 C.3        1 MOL1        -0.1375
      15    H10     18.427086   18.470482   20.727074 H          1 MOL1         0.0976
      16    H11     18.075665   20.180325   20.812346 H          1 MOL1         0.0976
      17    C5      20.187039   19.752962   20.925993 C.3        1 MOL1        -0.1350
      18    H12     20.630483   20.328303   21.749698 H          1 MOL1         0.0976
      19    H13     20.205382   20.421049   20.053473 H          1 MOL1         0.0976
      20    C6      21.052229   18.514970   20.592863 C.3        1 MOL1        -0.2365
      21    H14     22.092655   18.810614   20.405837 H          1 MOL1         0.0987
      22    H15     20.681669   18.012909   19.689697 H          1 MOL1         0.0987
      23    H16     21.052724   17.780229   21.405417 H          1 MOL1         0.0987
@<TRIPOS>BOND
    1     1     2    1
    2     1     3    1
    3     1     4    1
    4     1     5    1
    5     5     6    1
    6     5     7    1
    7     5     8    1
    8     8     9    1
    9     8    10    1
   10     8    11    1
   11    11    12    1
   12    11    13    1
   13    11    14    1
   14    14    15    1
   15    14    16    1
   16    14    17    1
   17    17    18    1
   18    17    19    1
   19    17    20    1
   20    20    21    1
   21    20    22    1
   22    20    23    1
@<TRIPOS>SUBSTRUCTURE
       1 MOL1            1 RESIDUE      1      MOL     
@<SCITEGIC>MOL_PROPERTY
VM2 Rank
SciTegic.value.IntegerValue
85

@<SCITEGIC>MOL_PROPERTY
Conf_Id
SciTegic.value.IntegerValue
920

@<SCITEGIC>MOL_PROPERTY
Probability
SciTegic.value.DoubleValue
0.00

@<SCITEGIC>MOL_PROPERTY
Sum Probability
SciTegic.value.DoubleValue
100.00

@<SCITEGIC>MOL_PROPERTY
Delta G
SciTegic.value.DoubleValue
6.253

@<SCITEGIC>MOL_PROPERTY
G
SciTegic.value.DoubleValue
44.169

@<SCITEGIC>MOL_PROPERTY
E
SciTegic.value.DoubleValue
15.698

@<SCITEGIC>MOL_PROPERTY
-TS
SciTegic.value.DoubleValue
28.471

@<SCITEGIC>MOL_PROPERTY
U+W
SciTegic.value.DoubleValue
-3.081

@<SCITEGIC>MOL_PROPERTY
U
SciTegic.value.DoubleValue
53.200

@<SCITEGIC>MOL_PROPERTY
W
SciTegic.value.DoubleValue
-56.281

@<SCITEGIC>MOL_PROPERTY
W(PB)
SciTegic.value.DoubleValue
-58.315

@<SCITEGIC>MOL_PROPERTY
W(SA)
SciTegic.value.DoubleValue
2.034

@<SCITEGIC>MOL_PROPERTY
Valence
SciTegic.value.DoubleValue
6.810

@<SCITEGIC>MOL_PROPERTY
Coulomb
SciTegic.value.DoubleValue
45.999

@<SCITEGIC>MOL_PROPERTY
VdW
SciTegic.value.DoubleValue
0.390

@<SCITEGIC>MOL_PROPERTY
VdW6
SciTegic.value.DoubleValue
-8.050

@<SCITEGIC>MOL_PROPERTY
VdW12
SciTegic.value.DoubleValue
8.440

@<SCITEGIC>MOL_PROPERTY
Bond
SciTegic.value.DoubleValue
0.260

@<SCITEGIC>MOL_PROPERTY
Angle
SciTegic.value.DoubleValue
1.891

@<SCITEGIC>MOL_PROPERTY
Pdih
SciTegic.value.DoubleValue
4.660

@<SCITEGIC>MOL_PROPERTY
Idih
SciTegic.value.DoubleValue
0.000

@<SCITEGIC>MOL_PROPERTY
Tether
SciTegic.value.DoubleValue
0.000

@<TRIPOS>MOLECULE
guest-2_vm2.mol2 : vm2 ligand conformer 86
          23          22           1
SMALL
USER_CHARGES
 
@<TRIPOS>ATOM
       1    N1      18.655779   18.868605   25.022298 N.4        1 MOL1        -0.5940
       2    H1      19.168300   19.058400   25.889408 H          1 MOL1         0.3649
       3    H2      17.818673   18.335562   25.280992 H          1 MOL1         0.3649
       4    H3      18.336120   19.770306   24.656432 H          1 MOL1         0.3649
       5    C1      19.509678   18.122517   24.015577 C.3        1 MOL1         0.0207
       6    H4      18.896302   17.925326   23.134347 H          1 MOL1         0.0950
       7    H5      19.779717   17.161577   24.461858 H          1 MOL1         0.0950
       8    C2      20.795711   18.874206   23.612356 C.3        1 MOL1        -0.1415
       9    H6      21.366575   19.086281   24.526126 H          1 MOL1         0.0976
      10    H7      21.433090   18.215965   23.007658 H          1 MOL1         0.0976
      11    C3      20.551064   20.204668   22.852538 C.3        1 MOL1        -0.1375
      12    H8      21.430199   20.844898   23.009335 H          1 MOL1         0.0976
      13    H9      19.710397   20.753123   23.296633 H          1 MOL1         0.0976
      14    C4      20.345045   20.074835   21.319031 C.3        1 MOL1        -0.1375
      15    H10     20.271686   21.093036   20.912364 H          1 MOL1         0.0976
      16    H11     21.241307   19.640140   20.855355 H          1 MOL1         0.0976
      17    C5      19.082286   19.293754   20.875683 C.3        1 MOL1        -0.1350
      18    H12     18.664337   19.780511   19.983297 H          1 MOL1         0.0976
      19    H13     18.299849   19.359543   21.643546 H          1 MOL1         0.0976
      20    C6      19.376437   17.818415   20.516516 C.3        1 MOL1        -0.2365
      21    H14     19.832999   17.273223   21.349826 H          1 MOL1         0.0987
      22    H15     20.061974   17.755349   19.661444 H          1 MOL1         0.0987
      23    H16     18.450993   17.296941   20.239953 H          1 MOL1         0.0987
@<TRIPOS>BOND
    1     1     2    1
    2     1     3    1
    3     1     4    1
    4     1     5    1
    5     5     6    1
    6     5     7    1
    7     5     8    1
    8     8     9    1
    9     8    10    1
   10     8    11    1
   11    11    12    1
   12    11    13    1
   13    11    14    1
   14    14    15    1
   15    14    16    1
   16    14    17    1
   17    17    18    1
   18    17    19    1
   19    17    20    1
   20    20    21    1
   21    20    22    1
   22    20    23    1
@<TRIPOS>SUBSTRUCTURE
       1 MOL1            1 RESIDUE      1      MOL     
@<SCITEGIC>MOL_PROPERTY
VM2 Rank
SciTegic.value.IntegerValue
86

@<SCITEGIC>MOL_PROPERTY
Conf_Id
SciTegic.value.IntegerValue
532

@<SCITEGIC>MOL_PROPERTY
Probability
SciTegic.value.DoubleValue
0.00

@<SCITEGIC>MOL_PROPERTY
Sum Probability
SciTegic.value.DoubleValue
100.00

@<SCITEGIC>MOL_PROPERTY
Delta G
SciTegic.value.DoubleValue
6.344

@<SCITEGIC>MOL_PROPERTY
G
SciTegic.value.DoubleValue
44.260

@<SCITEGIC>MOL_PROPERTY
E
SciTegic.value.DoubleValue
15.790

@<SCITEGIC>MOL_PROPERTY
-TS
SciTegic.value.DoubleValue
28.471

@<SCITEGIC>MOL_PROPERTY
U+W
SciTegic.value.DoubleValue
-2.989

@<SCITEGIC>MOL_PROPERTY
U
SciTegic.value.DoubleValue
53.200

@<SCITEGIC>MOL_PROPERTY
W
SciTegic.value.DoubleValue
-56.190

@<SCITEGIC>MOL_PROPERTY
W(PB)
SciTegic.value.DoubleValue
-58.232

@<SCITEGIC>MOL_PROPERTY
W(SA)
SciTegic.value.DoubleValue
2.042

@<SCITEGIC>MOL_PROPERTY
Valence
SciTegic.value.DoubleValue
6.810

@<SCITEGIC>MOL_PROPERTY
Coulomb
SciTegic.value.DoubleValue
46.000

@<SCITEGIC>MOL_PROPERTY
VdW
SciTegic.value.DoubleValue
0.390

@<SCITEGIC>MOL_PROPERTY
VdW6
SciTegic.value.DoubleValue
-8.050

@<SCITEGIC>MOL_PROPERTY
VdW12
SciTegic.value.DoubleValue
8.440

@<SCITEGIC>MOL_PROPERTY
Bond
SciTegic.value.DoubleValue
0.260

@<SCITEGIC>MOL_PROPERTY
Angle
SciTegic.value.DoubleValue
1.891

@<SCITEGIC>MOL_PROPERTY
Pdih
SciTegic.value.DoubleValue
4.660

@<SCITEGIC>MOL_PROPERTY
Idih
SciTegic.value.DoubleValue
0.000

@<SCITEGIC>MOL_PROPERTY
Tether
SciTegic.value.DoubleValue
0.000

@<TRIPOS>MOLECULE
guest-2_vm2.mol2 : vm2 ligand conformer 87
          23          22           1
SMALL
USER_CHARGES
 
@<TRIPOS>ATOM
       1    N1      19.269734   17.593452   24.068651 N.4        1 MOL1        -0.5940
       2    H1      18.434355   17.031602   24.265553 H          1 MOL1         0.3649
       3    H2      20.052709   17.145030   24.555359 H          1 MOL1         0.3649
       4    H3      19.455520   17.525731   23.062883 H          1 MOL1         0.3649
       5    C1      19.092737   19.036080   24.501270 C.3        1 MOL1         0.0207
       6    H4      18.901229   19.025410   25.577709 H          1 MOL1         0.0950
       7    H5      18.209443   19.445197   24.003732 H          1 MOL1         0.0950
       8    C2      20.316258   19.930884   24.216597 C.3        1 MOL1        -0.1415
       9    H6      20.262274   20.794783   24.892322 H          1 MOL1         0.0976
      10    H7      21.237121   19.397441   24.487376 H          1 MOL1         0.0976
      11    C3      20.418470   20.470873   22.764678 C.3        1 MOL1        -0.1375
      12    H8      21.296026   21.130783   22.720868 H          1 MOL1         0.0976
      13    H9      19.556109   21.114611   22.542407 H          1 MOL1         0.0976
      14    C4      20.575660   19.389920   21.664637 C.3        1 MOL1        -0.1375
      15    H10     21.243673   19.780762   20.884419 H          1 MOL1         0.0976
      16    H11     21.083260   18.505483   22.071872 H          1 MOL1         0.0976
      17    C5      19.235065   19.004667   20.992714 C.3        1 MOL1        -0.1350
      18    H12     18.837620   19.875339   20.452247 H          1 MOL1         0.0976
      19    H13     18.478144   18.743211   21.741709 H          1 MOL1         0.0976
      20    C6      19.408077   17.831123   20.005452 C.3        1 MOL1        -0.2365
      21    H14     20.122663   18.086337   19.211978 H          1 MOL1         0.0987
      22    H15     18.451338   17.582106   19.528147 H          1 MOL1         0.0987
      23    H16     19.773628   16.931048   20.516338 H          1 MOL1         0.0987
@<TRIPOS>BOND
    1     1     2    1
    2     1     3    1
    3     1     4    1
    4     1     5    1
    5     5     6    1
    6     5     7    1
    7     5     8    1
    8     8     9    1
    9     8    10    1
   10     8    11    1
   11    11    12    1
   12    11    13    1
   13    11    14    1
   14    14    15    1
   15    14    16    1
   16    14    17    1
   17    17    18    1
   18    17    19    1
   19    17    20    1
   20    20    21    1
   21    20    22    1
   22    20    23    1
@<TRIPOS>SUBSTRUCTURE
       1 MOL1            1 RESIDUE      1      MOL     
@<SCITEGIC>MOL_PROPERTY
VM2 Rank
SciTegic.value.IntegerValue
87

@<SCITEGIC>MOL_PROPERTY
Conf_Id
SciTegic.value.IntegerValue
180

@<SCITEGIC>MOL_PROPERTY
Probability
SciTegic.value.DoubleValue
0.00

@<SCITEGIC>MOL_PROPERTY
Sum Probability
SciTegic.value.DoubleValue
100.00

@<SCITEGIC>MOL_PROPERTY
Delta G
SciTegic.value.DoubleValue
6.772

@<SCITEGIC>MOL_PROPERTY
G
SciTegic.value.DoubleValue
44.688

@<SCITEGIC>MOL_PROPERTY
E
SciTegic.value.DoubleValue
16.390

@<SCITEGIC>MOL_PROPERTY
-TS
SciTegic.value.DoubleValue
28.298

@<SCITEGIC>MOL_PROPERTY
U+W
SciTegic.value.DoubleValue
-2.389

@<SCITEGIC>MOL_PROPERTY
U
SciTegic.value.DoubleValue
52.836

@<SCITEGIC>MOL_PROPERTY
W
SciTegic.value.DoubleValue
-55.224

@<SCITEGIC>MOL_PROPERTY
W(PB)
SciTegic.value.DoubleValue
-57.261

@<SCITEGIC>MOL_PROPERTY
W(SA)
SciTegic.value.DoubleValue
2.037

@<SCITEGIC>MOL_PROPERTY
Valence
SciTegic.value.DoubleValue
5.785

@<SCITEGIC>MOL_PROPERTY
Coulomb
SciTegic.value.DoubleValue
46.744

@<SCITEGIC>MOL_PROPERTY
VdW
SciTegic.value.DoubleValue
0.307

@<SCITEGIC>MOL_PROPERTY
VdW6
SciTegic.value.DoubleValue
-7.671

@<SCITEGIC>MOL_PROPERTY
VdW12
SciTegic.value.DoubleValue
7.978

@<SCITEGIC>MOL_PROPERTY
Bond
SciTegic.value.DoubleValue
0.217

@<SCITEGIC>MOL_PROPERTY
Angle
SciTegic.value.DoubleValue
1.470

@<SCITEGIC>MOL_PROPERTY
Pdih
SciTegic.value.DoubleValue
4.098

@<SCITEGIC>MOL_PROPERTY
Idih
SciTegic.value.DoubleValue
0.000

@<SCITEGIC>MOL_PROPERTY
Tether
SciTegic.value.DoubleValue
0.000

@<TRIPOS>MOLECULE
guest-2_vm2.mol2 : vm2 ligand conformer 88
          23          22           1
SMALL
USER_CHARGES
 
@<TRIPOS>ATOM
       1    N1      21.011258   18.317946   24.147950 N.4        1 MOL1        -0.5940
       2    H1      21.980140   18.506668   24.427154 H          1 MOL1         0.3649
       3    H2      21.006861   18.171260   23.133487 H          1 MOL1         0.3649
       4    H3      20.741408   17.431455   24.586506 H          1 MOL1         0.3649
       5    C1      20.080498   19.446933   24.546368 C.3        1 MOL1         0.0207
       6    H4      20.449430   20.377067   24.106061 H          1 MOL1         0.0950
       7    H5      20.138946   19.540090   25.634218 H          1 MOL1         0.0950
       8    C2      18.610241   19.221137   24.138842 C.3        1 MOL1        -0.1415
       9    H6      18.320531   18.184073   24.354336 H          1 MOL1         0.0976
      10    H7      17.984045   19.846940   24.788525 H          1 MOL1         0.0976
      11    C3      18.268860   19.576709   22.666723 C.3        1 MOL1        -0.1375
      12    H8      18.435763   20.648570   22.491432 H          1 MOL1         0.0976
      13    H9      17.189039   19.422472   22.533676 H          1 MOL1         0.0976
      14    C4      19.009095   18.738323   21.593213 C.3        1 MOL1        -0.1375
      15    H10     19.247310   17.741819   21.988128 H          1 MOL1         0.0976
      16    H11     18.323974   18.566364   20.751322 H          1 MOL1         0.0976
      17    C5      20.275039   19.437282   21.040096 C.3        1 MOL1        -0.1350
      18    H12     20.933366   19.764549   21.853596 H          1 MOL1         0.0976
      19    H13     19.979569   20.350354   20.504248 H          1 MOL1         0.0976
      20    C6      21.061009   18.518671   20.080810 C.3        1 MOL1        -0.2365
      21    H14     21.401997   17.608399   20.590615 H          1 MOL1         0.0987
      22    H15     21.945934   19.035714   19.687422 H          1 MOL1         0.0987
      23    H16     20.440259   18.218386   19.226487 H          1 MOL1         0.0987
@<TRIPOS>BOND
    1     1     2    1
    2     1     3    1
    3     1     4    1
    4     1     5    1
    5     5     6    1
    6     5     7    1
    7     5     8    1
    8     8     9    1
    9     8    10    1
   10     8    11    1
   11    11    12    1
   12    11    13    1
   13    11    14    1
   14    14    15    1
   15    14    16    1
   16    14    17    1
   17    17    18    1
   18    17    19    1
   19    17    20    1
   20    20    21    1
   21    20    22    1
   22    20    23    1
@<TRIPOS>SUBSTRUCTURE
       1 MOL1            1 RESIDUE      1      MOL     
@<SCITEGIC>MOL_PROPERTY
VM2 Rank
SciTegic.value.IntegerValue
88

@<SCITEGIC>MOL_PROPERTY
Conf_Id
SciTegic.value.IntegerValue
588

@<SCITEGIC>MOL_PROPERTY
Probability
SciTegic.value.DoubleValue
0.00

@<SCITEGIC>MOL_PROPERTY
Sum Probability
SciTegic.value.DoubleValue
100.00

@<SCITEGIC>MOL_PROPERTY
Delta G
SciTegic.value.DoubleValue
6.865

@<SCITEGIC>MOL_PROPERTY
G
SciTegic.value.DoubleValue
44.781

@<SCITEGIC>MOL_PROPERTY
E
SciTegic.value.DoubleValue
16.484

@<SCITEGIC>MOL_PROPERTY
-TS
SciTegic.value.DoubleValue
28.298

@<SCITEGIC>MOL_PROPERTY
U+W
SciTegic.value.DoubleValue
-2.295

@<SCITEGIC>MOL_PROPERTY
U
SciTegic.value.DoubleValue
52.836

@<SCITEGIC>MOL_PROPERTY
W
SciTegic.value.DoubleValue
-55.131

@<SCITEGIC>MOL_PROPERTY
W(PB)
SciTegic.value.DoubleValue
-57.202

@<SCITEGIC>MOL_PROPERTY
W(SA)
SciTegic.value.DoubleValue
2.071

@<SCITEGIC>MOL_PROPERTY
Valence
SciTegic.value.DoubleValue
5.785

@<SCITEGIC>MOL_PROPERTY
Coulomb
SciTegic.value.DoubleValue
46.744

@<SCITEGIC>MOL_PROPERTY
VdW
SciTegic.value.DoubleValue
0.307

@<SCITEGIC>MOL_PROPERTY
VdW6
SciTegic.value.DoubleValue
-7.671

@<SCITEGIC>MOL_PROPERTY
VdW12
SciTegic.value.DoubleValue
7.978

@<SCITEGIC>MOL_PROPERTY
Bond
SciTegic.value.DoubleValue
0.217

@<SCITEGIC>MOL_PROPERTY
Angle
SciTegic.value.DoubleValue
1.470

@<SCITEGIC>MOL_PROPERTY
Pdih
SciTegic.value.DoubleValue
4.098

@<SCITEGIC>MOL_PROPERTY
Idih
SciTegic.value.DoubleValue
0.000

@<SCITEGIC>MOL_PROPERTY
Tether
SciTegic.value.DoubleValue
0.000

@<TRIPOS>MOLECULE
guest-2_vm2.mol2 : vm2 ligand conformer 89
          23          22           1
SMALL
USER_CHARGES
 
@<TRIPOS>ATOM
       1    N1      19.022929   17.855706   24.479442 N.4        1 MOL1        -0.5940
       2    H1      19.690837   17.474090   25.157101 H          1 MOL1         0.3649
       3    H2      19.254897   17.456206   23.565196 H          1 MOL1         0.3649
       4    H3      18.096433   17.502776   24.742585 H          1 MOL1         0.3649
       5    C1      19.060179   19.371210   24.448139 C.3        1 MOL1         0.0207
       6    H4      18.809328   19.717305   25.454517 H          1 MOL1         0.0950
       7    H5      18.285375   19.727137   23.763890 H          1 MOL1         0.0950
       8    C2      20.427783   19.955890   24.041046 C.3        1 MOL1        -0.1415
       9    H6      20.488350   20.974958   24.445599 H          1 MOL1         0.0976
      10    H7      21.234359   19.392713   24.529019 H          1 MOL1         0.0976
      11    C3      20.679751   20.038519   22.511811 C.3        1 MOL1        -0.1375
      12    H8      21.652729   20.527743   22.365914 H          1 MOL1         0.0976
      13    H9      19.943869   20.711097   22.053186 H          1 MOL1         0.0976
      14    C4      20.714348   18.675370   21.769858 C.3        1 MOL1        -0.1375
      15    H10     21.479349   18.721106   20.982301 H          1 MOL1         0.0976
      16    H11     21.056384   17.889202   22.455861 H          1 MOL1         0.0976
      17    C5      19.369845   18.266476   21.113799 C.3        1 MOL1        -0.1350
      18    H12     18.542059   18.357063   21.827504 H          1 MOL1         0.0976
      19    H13     19.422282   17.205711   20.830991 H          1 MOL1         0.0976
      20    C6      19.041165   19.093830   19.849905 C.3        1 MOL1        -0.2365
      21    H14     18.112438   18.735763   19.387081 H          1 MOL1         0.0987
      22    H15     19.840980   19.008057   19.102939 H          1 MOL1         0.0987
      23    H16     18.905563   20.156753   20.083737 H          1 MOL1         0.0987
@<TRIPOS>BOND
    1     1     2    1
    2     1     3    1
    3     1     4    1
    4     1     5    1
    5     5     6    1
    6     5     7    1
    7     5     8    1
    8     8     9    1
    9     8    10    1
   10     8    11    1
   11    11    12    1
   12    11    13    1
   13    11    14    1
   14    14    15    1
   15    14    16    1
   16    14    17    1
   17    17    18    1
   18    17    19    1
   19    17    20    1
   20    20    21    1
   21    20    22    1
   22    20    23    1
@<TRIPOS>SUBSTRUCTURE
       1 MOL1            1 RESIDUE      1      MOL     
@<SCITEGIC>MOL_PROPERTY
VM2 Rank
SciTegic.value.IntegerValue
89

@<SCITEGIC>MOL_PROPERTY
Conf_Id
SciTegic.value.IntegerValue
487

@<SCITEGIC>MOL_PROPERTY
Probability
SciTegic.value.DoubleValue
0.00

@<SCITEGIC>MOL_PROPERTY
Sum Probability
SciTegic.value.DoubleValue
100.00

@<SCITEGIC>MOL_PROPERTY
Delta G
SciTegic.value.DoubleValue
6.934

@<SCITEGIC>MOL_PROPERTY
G
SciTegic.value.DoubleValue
44.850

@<SCITEGIC>MOL_PROPERTY
E
SciTegic.value.DoubleValue
16.564

@<SCITEGIC>MOL_PROPERTY
-TS
SciTegic.value.DoubleValue
28.286

@<SCITEGIC>MOL_PROPERTY
U+W
SciTegic.value.DoubleValue
-2.215

@<SCITEGIC>MOL_PROPERTY
U
SciTegic.value.DoubleValue
53.835

@<SCITEGIC>MOL_PROPERTY
W
SciTegic.value.DoubleValue
-56.051

@<SCITEGIC>MOL_PROPERTY
W(PB)
SciTegic.value.DoubleValue
-58.080

@<SCITEGIC>MOL_PROPERTY
W(SA)
SciTegic.value.DoubleValue
2.029

@<SCITEGIC>MOL_PROPERTY
Valence
SciTegic.value.DoubleValue
6.519

@<SCITEGIC>MOL_PROPERTY
Coulomb
SciTegic.value.DoubleValue
46.847

@<SCITEGIC>MOL_PROPERTY
VdW
SciTegic.value.DoubleValue
0.469

@<SCITEGIC>MOL_PROPERTY
VdW6
SciTegic.value.DoubleValue
-7.907

@<SCITEGIC>MOL_PROPERTY
VdW12
SciTegic.value.DoubleValue
8.376

@<SCITEGIC>MOL_PROPERTY
Bond
SciTegic.value.DoubleValue
0.262

@<SCITEGIC>MOL_PROPERTY
Angle
SciTegic.value.DoubleValue
1.644

@<SCITEGIC>MOL_PROPERTY
Pdih
SciTegic.value.DoubleValue
4.614

@<SCITEGIC>MOL_PROPERTY
Idih
SciTegic.value.DoubleValue
0.000

@<SCITEGIC>MOL_PROPERTY
Tether
SciTegic.value.DoubleValue
0.000

@<TRIPOS>MOLECULE
guest-2_vm2.mol2 : vm2 ligand conformer 90
          23          22           1
SMALL
USER_CHARGES
 
@<TRIPOS>ATOM
       1    N1      20.967092   18.664911   24.568049 N.4        1 MOL1        -0.5940
       2    H1      21.158144   18.248340   23.651961 H          1 MOL1         0.3649
       3    H2      20.716206   17.900899   25.203888 H          1 MOL1         0.3649
       4    H3      21.846761   19.063763   24.913448 H          1 MOL1         0.3649
       5    C1      19.869993   19.708270   24.485032 C.3        1 MOL1         0.0207
       6    H4      20.214620   20.530114   23.851780 H          1 MOL1         0.0950
       7    H5      19.722833   20.097541   25.496129 H          1 MOL1         0.0950
       8    C2      18.527851   19.165076   23.954453 C.3        1 MOL1        -0.1415
       9    H6      18.322962   18.180882   24.396308 H          1 MOL1         0.0976
      10    H7      17.732198   19.827749   24.320012 H          1 MOL1         0.0976
      11    C3      18.411100   19.094287   22.408415 C.3        1 MOL1        -0.1375
      12    H8      18.486677   20.104603   21.986788 H          1 MOL1         0.0976
      13    H9      17.393186   18.754915   22.171798 H          1 MOL1         0.0976
      14    C4      19.409783   18.132405   21.710356 C.3        1 MOL1        -0.1375
      15    H10     19.673340   17.313545   22.392745 H          1 MOL1         0.0976
      16    H11     18.901658   17.648336   20.864747 H          1 MOL1         0.0976
      17    C5      20.693722   18.817430   21.174128 C.3        1 MOL1        -0.1350
      18    H12     21.430087   18.041314   20.922411 H          1 MOL1         0.0976
      19    H13     21.155119   19.444450   21.946634 H          1 MOL1         0.0976
      20    C6      20.436459   19.674621   19.913568 C.3        1 MOL1        -0.2365
      21    H14     21.377669   20.094752   19.535986 H          1 MOL1         0.0987
      22    H15     19.760753   20.512764   20.122869 H          1 MOL1         0.0987
      23    H16     19.993839   19.071892   19.109935 H          1 MOL1         0.0987
@<TRIPOS>BOND
    1     1     2    1
    2     1     3    1
    3     1     4    1
    4     1     5    1
    5     5     6    1
    6     5     7    1
    7     5     8    1
    8     8     9    1
    9     8    10    1
   10     8    11    1
   11    11    12    1
   12    11    13    1
   13    11    14    1
   14    14    15    1
   15    14    16    1
   16    14    17    1
   17    17    18    1
   18    17    19    1
   19    17    20    1
   20    20    21    1
   21    20    22    1
   22    20    23    1
@<TRIPOS>SUBSTRUCTURE
       1 MOL1            1 RESIDUE      1      MOL     
@<SCITEGIC>MOL_PROPERTY
VM2 Rank
SciTegic.value.IntegerValue
90

@<SCITEGIC>MOL_PROPERTY
Conf_Id
SciTegic.value.IntegerValue
537

@<SCITEGIC>MOL_PROPERTY
Probability
SciTegic.value.DoubleValue
0.00

@<SCITEGIC>MOL_PROPERTY
Sum Probability
SciTegic.value.DoubleValue
100.00

@<SCITEGIC>MOL_PROPERTY
Delta G
SciTegic.value.DoubleValue
7.089

@<SCITEGIC>MOL_PROPERTY
G
SciTegic.value.DoubleValue
45.005

@<SCITEGIC>MOL_PROPERTY
E
SciTegic.value.DoubleValue
16.718

@<SCITEGIC>MOL_PROPERTY
-TS
SciTegic.value.DoubleValue
28.286

@<SCITEGIC>MOL_PROPERTY
U+W
SciTegic.value.DoubleValue
-2.061

@<SCITEGIC>MOL_PROPERTY
U
SciTegic.value.DoubleValue
53.835

@<SCITEGIC>MOL_PROPERTY
W
SciTegic.value.DoubleValue
-55.896

@<SCITEGIC>MOL_PROPERTY
W(PB)
SciTegic.value.DoubleValue
-57.909

@<SCITEGIC>MOL_PROPERTY
W(SA)
SciTegic.value.DoubleValue
2.013

@<SCITEGIC>MOL_PROPERTY
Valence
SciTegic.value.DoubleValue
6.520

@<SCITEGIC>MOL_PROPERTY
Coulomb
SciTegic.value.DoubleValue
46.847

@<SCITEGIC>MOL_PROPERTY
VdW
SciTegic.value.DoubleValue
0.468

@<SCITEGIC>MOL_PROPERTY
VdW6
SciTegic.value.DoubleValue
-7.907

@<SCITEGIC>MOL_PROPERTY
VdW12
SciTegic.value.DoubleValue
8.375

@<SCITEGIC>MOL_PROPERTY
Bond
SciTegic.value.DoubleValue
0.262

@<SCITEGIC>MOL_PROPERTY
Angle
SciTegic.value.DoubleValue
1.644

@<SCITEGIC>MOL_PROPERTY
Pdih
SciTegic.value.DoubleValue
4.614

@<SCITEGIC>MOL_PROPERTY
Idih
SciTegic.value.DoubleValue
0.000

@<SCITEGIC>MOL_PROPERTY
Tether
SciTegic.value.DoubleValue
0.000

