VeraChem MOL file


 23 22  0  0  0  0  0  0  0  0999 V2000     
   19.7414   18.6610   26.4278 N   0  3  0  0  0  0  0  0  0  0  0  0
   19.4802   19.1972   27.2623 H   0  0  0  0  0  0  0  0  0  0  0  0
   20.7321   18.4176   26.5284 H   0  0  0  0  0  0  0  0  0  0  0  0
   19.2108   17.7845   26.4591 H   0  0  0  0  0  0  0  0  0  0  0  0
   19.4763   19.4376   25.1540 C   0  0  0  0  0  0  0  0  0  0  0  0
   20.0476   20.3686   25.2013 H   0  0  0  0  0  0  0  0  0  0  0  0
   18.4124   19.6882   25.1268 H   0  0  0  0  0  0  0  0  0  0  0  0
   19.8579   18.6596   23.8821 C   0  0  0  0  0  0  0  0  0  0  0  0
   20.9233   18.3958   23.9215 H   0  0  0  0  0  0  0  0  0  0  0  0
   19.2938   17.7180   23.8472 H   0  0  0  0  0  0  0  0  0  0  0  0
   19.5729   19.4847   22.6077 C   0  0  0  0  0  0  0  0  0  0  0  0
   20.1350   20.4281   22.6490 H   0  0  0  0  0  0  0  0  0  0  0  0
   18.5072   19.7511   22.5748 H   0  0  0  0  0  0  0  0  0  0  0  0
   19.9525   18.7125   21.3237 C   0  0  0  0  0  0  0  0  0  0  0  0
   21.0181   18.4461   21.3565 H   0  0  0  0  0  0  0  0  0  0  0  0
   19.3905   17.7692   21.2823 H   0  0  0  0  0  0  0  0  0  0  0  0
   19.6673   19.5379   20.0493 C   0  0  0  0  0  0  0  0  0  0  0  0
   20.2294   20.4818   20.0849 H   0  0  0  0  0  0  0  0  0  0  0  0
   18.6019   19.8050   20.0107 H   0  0  0  0  0  0  0  0  0  0  0  0
   20.0476   18.7637   18.7693 C   0  0  0  0  0  0  0  0  0  0  0  0
   19.8380   19.3656   17.8755 H   0  0  0  0  0  0  0  0  0  0  0  0
   19.4760   17.8299   18.6882 H   0  0  0  0  0  0  0  0  0  0  0  0
   21.1162   18.5121   18.7629 H   0  0  0  0  0  0  0  0  0  0  0  0
  1  2  1  0  0  0  0
  1  3  1  0  0  0  0
  1  4  1  0  0  0  0
  1  5  1  0  0  0  0
  5  6  1  0  0  0  0
  5  7  1  0  0  0  0
  5  8  1  0  0  0  0
  8  9  1  0  0  0  0
  8 10  1  0  0  0  0
  8 11  1  0  0  0  0
 11 12  1  0  0  0  0
 11 13  1  0  0  0  0
 11 14  1  0  0  0  0
 14 15  1  0  0  0  0
 14 16  1  0  0  0  0
 14 17  1  0  0  0  0
 17 18  1  0  0  0  0
 17 19  1  0  0  0  0
 17 20  1  0  0  0  0
 20 21  1  0  0  0  0
 20 22  1  0  0  0  0
 20 23  1  0  0  0  0
M  END
> <VM2 Rank>
1

> <Conf_Id>
803

> <Probability>
11.98

> <Sum Probability>
11.98

> <Delta G>
0.000

> <G>
37.916

> <E>
10.396

> <-TS>
27.520

> <U+W>
-8.383

> <U>
46.604

> <W>
-54.987

> <W(PB)>
-57.163

> <W(SA)>
2.176

> <Valence>
1.727

> <Coulomb>
44.434

> <VdW>
0.443

> <VdW6>
-4.623

> <VdW12>
5.066

> <Bond>
0.112

> <Angle>
0.386

> <Pdih>
1.228

> <Idih>
0.000

> <Tether>
0.000

$$$$
VeraChem MOL file


 23 22  0  0  0  0  0  0  0  0999 V2000     
   20.4492   19.4574   25.7939 N   0  3  0  0  0  0  0  0  0  0  0  0
   20.8557   20.1752   25.1865 H   0  0  0  0  0  0  0  0  0  0  0  0
   21.1374   18.7019   25.8730 H   0  0  0  0  0  0  0  0  0  0  0  0
   20.3535   19.8733   26.7265 H   0  0  0  0  0  0  0  0  0  0  0  0
   19.1204   18.9563   25.2623 C   0  0  0  0  0  0  0  0  0  0  0  0
   18.4287   19.8023   25.2257 H   0  0  0  0  0  0  0  0  0  0  0  0
   18.7302   18.2283   25.9787 H   0  0  0  0  0  0  0  0  0  0  0  0
   19.2146   18.3026   23.8700 C   0  0  0  0  0  0  0  0  0  0  0  0
   19.9142   17.4570   23.9086 H   0  0  0  0  0  0  0  0  0  0  0  0
   18.2316   17.8843   23.6156 H   0  0  0  0  0  0  0  0  0  0  0  0
   19.6475   19.2997   22.7689 C   0  0  0  0  0  0  0  0  0  0  0  0
   20.6464   19.6957   22.9955 H   0  0  0  0  0  0  0  0  0  0  0  0
   18.9591   20.1562   22.7600 H   0  0  0  0  0  0  0  0  0  0  0  0
   19.6671   18.6391   21.3717 C   0  0  0  0  0  0  0  0  0  0  0  0
   20.3531   17.7808   21.3807 H   0  0  0  0  0  0  0  0  0  0  0  0
   18.6685   18.2450   21.1370 H   0  0  0  0  0  0  0  0  0  0  0  0
   20.0998   19.6326   20.2705 C   0  0  0  0  0  0  0  0  0  0  0  0
   21.0997   20.0276   20.4988 H   0  0  0  0  0  0  0  0  0  0  0  0
   19.4151   20.4922   20.2563 H   0  0  0  0  0  0  0  0  0  0  0  0
   20.1175   18.9694   18.8768 C   0  0  0  0  0  0  0  0  0  0  0  0
   20.8197   18.1259   18.8499 H   0  0  0  0  0  0  0  0  0  0  0  0
   20.4270   19.6899   18.1085 H   0  0  0  0  0  0  0  0  0  0  0  0
   19.1221   18.5943   18.6053 H   0  0  0  0  0  0  0  0  0  0  0  0
  1  2  1  0  0  0  0
  1  3  1  0  0  0  0
  1  4  1  0  0  0  0
  1  5  1  0  0  0  0
  5  6  1  0  0  0  0
  5  7  1  0  0  0  0
  5  8  1  0  0  0  0
  8  9  1  0  0  0  0
  8 10  1  0  0  0  0
  8 11  1  0  0  0  0
 11 12  1  0  0  0  0
 11 13  1  0  0  0  0
 11 14  1  0  0  0  0
 14 15  1  0  0  0  0
 14 16  1  0  0  0  0
 14 17  1  0  0  0  0
 17 18  1  0  0  0  0
 17 19  1  0  0  0  0
 17 20  1  0  0  0  0
 20 21  1  0  0  0  0
 20 22  1  0  0  0  0
 20 23  1  0  0  0  0
M  END
> <VM2 Rank>
2

> <Conf_Id>
866

> <Probability>
7.31

> <Sum Probability>
19.29

> <Delta G>
0.295

> <G>
38.211

> <E>
10.589

> <-TS>
27.622

> <U+W>
-8.190

> <U>
47.288

> <W>
-55.479

> <W(PB)>
-57.627

> <W(SA)>
2.149

> <Valence>
1.833

> <Coulomb>
44.908

> <VdW>
0.548

> <VdW6>
-5.142

> <VdW12>
5.690

> <Bond>
0.133

> <Angle>
0.431

> <Pdih>
1.269

> <Idih>
0.000

> <Tether>
0.000

$$$$
VeraChem MOL file


 23 22  0  0  0  0  0  0  0  0999 V2000     
   18.7299   18.7423   25.7155 N   0  3  0  0  0  0  0  0  0  0  0  0
   17.9834   18.9805   25.0555 H   0  0  0  0  0  0  0  0  0  0  0  0
   18.4302   19.0734   26.6388 H   0  0  0  0  0  0  0  0  0  0  0  0
   18.7754   17.7195   25.7654 H   0  0  0  0  0  0  0  0  0  0  0  0
   20.0586   19.3466   25.3051 C   0  0  0  0  0  0  0  0  0  0  0  0
   20.7924   19.0860   26.0727 H   0  0  0  0  0  0  0  0  0  0  0  0
   19.9482   20.4343   25.2949 H   0  0  0  0  0  0  0  0  0  0  0  0
   20.5632   18.8635   23.9314 C   0  0  0  0  0  0  0  0  0  0  0  0
   21.5692   19.2723   23.7678 H   0  0  0  0  0  0  0  0  0  0  0  0
   20.6676   17.7704   23.9429 H   0  0  0  0  0  0  0  0  0  0  0  0
   19.6390   19.2962   22.7685 C   0  0  0  0  0  0  0  0  0  0  0  0
   19.5166   20.3881   22.7854 H   0  0  0  0  0  0  0  0  0  0  0  0
   18.6397   18.8613   22.9040 H   0  0  0  0  0  0  0  0  0  0  0  0
   20.2012   18.8613   21.3960 C   0  0  0  0  0  0  0  0  0  0  0  0
   21.1994   19.2976   21.2523 H   0  0  0  0  0  0  0  0  0  0  0  0
   20.3264   17.7697   21.3795 H   0  0  0  0  0  0  0  0  0  0  0  0
   19.2795   19.2914   20.2331 C   0  0  0  0  0  0  0  0  0  0  0  0
   19.1527   20.3831   20.2443 H   0  0  0  0  0  0  0  0  0  0  0  0
   18.2802   18.8549   20.3703 H   0  0  0  0  0  0  0  0  0  0  0  0
   19.8446   18.8559   18.8644 C   0  0  0  0  0  0  0  0  0  0  0  0
   19.1769   19.1699   18.0516 H   0  0  0  0  0  0  0  0  0  0  0  0
   19.9509   17.7645   18.8103 H   0  0  0  0  0  0  0  0  0  0  0  0
   20.8300   19.3047   18.6832 H   0  0  0  0  0  0  0  0  0  0  0  0
  1  2  1  0  0  0  0
  1  3  1  0  0  0  0
  1  4  1  0  0  0  0
  1  5  1  0  0  0  0
  5  6  1  0  0  0  0
  5  7  1  0  0  0  0
  5  8  1  0  0  0  0
  8  9  1  0  0  0  0
  8 10  1  0  0  0  0
  8 11  1  0  0  0  0
 11 12  1  0  0  0  0
 11 13  1  0  0  0  0
 11 14  1  0  0  0  0
 14 15  1  0  0  0  0
 14 16  1  0  0  0  0
 14 17  1  0  0  0  0
 17 18  1  0  0  0  0
 17 19  1  0  0  0  0
 17 20  1  0  0  0  0
 20 21  1  0  0  0  0
 20 22  1  0  0  0  0
 20 23  1  0  0  0  0
M  END
> <VM2 Rank>
3

> <Conf_Id>
1091

> <Probability>
7.20

> <Sum Probability>
26.49

> <Delta G>
0.304

> <G>
38.220

> <E>
10.598

> <-TS>
27.622

> <U+W>
-8.181

> <U>
47.288

> <W>
-55.469

> <W(PB)>
-57.602

> <W(SA)>
2.133

> <Valence>
1.833

> <Coulomb>
44.908

> <VdW>
0.548

> <VdW6>
-5.142

> <VdW12>
5.690

> <Bond>
0.133

> <Angle>
0.431

> <Pdih>
1.269

> <Idih>
0.000

> <Tether>
0.000

$$$$
VeraChem MOL file


 23 22  0  0  0  0  0  0  0  0999 V2000     
   19.5097   18.2599   26.0549 N   0  3  0  0  0  0  0  0  0  0  0  0
   19.5460   19.0650   26.6885 H   0  0  0  0  0  0  0  0  0  0  0  0
   20.4068   17.7707   26.1373 H   0  0  0  0  0  0  0  0  0  0  0  0
   18.7901   17.6264   26.4194 H   0  0  0  0  0  0  0  0  0  0  0  0
   19.2220   18.6768   24.6269 C   0  0  0  0  0  0  0  0  0  0  0  0
   18.2433   19.1638   24.6081 H   0  0  0  0  0  0  0  0  0  0  0  0
   19.1675   17.7708   24.0178 H   0  0  0  0  0  0  0  0  0  0  0  0
   20.2860   19.6299   24.0505 C   0  0  0  0  0  0  0  0  0  0  0  0
   20.3622   20.5150   24.6960 H   0  0  0  0  0  0  0  0  0  0  0  0
   21.2692   19.1410   24.0702 H   0  0  0  0  0  0  0  0  0  0  0  0
   19.9615   20.0868   22.6086 C   0  0  0  0  0  0  0  0  0  0  0  0
   20.7077   20.8316   22.2989 H   0  0  0  0  0  0  0  0  0  0  0  0
   18.9889   20.5983   22.5966 H   0  0  0  0  0  0  0  0  0  0  0  0
   19.9519   18.9222   21.5893 C   0  0  0  0  0  0  0  0  0  0  0  0
   20.9138   18.3925   21.6278 H   0  0  0  0  0  0  0  0  0  0  0  0
   19.1761   18.1932   21.8592 H   0  0  0  0  0  0  0  0  0  0  0  0
   19.6979   19.4219   20.1497 C   0  0  0  0  0  0  0  0  0  0  0  0
   20.4739   20.1464   19.8655 H   0  0  0  0  0  0  0  0  0  0  0  0
   18.7369   19.9534   20.1056 H   0  0  0  0  0  0  0  0  0  0  0  0
   19.6870   18.2594   19.1342 C   0  0  0  0  0  0  0  0  0  0  0  0
   20.6482   17.7289   19.1312 H   0  0  0  0  0  0  0  0  0  0  0  0
   19.5059   18.6339   18.1183 H   0  0  0  0  0  0  0  0  0  0  0  0
   18.8973   17.5349   19.3718 H   0  0  0  0  0  0  0  0  0  0  0  0
  1  2  1  0  0  0  0
  1  3  1  0  0  0  0
  1  4  1  0  0  0  0
  1  5  1  0  0  0  0
  5  6  1  0  0  0  0
  5  7  1  0  0  0  0
  5  8  1  0  0  0  0
  8  9  1  0  0  0  0
  8 10  1  0  0  0  0
  8 11  1  0  0  0  0
 11 12  1  0  0  0  0
 11 13  1  0  0  0  0
 11 14  1  0  0  0  0
 14 15  1  0  0  0  0
 14 16  1  0  0  0  0
 14 17  1  0  0  0  0
 17 18  1  0  0  0  0
 17 19  1  0  0  0  0
 17 20  1  0  0  0  0
 20 21  1  0  0  0  0
 20 22  1  0  0  0  0
 20 23  1  0  0  0  0
M  END
> <VM2 Rank>
4

> <Conf_Id>
714

> <Probability>
5.52

> <Sum Probability>
32.01

> <Delta G>
0.462

> <G>
38.379

> <E>
10.761

> <-TS>
27.618

> <U+W>
-8.019

> <U>
47.375

> <W>
-55.393

> <W(PB)>
-57.545

> <W(SA)>
2.152

> <Valence>
2.032

> <Coulomb>
44.843

> <VdW>
0.499

> <VdW6>
-5.218

> <VdW12>
5.718

> <Bond>
0.135

> <Angle>
0.514

> <Pdih>
1.383

> <Idih>
0.000

> <Tether>
0.000

$$$$
VeraChem MOL file


 23 22  0  0  0  0  0  0  0  0999 V2000     
   20.2169   18.5540   26.0871 N   0  3  0  0  0  0  0  0  0  0  0  0
   19.9270   17.5712   26.1154 H   0  0  0  0  0  0  0  0  0  0  0  0
   19.5724   19.0759   26.6897 H   0  0  0  0  0  0  0  0  0  0  0  0
   21.1423   18.6046   26.5265 H   0  0  0  0  0  0  0  0  0  0  0  0
   20.2345   19.0979   24.6730 C   0  0  0  0  0  0  0  0  0  0  0  0
   20.9613   18.5169   24.0995 H   0  0  0  0  0  0  0  0  0  0  0  0
   20.5783   20.1350   24.7145 H   0  0  0  0  0  0  0  0  0  0  0  0
   18.8575   19.0358   23.9854 C   0  0  0  0  0  0  0  0  0  0  0  0
   18.5117   17.9942   23.9446 H   0  0  0  0  0  0  0  0  0  0  0  0
   18.1274   19.5856   24.5942 H   0  0  0  0  0  0  0  0  0  0  0  0
   18.8737   19.6344   22.5590 C   0  0  0  0  0  0  0  0  0  0  0  0
   19.1953   20.6841   22.6059 H   0  0  0  0  0  0  0  0  0  0  0  0
   17.8466   19.6417   22.1685 H   0  0  0  0  0  0  0  0  0  0  0  0
   19.7839   18.8523   21.5816 C   0  0  0  0  0  0  0  0  0  0  0  0
   20.8236   18.8784   21.9343 H   0  0  0  0  0  0  0  0  0  0  0  0
   19.4805   17.7964   21.5624 H   0  0  0  0  0  0  0  0  0  0  0  0
   19.7202   19.4312   20.1507 C   0  0  0  0  0  0  0  0  0  0  0  0
   20.0221   20.4879   20.1642 H   0  0  0  0  0  0  0  0  0  0  0  0
   18.6845   19.4022   19.7839 H   0  0  0  0  0  0  0  0  0  0  0  0
   20.6295   18.6514   19.1772 C   0  0  0  0  0  0  0  0  0  0  0  0
   20.5704   19.0767   18.1668 H   0  0  0  0  0  0  0  0  0  0  0  0
   20.3305   17.5968   19.1167 H   0  0  0  0  0  0  0  0  0  0  0  0
   21.6784   18.6916   19.4986 H   0  0  0  0  0  0  0  0  0  0  0  0
  1  2  1  0  0  0  0
  1  3  1  0  0  0  0
  1  4  1  0  0  0  0
  1  5  1  0  0  0  0
  5  6  1  0  0  0  0
  5  7  1  0  0  0  0
  5  8  1  0  0  0  0
  8  9  1  0  0  0  0
  8 10  1  0  0  0  0
  8 11  1  0  0  0  0
 11 12  1  0  0  0  0
 11 13  1  0  0  0  0
 11 14  1  0  0  0  0
 14 15  1  0  0  0  0
 14 16  1  0  0  0  0
 14 17  1  0  0  0  0
 17 18  1  0  0  0  0
 17 19  1  0  0  0  0
 17 20  1  0  0  0  0
 20 21  1  0  0  0  0
 20 22  1  0  0  0  0
 20 23  1  0  0  0  0
M  END
> <VM2 Rank>
5

> <Conf_Id>
1052

> <Probability>
4.94

> <Sum Probability>
36.94

> <Delta G>
0.529

> <G>
38.445

> <E>
10.827

> <-TS>
27.618

> <U+W>
-7.952

> <U>
47.375

> <W>
-55.327

> <W(PB)>
-57.491

> <W(SA)>
2.164

> <Valence>
2.032

> <Coulomb>
44.843

> <VdW>
0.499

> <VdW6>
-5.218

> <VdW12>
5.718

> <Bond>
0.135

> <Angle>
0.514

> <Pdih>
1.383

> <Idih>
0.000

> <Tether>
0.000

$$$$
VeraChem MOL file


 23 22  0  0  0  0  0  0  0  0999 V2000     
   19.5474   18.7522   26.3217 N   0  3  0  0  0  0  0  0  0  0  0  0
   19.7317   17.7457   26.3829 H   0  0  0  0  0  0  0  0  0  0  0  0
   18.8412   18.9696   27.0331 H   0  0  0  0  0  0  0  0  0  0  0  0
   20.4084   19.2340   26.6000 H   0  0  0  0  0  0  0  0  0  0  0  0
   19.0936   19.1608   24.9350 C   0  0  0  0  0  0  0  0  0  0  0  0
   18.8877   20.2346   24.9499 H   0  0  0  0  0  0  0  0  0  0  0  0
   18.1602   18.6349   24.7167 H   0  0  0  0  0  0  0  0  0  0  0  0
   20.1322   18.8478   23.8432 C   0  0  0  0  0  0  0  0  0  0  0  0
   21.0728   19.3647   24.0758 H   0  0  0  0  0  0  0  0  0  0  0  0
   20.3478   17.7709   23.8423 H   0  0  0  0  0  0  0  0  0  0  0  0
   19.6322   19.2790   22.4466 C   0  0  0  0  0  0  0  0  0  0  0  0
   19.4159   20.3564   22.4518 H   0  0  0  0  0  0  0  0  0  0  0  0
   18.6865   18.7648   22.2299 H   0  0  0  0  0  0  0  0  0  0  0  0
   20.6694   18.9645   21.3418 C   0  0  0  0  0  0  0  0  0  0  0  0
   21.6298   19.4269   21.6089 H   0  0  0  0  0  0  0  0  0  0  0  0
   20.8494   17.8814   21.2994 H   0  0  0  0  0  0  0  0  0  0  0  0
   20.2523   19.4740   19.9409 C   0  0  0  0  0  0  0  0  0  0  0  0
   21.0845   19.3066   19.2428 H   0  0  0  0  0  0  0  0  0  0  0  0
   20.0923   20.5608   19.9729 H   0  0  0  0  0  0  0  0  0  0  0  0
   18.9888   18.7787   19.3849 C   0  0  0  0  0  0  0  0  0  0  0  0
   19.1124   17.6880   19.3700 H   0  0  0  0  0  0  0  0  0  0  0  0
   18.7904   19.1078   18.3566 H   0  0  0  0  0  0  0  0  0  0  0  0
   18.1010   19.0164   19.9837 H   0  0  0  0  0  0  0  0  0  0  0  0
  1  2  1  0  0  0  0
  1  3  1  0  0  0  0
  1  4  1  0  0  0  0
  1  5  1  0  0  0  0
  5  6  1  0  0  0  0
  5  7  1  0  0  0  0
  5  8  1  0  0  0  0
  8  9  1  0  0  0  0
  8 10  1  0  0  0  0
  8 11  1  0  0  0  0
 11 12  1  0  0  0  0
 11 13  1  0  0  0  0
 11 14  1  0  0  0  0
 14 15  1  0  0  0  0
 14 16  1  0  0  0  0
 14 17  1  0  0  0  0
 17 18  1  0  0  0  0
 17 19  1  0  0  0  0
 17 20  1  0  0  0  0
 20 21  1  0  0  0  0
 20 22  1  0  0  0  0
 20 23  1  0  0  0  0
M  END
> <VM2 Rank>
6

> <Conf_Id>
948

> <Probability>
4.33

> <Sum Probability>
41.27

> <Delta G>
0.607

> <G>
38.523

> <E>
10.893

> <-TS>
27.630

> <U+W>
-7.886

> <U>
47.264

> <W>
-55.150

> <W(PB)>
-57.314

> <W(SA)>
2.164

> <Valence>
2.234

> <Coulomb>
44.451

> <VdW>
0.580

> <VdW6>
-5.234

> <VdW12>
5.814

> <Bond>
0.148

> <Angle>
0.630

> <Pdih>
1.456

> <Idih>
0.000

> <Tether>
0.000

$$$$
VeraChem MOL file


 23 22  0  0  0  0  0  0  0  0999 V2000     
   19.8212   18.8661   26.3341 N   0  3  0  0  0  0  0  0  0  0  0  0
   20.1080   19.4964   27.0908 H   0  0  0  0  0  0  0  0  0  0  0  0
   20.3996   18.0235   26.4133 H   0  0  0  0  0  0  0  0  0  0  0  0
   18.8542   18.5875   26.5292 H   0  0  0  0  0  0  0  0  0  0  0  0
   19.9580   19.5204   24.9743 C   0  0  0  0  0  0  0  0  0  0  0  0
   21.0025   19.8171   24.8461 H   0  0  0  0  0  0  0  0  0  0  0  0
   19.3413   20.4232   24.9706 H   0  0  0  0  0  0  0  0  0  0  0  0
   19.5351   18.5995   23.8160 C   0  0  0  0  0  0  0  0  0  0  0  0
   20.1462   17.6871   23.8331 H   0  0  0  0  0  0  0  0  0  0  0  0
   18.4908   18.2908   23.9581 H   0  0  0  0  0  0  0  0  0  0  0  0
   19.6892   19.3028   22.4492 C   0  0  0  0  0  0  0  0  0  0  0  0
   20.7340   19.6164   22.3232 H   0  0  0  0  0  0  0  0  0  0  0  0
   19.0779   20.2158   22.4364 H   0  0  0  0  0  0  0  0  0  0  0  0
   19.2695   18.3822   21.2780 C   0  0  0  0  0  0  0  0  0  0  0  0
   19.9132   17.4920   21.2568 H   0  0  0  0  0  0  0  0  0  0  0  0
   18.2472   18.0199   21.4548 H   0  0  0  0  0  0  0  0  0  0  0  0
   19.3103   19.0820   19.8979 C   0  0  0  0  0  0  0  0  0  0  0  0
   18.6506   19.9610   19.9071 H   0  0  0  0  0  0  0  0  0  0  0  0
   18.8989   18.3973   19.1431 H   0  0  0  0  0  0  0  0  0  0  0  0
   20.7327   19.5041   19.4644 C   0  0  0  0  0  0  0  0  0  0  0  0
   21.1410   20.2812   20.1223 H   0  0  0  0  0  0  0  0  0  0  0  0
   20.7188   19.9097   18.4445 H   0  0  0  0  0  0  0  0  0  0  0  0
   21.4193   18.6477   19.4754 H   0  0  0  0  0  0  0  0  0  0  0  0
  1  2  1  0  0  0  0
  1  3  1  0  0  0  0
  1  4  1  0  0  0  0
  1  5  1  0  0  0  0
  5  6  1  0  0  0  0
  5  7  1  0  0  0  0
  5  8  1  0  0  0  0
  8  9  1  0  0  0  0
  8 10  1  0  0  0  0
  8 11  1  0  0  0  0
 11 12  1  0  0  0  0
 11 13  1  0  0  0  0
 11 14  1  0  0  0  0
 14 15  1  0  0  0  0
 14 16  1  0  0  0  0
 14 17  1  0  0  0  0
 17 18  1  0  0  0  0
 17 19  1  0  0  0  0
 17 20  1  0  0  0  0
 20 21  1  0  0  0  0
 20 22  1  0  0  0  0
 20 23  1  0  0  0  0
M  END
> <VM2 Rank>
7

> <Conf_Id>
1122

> <Probability>
4.08

> <Sum Probability>
45.35

> <Delta G>
0.642

> <G>
38.559

> <E>
10.928

> <-TS>
27.630

> <U+W>
-7.851

> <U>
47.264

> <W>
-55.115

> <W(PB)>
-57.280

> <W(SA)>
2.165

> <Valence>
2.234

> <Coulomb>
44.451

> <VdW>
0.580

> <VdW6>
-5.234

> <VdW12>
5.814

> <Bond>
0.148

> <Angle>
0.630

> <Pdih>
1.456

> <Idih>
0.000

> <Tether>
0.000

$$$$
VeraChem MOL file


 23 22  0  0  0  0  0  0  0  0999 V2000     
   19.3992   18.2118   26.0666 N   0  3  0  0  0  0  0  0  0  0  0  0
   20.2614   17.6619   26.1385 H   0  0  0  0  0  0  0  0  0  0  0  0
   18.6476   17.5625   25.8128 H   0  0  0  0  0  0  0  0  0  0  0  0
   19.1878   18.5586   27.0085 H   0  0  0  0  0  0  0  0  0  0  0  0
   19.5314   19.3429   25.0670 C   0  0  0  0  0  0  0  0  0  0  0  0
   20.3260   20.0088   25.4144 H   0  0  0  0  0  0  0  0  0  0  0  0
   18.5917   19.9018   25.0635 H   0  0  0  0  0  0  0  0  0  0  0  0
   19.8496   18.8558   23.6422 C   0  0  0  0  0  0  0  0  0  0  0  0
   20.7857   18.2817   23.6538 H   0  0  0  0  0  0  0  0  0  0  0  0
   19.0554   18.1743   23.3125 H   0  0  0  0  0  0  0  0  0  0  0  0
   19.9779   20.0417   22.6573 C   0  0  0  0  0  0  0  0  0  0  0  0
   20.7195   20.7518   23.0492 H   0  0  0  0  0  0  0  0  0  0  0  0
   19.0253   20.5873   22.6082 H   0  0  0  0  0  0  0  0  0  0  0  0
   20.4085   19.6196   21.2308 C   0  0  0  0  0  0  0  0  0  0  0  0
   20.5873   20.5277   20.6385 H   0  0  0  0  0  0  0  0  0  0  0  0
   21.3695   19.0889   21.2779 H   0  0  0  0  0  0  0  0  0  0  0  0
   19.3632   18.7423   20.5020 C   0  0  0  0  0  0  0  0  0  0  0  0
   18.3886   19.2503   20.5002 H   0  0  0  0  0  0  0  0  0  0  0  0
   19.2265   17.7924   21.0355 H   0  0  0  0  0  0  0  0  0  0  0  0
   19.7861   18.4429   19.0480 C   0  0  0  0  0  0  0  0  0  0  0  0
   19.0357   17.8178   18.5468 H   0  0  0  0  0  0  0  0  0  0  0  0
   20.7445   17.9082   19.0180 H   0  0  0  0  0  0  0  0  0  0  0  0
   19.8933   19.3693   18.4687 H   0  0  0  0  0  0  0  0  0  0  0  0
  1  2  1  0  0  0  0
  1  3  1  0  0  0  0
  1  4  1  0  0  0  0
  1  5  1  0  0  0  0
  5  6  1  0  0  0  0
  5  7  1  0  0  0  0
  5  8  1  0  0  0  0
  8  9  1  0  0  0  0
  8 10  1  0  0  0  0
  8 11  1  0  0  0  0
 11 12  1  0  0  0  0
 11 13  1  0  0  0  0
 11 14  1  0  0  0  0
 14 15  1  0  0  0  0
 14 16  1  0  0  0  0
 14 17  1  0  0  0  0
 17 18  1  0  0  0  0
 17 19  1  0  0  0  0
 17 20  1  0  0  0  0
 20 21  1  0  0  0  0
 20 22  1  0  0  0  0
 20 23  1  0  0  0  0
M  END
> <VM2 Rank>
8

> <Conf_Id>
872

> <Probability>
3.53

> <Sum Probability>
48.88

> <Delta G>
0.728

> <G>
38.644

> <E>
11.025

> <-TS>
27.619

> <U+W>
-7.754

> <U>
47.562

> <W>
-55.316

> <W(PB)>
-57.472

> <W(SA)>
2.156

> <Valence>
2.273

> <Coulomb>
44.723

> <VdW>
0.566

> <VdW6>
-5.266

> <VdW12>
5.832

> <Bond>
0.151

> <Angle>
0.657

> <Pdih>
1.466

> <Idih>
0.000

> <Tether>
0.000

$$$$
VeraChem MOL file


 23 22  0  0  0  0  0  0  0  0999 V2000     
   20.3275   18.5979   26.1090 N   0  3  0  0  0  0  0  0  0  0  0  0
   20.1061   17.5972   26.1313 H   0  0  0  0  0  0  0  0  0  0  0  0
   20.1571   18.9618   27.0527 H   0  0  0  0  0  0  0  0  0  0  0  0
   21.3345   18.6803   25.9355 H   0  0  0  0  0  0  0  0  0  0  0  0
   19.5115   19.3345   25.0662 C   0  0  0  0  0  0  0  0  0  0  0  0
   19.7756   20.3943   25.1176 H   0  0  0  0  0  0  0  0  0  0  0  0
   18.4553   19.2304   25.3290 H   0  0  0  0  0  0  0  0  0  0  0  0
   19.7437   18.8117   23.6374 C   0  0  0  0  0  0  0  0  0  0  0  0
   20.8092   18.9041   23.3924 H   0  0  0  0  0  0  0  0  0  0  0  0
   19.4924   17.7436   23.5947 H   0  0  0  0  0  0  0  0  0  0  0  0
   18.8903   19.5893   22.6078 C   0  0  0  0  0  0  0  0  0  0  0  0
   19.1764   20.6503   22.6150 H   0  0  0  0  0  0  0  0  0  0  0  0
   17.8366   19.5525   22.9178 H   0  0  0  0  0  0  0  0  0  0  0  0
   18.9975   19.0326   21.1666 C   0  0  0  0  0  0  0  0  0  0  0  0
   18.6951   17.9763   21.1561 H   0  0  0  0  0  0  0  0  0  0  0  0
   18.2750   19.5657   20.5331 H   0  0  0  0  0  0  0  0  0  0  0  0
   20.4089   19.1774   20.5496 C   0  0  0  0  0  0  0  0  0  0  0  0
   21.1360   18.5868   21.1225 H   0  0  0  0  0  0  0  0  0  0  0  0
   20.7334   20.2258   20.6070 H   0  0  0  0  0  0  0  0  0  0  0  0
   20.4367   18.7135   19.0776 C   0  0  0  0  0  0  0  0  0  0  0  0
   19.7503   19.3097   18.4622 H   0  0  0  0  0  0  0  0  0  0  0  0
   20.1450   17.6587   18.9908 H   0  0  0  0  0  0  0  0  0  0  0  0
   21.4448   18.8200   18.6565 H   0  0  0  0  0  0  0  0  0  0  0  0
  1  2  1  0  0  0  0
  1  3  1  0  0  0  0
  1  4  1  0  0  0  0
  1  5  1  0  0  0  0
  5  6  1  0  0  0  0
  5  7  1  0  0  0  0
  5  8  1  0  0  0  0
  8  9  1  0  0  0  0
  8 10  1  0  0  0  0
  8 11  1  0  0  0  0
 11 12  1  0  0  0  0
 11 13  1  0  0  0  0
 11 14  1  0  0  0  0
 14 15  1  0  0  0  0
 14 16  1  0  0  0  0
 14 17  1  0  0  0  0
 17 18  1  0  0  0  0
 17 19  1  0  0  0  0
 17 20  1  0  0  0  0
 20 21  1  0  0  0  0
 20 22  1  0  0  0  0
 20 23  1  0  0  0  0
M  END
> <VM2 Rank>
9

> <Conf_Id>
1102

> <Probability>
3.48

> <Sum Probability>
52.36

> <Delta G>
0.737

> <G>
38.654

> <E>
11.034

> <-TS>
27.619

> <U+W>
-7.745

> <U>
47.562

> <W>
-55.306

> <W(PB)>
-57.451

> <W(SA)>
2.144

> <Valence>
2.273

> <Coulomb>
44.723

> <VdW>
0.566

> <VdW6>
-5.266

> <VdW12>
5.832

> <Bond>
0.151

> <Angle>
0.657

> <Pdih>
1.466

> <Idih>
0.000

> <Tether>
0.000

$$$$
VeraChem MOL file


 23 22  0  0  0  0  0  0  0  0999 V2000     
   19.8905   19.9726   25.5967 N   0  3  0  0  0  0  0  0  0  0  0  0
   18.9052   20.1710   25.7983 H   0  0  0  0  0  0  0  0  0  0  0  0
   20.2015   20.6577   24.9015 H   0  0  0  0  0  0  0  0  0  0  0  0
   20.4152   20.1600   26.4578 H   0  0  0  0  0  0  0  0  0  0  0  0
   20.0916   18.5494   25.1138 C   0  0  0  0  0  0  0  0  0  0  0  0
   19.7775   17.8788   25.9184 H   0  0  0  0  0  0  0  0  0  0  0  0
   21.1606   18.3972   24.9416 H   0  0  0  0  0  0  0  0  0  0  0  0
   19.3064   18.2115   23.8316 C   0  0  0  0  0  0  0  0  0  0  0  0
   19.4343   17.1420   23.6176 H   0  0  0  0  0  0  0  0  0  0  0  0
   18.2339   18.3699   24.0065 H   0  0  0  0  0  0  0  0  0  0  0  0
   19.7730   19.0373   22.6092 C   0  0  0  0  0  0  0  0  0  0  0  0
   20.8533   18.8957   22.4725 H   0  0  0  0  0  0  0  0  0  0  0  0
   19.6112   20.1070   22.7974 H   0  0  0  0  0  0  0  0  0  0  0  0
   19.0207   18.6273   21.3203 C   0  0  0  0  0  0  0  0  0  0  0  0
   19.2235   17.5718   21.0922 H   0  0  0  0  0  0  0  0  0  0  0  0
   17.9388   18.7028   21.4970 H   0  0  0  0  0  0  0  0  0  0  0  0
   19.3797   19.4990   20.0926 C   0  0  0  0  0  0  0  0  0  0  0  0
   19.1562   20.5535   20.3070 H   0  0  0  0  0  0  0  0  0  0  0  0
   18.7297   19.2118   19.2542 H   0  0  0  0  0  0  0  0  0  0  0  0
   20.8540   19.3598   19.6497 C   0  0  0  0  0  0  0  0  0  0  0  0
   21.5422   19.7490   20.4103 H   0  0  0  0  0  0  0  0  0  0  0  0
   21.0321   19.9237   18.7249 H   0  0  0  0  0  0  0  0  0  0  0  0
   21.1112   18.3101   19.4573 H   0  0  0  0  0  0  0  0  0  0  0  0
  1  2  1  0  0  0  0
  1  3  1  0  0  0  0
  1  4  1  0  0  0  0
  1  5  1  0  0  0  0
  5  6  1  0  0  0  0
  5  7  1  0  0  0  0
  5  8  1  0  0  0  0
  8  9  1  0  0  0  0
  8 10  1  0  0  0  0
  8 11  1  0  0  0  0
 11 12  1  0  0  0  0
 11 13  1  0  0  0  0
 11 14  1  0  0  0  0
 14 15  1  0  0  0  0
 14 16  1  0  0  0  0
 14 17  1  0  0  0  0
 17 18  1  0  0  0  0
 17 19  1  0  0  0  0
 17 20  1  0  0  0  0
 20 21  1  0  0  0  0
 20 22  1  0  0  0  0
 20 23  1  0  0  0  0
M  END
> <VM2 Rank>
10

> <Conf_Id>
896

> <Probability>
2.75

> <Sum Probability>
55.11

> <Delta G>
0.878

> <G>
38.794

> <E>
11.060

> <-TS>
27.734

> <U+W>
-7.719

> <U>
47.955

> <W>
-55.675

> <W(PB)>
-57.795

> <W(SA)>
2.120

> <Valence>
2.340

> <Coulomb>
44.939

> <VdW>
0.677

> <VdW6>
-5.763

> <VdW12>
6.440

> <Bond>
0.168

> <Angle>
0.673

> <Pdih>
1.499

> <Idih>
0.000

> <Tether>
0.000

$$$$
VeraChem MOL file


 23 22  0  0  0  0  0  0  0  0999 V2000     
   19.1467   17.8993   25.3647 N   0  3  0  0  0  0  0  0  0  0  0  0
   18.5885   17.7602   26.2139 H   0  0  0  0  0  0  0  0  0  0  0  0
   19.9694   17.2933   25.4456 H   0  0  0  0  0  0  0  0  0  0  0  0
   18.5889   17.5503   24.5795 H   0  0  0  0  0  0  0  0  0  0  0  0
   19.5339   19.3535   25.1782 C   0  0  0  0  0  0  0  0  0  0  0  0
   20.0873   19.6657   26.0681 H   0  0  0  0  0  0  0  0  0  0  0  0
   18.6159   19.9449   25.1234 H   0  0  0  0  0  0  0  0  0  0  0  0
   20.3934   19.6126   23.9256 C   0  0  0  0  0  0  0  0  0  0  0  0
   20.7075   20.6648   23.9324 H   0  0  0  0  0  0  0  0  0  0  0  0
   21.3109   19.0116   23.9797 H   0  0  0  0  0  0  0  0  0  0  0  0
   19.6389   19.3110   22.6089 C   0  0  0  0  0  0  0  0  0  0  0  0
   18.7096   19.8965   22.5775 H   0  0  0  0  0  0  0  0  0  0  0  0
   19.3514   18.2524   22.5860 H   0  0  0  0  0  0  0  0  0  0  0  0
   20.5002   19.6422   21.3663 C   0  0  0  0  0  0  0  0  0  0  0  0
   20.8383   20.6857   21.4314 H   0  0  0  0  0  0  0  0  0  0  0  0
   21.4078   19.0228   21.3686 H   0  0  0  0  0  0  0  0  0  0  0  0
   19.7490   19.4530   20.0262 C   0  0  0  0  0  0  0  0  0  0  0  0
   20.3913   19.8097   19.2089 H   0  0  0  0  0  0  0  0  0  0  0  0
   18.8514   20.0870   20.0103 H   0  0  0  0  0  0  0  0  0  0  0  0
   19.3540   17.9854   19.7441 C   0  0  0  0  0  0  0  0  0  0  0  0
   18.6138   17.6207   20.4670 H   0  0  0  0  0  0  0  0  0  0  0  0
   20.2303   17.3256   19.7854 H   0  0  0  0  0  0  0  0  0  0  0  0
   18.9110   17.8925   18.7441 H   0  0  0  0  0  0  0  0  0  0  0  0
  1  2  1  0  0  0  0
  1  3  1  0  0  0  0
  1  4  1  0  0  0  0
  1  5  1  0  0  0  0
  5  6  1  0  0  0  0
  5  7  1  0  0  0  0
  5  8  1  0  0  0  0
  8  9  1  0  0  0  0
  8 10  1  0  0  0  0
  8 11  1  0  0  0  0
 11 12  1  0  0  0  0
 11 13  1  0  0  0  0
 11 14  1  0  0  0  0
 14 15  1  0  0  0  0
 14 16  1  0  0  0  0
 14 17  1  0  0  0  0
 17 18  1  0  0  0  0
 17 19  1  0  0  0  0
 17 20  1  0  0  0  0
 20 21  1  0  0  0  0
 20 22  1  0  0  0  0
 20 23  1  0  0  0  0
M  END
> <VM2 Rank>
11

> <Conf_Id>
765

> <Probability>
2.56

> <Sum Probability>
57.67

> <Delta G>
0.919

> <G>
38.835

> <E>
11.107

> <-TS>
27.728

> <U+W>
-7.672

> <U>
48.083

> <W>
-55.755

> <W(PB)>
-57.894

> <W(SA)>
2.138

> <Valence>
2.338

> <Coulomb>
45.069

> <VdW>
0.676

> <VdW6>
-5.773

> <VdW12>
6.448

> <Bond>
0.170

> <Angle>
0.671

> <Pdih>
1.498

> <Idih>
0.000

> <Tether>
0.000

$$$$
VeraChem MOL file


 23 22  0  0  0  0  0  0  0  0999 V2000     
   20.4906   18.7127   25.6758 N   0  3  0  0  0  0  0  0  0  0  0  0
   20.8562   17.7809   25.4554 H   0  0  0  0  0  0  0  0  0  0  0  0
   20.5045   18.8054   26.6972 H   0  0  0  0  0  0  0  0  0  0  0  0
   21.1577   19.3958   25.3043 H   0  0  0  0  0  0  0  0  0  0  0  0
   19.0990   18.9207   25.1108 C   0  0  0  0  0  0  0  0  0  0  0  0
   18.7603   19.9187   25.4020 H   0  0  0  0  0  0  0  0  0  0  0  0
   18.4376   18.1865   25.5787 H   0  0  0  0  0  0  0  0  0  0  0  0
   19.0234   18.7739   23.5787 C   0  0  0  0  0  0  0  0  0  0  0  0
   19.3624   17.7688   23.2978 H   0  0  0  0  0  0  0  0  0  0  0  0
   17.9710   18.8483   23.2742 H   0  0  0  0  0  0  0  0  0  0  0  0
   19.8506   19.8530   22.8362 C   0  0  0  0  0  0  0  0  0  0  0  0
   20.9183   19.7319   23.0631 H   0  0  0  0  0  0  0  0  0  0  0  0
   19.5641   20.8444   23.2140 H   0  0  0  0  0  0  0  0  0  0  0  0
   19.6496   19.8361   21.3009 C   0  0  0  0  0  0  0  0  0  0  0  0
   18.5858   19.9803   21.0666 H   0  0  0  0  0  0  0  0  0  0  0  0
   20.1788   20.6978   20.8708 H   0  0  0  0  0  0  0  0  0  0  0  0
   20.1622   18.5427   20.6243 C   0  0  0  0  0  0  0  0  0  0  0  0
   19.5934   17.6751   20.9844 H   0  0  0  0  0  0  0  0  0  0  0  0
   21.2125   18.3714   20.8984 H   0  0  0  0  0  0  0  0  0  0  0  0
   20.0406   18.6178   19.0873 C   0  0  0  0  0  0  0  0  0  0  0  0
   18.9960   18.7590   18.7806 H   0  0  0  0  0  0  0  0  0  0  0  0
   20.4056   17.6920   18.6239 H   0  0  0  0  0  0  0  0  0  0  0  0
   20.6309   19.4512   18.6844 H   0  0  0  0  0  0  0  0  0  0  0  0
  1  2  1  0  0  0  0
  1  3  1  0  0  0  0
  1  4  1  0  0  0  0
  1  5  1  0  0  0  0
  5  6  1  0  0  0  0
  5  7  1  0  0  0  0
  5  8  1  0  0  0  0
  8  9  1  0  0  0  0
  8 10  1  0  0  0  0
  8 11  1  0  0  0  0
 11 12  1  0  0  0  0
 11 13  1  0  0  0  0
 11 14  1  0  0  0  0
 14 15  1  0  0  0  0
 14 16  1  0  0  0  0
 14 17  1  0  0  0  0
 17 18  1  0  0  0  0
 17 19  1  0  0  0  0
 17 20  1  0  0  0  0
 20 21  1  0  0  0  0
 20 22  1  0  0  0  0
 20 23  1  0  0  0  0
M  END
> <VM2 Rank>
12

> <Conf_Id>
659

> <Probability>
2.47

> <Sum Probability>
60.14

> <Delta G>
0.941

> <G>
38.858

> <E>
11.126

> <-TS>
27.732

> <U+W>
-7.653

> <U>
48.113

> <W>
-55.767

> <W(PB)>
-57.864

> <W(SA)>
2.097

> <Valence>
2.372

> <Coulomb>
45.091

> <VdW>
0.651

> <VdW6>
-5.797

> <VdW12>
6.447

> <Bond>
0.172

> <Angle>
0.675

> <Pdih>
1.524

> <Idih>
0.000

> <Tether>
0.000

$$$$
VeraChem MOL file


 23 22  0  0  0  0  0  0  0  0999 V2000     
   18.9992   18.0356   25.1604 N   0  3  0  0  0  0  0  0  0  0  0  0
   18.4308   17.8525   24.3280 H   0  0  0  0  0  0  0  0  0  0  0  0
   18.4354   18.6138   25.7916 H   0  0  0  0  0  0  0  0  0  0  0  0
   19.1450   17.1353   25.6296 H   0  0  0  0  0  0  0  0  0  0  0  0
   20.3122   18.7052   24.8055 C   0  0  0  0  0  0  0  0  0  0  0  0
   20.8749   18.0270   24.1589 H   0  0  0  0  0  0  0  0  0  0  0  0
   20.8787   18.8383   25.7311 H   0  0  0  0  0  0  0  0  0  0  0  0
   20.1431   20.0708   24.1088 C   0  0  0  0  0  0  0  0  0  0  0  0
   19.6171   20.7567   24.7860 H   0  0  0  0  0  0  0  0  0  0  0  0
   21.1372   20.5071   23.9435 H   0  0  0  0  0  0  0  0  0  0  0  0
   19.3851   20.0020   22.7591 C   0  0  0  0  0  0  0  0  0  0  0  0
   19.2953   21.0206   22.3570 H   0  0  0  0  0  0  0  0  0  0  0  0
   18.3585   19.6485   22.9246 H   0  0  0  0  0  0  0  0  0  0  0  0
   20.0859   19.1036   21.7117 C   0  0  0  0  0  0  0  0  0  0  0  0
   21.1200   19.4462   21.5677 H   0  0  0  0  0  0  0  0  0  0  0  0
   20.1415   18.0704   22.0793 H   0  0  0  0  0  0  0  0  0  0  0  0
   19.3459   19.1189   20.3557 C   0  0  0  0  0  0  0  0  0  0  0  0
   19.2929   20.1478   19.9730 H   0  0  0  0  0  0  0  0  0  0  0  0
   18.3101   18.7786   20.4941 H   0  0  0  0  0  0  0  0  0  0  0  0
   20.0446   18.2208   19.3128 C   0  0  0  0  0  0  0  0  0  0  0  0
   19.5054   18.2450   18.3569 H   0  0  0  0  0  0  0  0  0  0  0  0
   20.0821   17.1774   19.6520 H   0  0  0  0  0  0  0  0  0  0  0  0
   21.0731   18.5573   19.1278 H   0  0  0  0  0  0  0  0  0  0  0  0
  1  2  1  0  0  0  0
  1  3  1  0  0  0  0
  1  4  1  0  0  0  0
  1  5  1  0  0  0  0
  5  6  1  0  0  0  0
  5  7  1  0  0  0  0
  5  8  1  0  0  0  0
  8  9  1  0  0  0  0
  8 10  1  0  0  0  0
  8 11  1  0  0  0  0
 11 12  1  0  0  0  0
 11 13  1  0  0  0  0
 11 14  1  0  0  0  0
 14 15  1  0  0  0  0
 14 16  1  0  0  0  0
 14 17  1  0  0  0  0
 17 18  1  0  0  0  0
 17 19  1  0  0  0  0
 17 20  1  0  0  0  0
 20 21  1  0  0  0  0
 20 22  1  0  0  0  0
 20 23  1  0  0  0  0
M  END
> <VM2 Rank>
13

> <Conf_Id>
756

> <Probability>
2.42

> <Sum Probability>
62.56

> <Delta G>
0.954

> <G>
38.870

> <E>
11.067

> <-TS>
27.803

> <U+W>
-7.712

> <U>
48.052

> <W>
-55.764

> <W(PB)>
-57.867

> <W(SA)>
2.103

> <Valence>
2.122

> <Coulomb>
45.428

> <VdW>
0.502

> <VdW6>
-5.941

> <VdW12>
6.443

> <Bond>
0.160

> <Angle>
0.629

> <Pdih>
1.333

> <Idih>
0.000

> <Tether>
0.000

$$$$
VeraChem MOL file


 23 22  0  0  0  0  0  0  0  0999 V2000     
   18.7787   19.5175   25.5464 N   0  3  0  0  0  0  0  0  0  0  0  0
   19.3240   20.3421   25.8176 H   0  0  0  0  0  0  0  0  0  0  0  0
   18.2080   19.2566   26.3577 H   0  0  0  0  0  0  0  0  0  0  0  0
   18.1324   19.8111   24.8077 H   0  0  0  0  0  0  0  0  0  0  0  0
   19.6693   18.3765   25.0946 C   0  0  0  0  0  0  0  0  0  0  0  0
   19.0300   17.5254   24.8447 H   0  0  0  0  0  0  0  0  0  0  0  0
   20.2990   18.0920   25.9420 H   0  0  0  0  0  0  0  0  0  0  0  0
   20.5630   18.7257   23.8887 C   0  0  0  0  0  0  0  0  0  0  0  0
   21.2001   19.5838   24.1414 H   0  0  0  0  0  0  0  0  0  0  0  0
   21.2373   17.8799   23.6995 H   0  0  0  0  0  0  0  0  0  0  0  0
   19.7487   19.0275   22.6081 C   0  0  0  0  0  0  0  0  0  0  0  0
   19.1003   19.8980   22.7743 H   0  0  0  0  0  0  0  0  0  0  0  0
   19.0915   18.1747   22.3923 H   0  0  0  0  0  0  0  0  0  0  0  0
   20.6700   19.3025   21.3953 C   0  0  0  0  0  0  0  0  0  0  0  0
   21.3715   20.1080   21.6532 H   0  0  0  0  0  0  0  0  0  0  0  0
   21.2826   18.4148   21.1858 H   0  0  0  0  0  0  0  0  0  0  0  0
   19.9005   19.7123   20.1162 C   0  0  0  0  0  0  0  0  0  0  0  0
   20.6283   19.9890   19.3406 H   0  0  0  0  0  0  0  0  0  0  0  0
   19.3044   20.6141   20.3137 H   0  0  0  0  0  0  0  0  0  0  0  0
   18.9858   18.5950   19.5647 C   0  0  0  0  0  0  0  0  0  0  0  0
   18.5367   18.9021   18.6113 H   0  0  0  0  0  0  0  0  0  0  0  0
   18.1657   18.3668   20.2566 H   0  0  0  0  0  0  0  0  0  0  0  0
   19.5530   17.6723   19.3864 H   0  0  0  0  0  0  0  0  0  0  0  0
  1  2  1  0  0  0  0
  1  3  1  0  0  0  0
  1  4  1  0  0  0  0
  1  5  1  0  0  0  0
  5  6  1  0  0  0  0
  5  7  1  0  0  0  0
  5  8  1  0  0  0  0
  8  9  1  0  0  0  0
  8 10  1  0  0  0  0
  8 11  1  0  0  0  0
 11 12  1  0  0  0  0
 11 13  1  0  0  0  0
 11 14  1  0  0  0  0
 14 15  1  0  0  0  0
 14 16  1  0  0  0  0
 14 17  1  0  0  0  0
 17 18  1  0  0  0  0
 17 19  1  0  0  0  0
 17 20  1  0  0  0  0
 20 21  1  0  0  0  0
 20 22  1  0  0  0  0
 20 23  1  0  0  0  0
M  END
> <VM2 Rank>
14

> <Conf_Id>
942

> <Probability>
2.41

> <Sum Probability>
64.97

> <Delta G>
0.957

> <G>
38.873

> <E>
11.139

> <-TS>
27.734

> <U+W>
-7.641

> <U>
47.955

> <W>
-55.596

> <W(PB)>
-57.737

> <W(SA)>
2.141

> <Valence>
2.340

> <Coulomb>
44.939

> <VdW>
0.676

> <VdW6>
-5.763

> <VdW12>
6.440

> <Bond>
0.168

> <Angle>
0.673

> <Pdih>
1.499

> <Idih>
0.000

> <Tether>
0.000

$$$$
VeraChem MOL file


 23 22  0  0  0  0  0  0  0  0999 V2000     
   20.8034   18.7864   25.2427 N   0  3  0  0  0  0  0  0  0  0  0  0
   21.3966   19.0867   24.4632 H   0  0  0  0  0  0  0  0  0  0  0  0
   21.3023   18.0331   25.7280 H   0  0  0  0  0  0  0  0  0  0  0  0
   20.7406   19.5732   25.8967 H   0  0  0  0  0  0  0  0  0  0  0  0
   19.4354   18.3403   24.7655 C   0  0  0  0  0  0  0  0  0  0  0  0
   18.8718   18.0032   25.6397 H   0  0  0  0  0  0  0  0  0  0  0  0
   19.5709   17.4844   24.0995 H   0  0  0  0  0  0  0  0  0  0  0  0
   18.6410   19.4458   24.0403 C   0  0  0  0  0  0  0  0  0  0  0  0
   17.6472   19.0549   23.7844 H   0  0  0  0  0  0  0  0  0  0  0  0
   18.4719   20.2802   24.7338 H   0  0  0  0  0  0  0  0  0  0  0  0
   19.3264   19.9775   22.7565 C   0  0  0  0  0  0  0  0  0  0  0  0
   20.2844   20.4496   23.0124 H   0  0  0  0  0  0  0  0  0  0  0  0
   18.6994   20.7727   22.3299 H   0  0  0  0  0  0  0  0  0  0  0  0
   19.5518   18.8815   21.6873 C   0  0  0  0  0  0  0  0  0  0  0  0
   20.2156   18.1011   22.0826 H   0  0  0  0  0  0  0  0  0  0  0  0
   18.5945   18.3959   21.4523 H   0  0  0  0  0  0  0  0  0  0  0  0
   20.1659   19.4600   20.3932 C   0  0  0  0  0  0  0  0  0  0  0  0
   21.1233   19.9484   20.6227 H   0  0  0  0  0  0  0  0  0  0  0  0
   19.5047   20.2361   19.9828 H   0  0  0  0  0  0  0  0  0  0  0  0
   20.3920   18.3655   19.3285 C   0  0  0  0  0  0  0  0  0  0  0  0
   20.8279   18.7952   18.4173 H   0  0  0  0  0  0  0  0  0  0  0  0
   19.4461   17.8810   19.0533 H   0  0  0  0  0  0  0  0  0  0  0  0
   21.0779   17.5916   19.6973 H   0  0  0  0  0  0  0  0  0  0  0  0
  1  2  1  0  0  0  0
  1  3  1  0  0  0  0
  1  4  1  0  0  0  0
  1  5  1  0  0  0  0
  5  6  1  0  0  0  0
  5  7  1  0  0  0  0
  5  8  1  0  0  0  0
  8  9  1  0  0  0  0
  8 10  1  0  0  0  0
  8 11  1  0  0  0  0
 11 12  1  0  0  0  0
 11 13  1  0  0  0  0
 11 14  1  0  0  0  0
 14 15  1  0  0  0  0
 14 16  1  0  0  0  0
 14 17  1  0  0  0  0
 17 18  1  0  0  0  0
 17 19  1  0  0  0  0
 17 20  1  0  0  0  0
 20 21  1  0  0  0  0
 20 22  1  0  0  0  0
 20 23  1  0  0  0  0
M  END
> <VM2 Rank>
15

> <Conf_Id>
478

> <Probability>
2.40

> <Sum Probability>
67.37

> <Delta G>
0.959

> <G>
38.875

> <E>
11.072

> <-TS>
27.803

> <U+W>
-7.707

> <U>
48.052

> <W>
-55.759

> <W(PB)>
-57.853

> <W(SA)>
2.094

> <Valence>
2.121

> <Coulomb>
45.428

> <VdW>
0.502

> <VdW6>
-5.941

> <VdW12>
6.443

> <Bond>
0.160

> <Angle>
0.629

> <Pdih>
1.333

> <Idih>
0.000

> <Tether>
0.000

$$$$
VeraChem MOL file


 23 22  0  0  0  0  0  0  0  0999 V2000     
   20.7805   18.5790   25.4392 N   0  3  0  0  0  0  0  0  0  0  0  0
   20.6258   17.5663   25.4754 H   0  0  0  0  0  0  0  0  0  0  0  0
   21.2049   18.8486   26.3331 H   0  0  0  0  0  0  0  0  0  0  0  0
   21.4800   18.7530   24.7113 H   0  0  0  0  0  0  0  0  0  0  0  0
   19.4936   19.3368   25.1764 C   0  0  0  0  0  0  0  0  0  0  0  0
   19.7235   20.4057   25.1739 H   0  0  0  0  0  0  0  0  0  0  0  0
   18.8151   19.1364   26.0101 H   0  0  0  0  0  0  0  0  0  0  0  0
   18.8040   18.9514   23.8531 C   0  0  0  0  0  0  0  0  0  0  0  0
   18.5812   17.8761   23.8553 H   0  0  0  0  0  0  0  0  0  0  0  0
   17.8381   19.4712   23.8016 H   0  0  0  0  0  0  0  0  0  0  0  0
   19.6494   19.3153   22.6093 C   0  0  0  0  0  0  0  0  0  0  0  0
   20.6023   18.7726   22.6431 H   0  0  0  0  0  0  0  0  0  0  0  0
   19.8897   20.3873   22.6313 H   0  0  0  0  0  0  0  0  0  0  0  0
   18.9066   18.9794   21.2937 C   0  0  0  0  0  0  0  0  0  0  0  0
   18.7078   17.8998   21.2456 H   0  0  0  0  0  0  0  0  0  0  0  0
   17.9255   19.4741   21.2986 H   0  0  0  0  0  0  0  0  0  0  0  0
   19.6719   19.4209   20.0227 C   0  0  0  0  0  0  0  0  0  0  0  0
   19.8543   20.5041   20.0560 H   0  0  0  0  0  0  0  0  0  0  0  0
   19.0318   19.2442   19.1469 H   0  0  0  0  0  0  0  0  0  0  0  0
   21.0100   18.6743   19.8196 C   0  0  0  0  0  0  0  0  0  0  0  0
   20.8588   17.5871   19.8140 H   0  0  0  0  0  0  0  0  0  0  0  0
   21.7317   18.9176   20.6091 H   0  0  0  0  0  0  0  0  0  0  0  0
   21.4643   18.9546   18.8605 H   0  0  0  0  0  0  0  0  0  0  0  0
  1  2  1  0  0  0  0
  1  3  1  0  0  0  0
  1  4  1  0  0  0  0
  1  5  1  0  0  0  0
  5  6  1  0  0  0  0
  5  7  1  0  0  0  0
  5  8  1  0  0  0  0
  8  9  1  0  0  0  0
  8 10  1  0  0  0  0
  8 11  1  0  0  0  0
 11 12  1  0  0  0  0
 11 13  1  0  0  0  0
 11 14  1  0  0  0  0
 14 15  1  0  0  0  0
 14 16  1  0  0  0  0
 14 17  1  0  0  0  0
 17 18  1  0  0  0  0
 17 19  1  0  0  0  0
 17 20  1  0  0  0  0
 20 21  1  0  0  0  0
 20 22  1  0  0  0  0
 20 23  1  0  0  0  0
M  END
> <VM2 Rank>
16

> <Conf_Id>
759

> <Probability>
2.39

> <Sum Probability>
69.76

> <Delta G>
0.960

> <G>
38.877

> <E>
11.148

> <-TS>
27.729

> <U+W>
-7.631

> <U>
48.083

> <W>
-55.714

> <W(PB)>
-57.844

> <W(SA)>
2.130

> <Valence>
2.338

> <Coulomb>
45.069

> <VdW>
0.676

> <VdW6>
-5.773

> <VdW12>
6.449

> <Bond>
0.170

> <Angle>
0.671

> <Pdih>
1.498

> <Idih>
0.000

> <Tether>
0.000

$$$$
VeraChem MOL file


 23 22  0  0  0  0  0  0  0  0999 V2000     
   19.2376   18.1912   25.6188 N   0  3  0  0  0  0  0  0  0  0  0  0
   19.0831   18.2139   26.6325 H   0  0  0  0  0  0  0  0  0  0  0  0
   19.6582   17.2823   25.4010 H   0  0  0  0  0  0  0  0  0  0  0  0
   18.3146   18.2123   25.1749 H   0  0  0  0  0  0  0  0  0  0  0  0
   20.1105   19.3418   25.1569 C   0  0  0  0  0  0  0  0  0  0  0  0
   21.0584   19.2775   25.6981 H   0  0  0  0  0  0  0  0  0  0  0  0
   19.6187   20.2761   25.4411 H   0  0  0  0  0  0  0  0  0  0  0  0
   20.3862   19.3412   23.6408 C   0  0  0  0  0  0  0  0  0  0  0  0
   21.0954   20.1490   23.4164 H   0  0  0  0  0  0  0  0  0  0  0  0
   20.8821   18.4015   23.3671 H   0  0  0  0  0  0  0  0  0  0  0  0
   19.0990   19.5399   22.8020 C   0  0  0  0  0  0  0  0  0  0  0  0
   18.5682   20.4296   23.1686 H   0  0  0  0  0  0  0  0  0  0  0  0
   18.4183   18.6907   22.9492 H   0  0  0  0  0  0  0  0  0  0  0  0
   19.3709   19.7200   21.2882 C   0  0  0  0  0  0  0  0  0  0  0  0
   18.4226   19.9665   20.7908 H   0  0  0  0  0  0  0  0  0  0  0  0
   20.0331   20.5829   21.1326 H   0  0  0  0  0  0  0  0  0  0  0  0
   19.9803   18.4669   20.6159 C   0  0  0  0  0  0  0  0  0  0  0  0
   19.3436   17.5932   20.8130 H   0  0  0  0  0  0  0  0  0  0  0  0
   20.9659   18.2467   21.0469 H   0  0  0  0  0  0  0  0  0  0  0  0
   20.1315   18.6558   19.0914 C   0  0  0  0  0  0  0  0  0  0  0  0
   20.5674   17.7596   18.6311 H   0  0  0  0  0  0  0  0  0  0  0  0
   20.7880   19.5054   18.8624 H   0  0  0  0  0  0  0  0  0  0  0  0
   19.1583   18.8381   18.6172 H   0  0  0  0  0  0  0  0  0  0  0  0
  1  2  1  0  0  0  0
  1  3  1  0  0  0  0
  1  4  1  0  0  0  0
  1  5  1  0  0  0  0
  5  6  1  0  0  0  0
  5  7  1  0  0  0  0
  5  8  1  0  0  0  0
  8  9  1  0  0  0  0
  8 10  1  0  0  0  0
  8 11  1  0  0  0  0
 11 12  1  0  0  0  0
 11 13  1  0  0  0  0
 11 14  1  0  0  0  0
 14 15  1  0  0  0  0
 14 16  1  0  0  0  0
 14 17  1  0  0  0  0
 17 18  1  0  0  0  0
 17 19  1  0  0  0  0
 17 20  1  0  0  0  0
 20 21  1  0  0  0  0
 20 22  1  0  0  0  0
 20 23  1  0  0  0  0
M  END
> <VM2 Rank>
17

> <Conf_Id>
297

> <Probability>
2.27

> <Sum Probability>
72.03

> <Delta G>
0.992

> <G>
38.909

> <E>
11.177

> <-TS>
27.732

> <U+W>
-7.602

> <U>
48.113

> <W>
-55.716

> <W(PB)>
-57.835

> <W(SA)>
2.119

> <Valence>
2.372

> <Coulomb>
45.091

> <VdW>
0.651

> <VdW6>
-5.797

> <VdW12>
6.447

> <Bond>
0.172

> <Angle>
0.675

> <Pdih>
1.524

> <Idih>
0.000

> <Tether>
0.000

$$$$
VeraChem MOL file


 23 22  0  0  0  0  0  0  0  0999 V2000     
   19.4673   18.5297   25.9104 N   0  3  0  0  0  0  0  0  0  0  0  0
   19.2267   18.8159   26.8655 H   0  0  0  0  0  0  0  0  0  0  0  0
   20.2116   17.8291   25.9873 H   0  0  0  0  0  0  0  0  0  0  0  0
   18.6448   18.0567   25.5240 H   0  0  0  0  0  0  0  0  0  0  0  0
   19.8904   19.7109   25.0588 C   0  0  0  0  0  0  0  0  0  0  0  0
   20.7412   20.1870   25.5538 H   0  0  0  0  0  0  0  0  0  0  0  0
   19.0648   20.4274   25.0372 H   0  0  0  0  0  0  0  0  0  0  0  0
   20.2858   19.3312   23.6184 C   0  0  0  0  0  0  0  0  0  0  0  0
   20.6851   20.2288   23.1303 H   0  0  0  0  0  0  0  0  0  0  0  0
   21.1023   18.5974   23.6443 H   0  0  0  0  0  0  0  0  0  0  0  0
   19.0948   18.7731   22.7991 C   0  0  0  0  0  0  0  0  0  0  0  0
   18.2922   19.5224   22.7554 H   0  0  0  0  0  0  0  0  0  0  0  0
   18.6742   17.9005   23.3160 H   0  0  0  0  0  0  0  0  0  0  0  0
   19.4800   18.3419   21.3623 C   0  0  0  0  0  0  0  0  0  0  0  0
   20.2784   17.5882   21.4053 H   0  0  0  0  0  0  0  0  0  0  0  0
   18.6131   17.8456   20.9046 H   0  0  0  0  0  0  0  0  0  0  0  0
   19.9198   19.5172   20.4572 C   0  0  0  0  0  0  0  0  0  0  0  0
   20.8351   19.9784   20.8508 H   0  0  0  0  0  0  0  0  0  0  0  0
   19.1445   20.2961   20.4572 H   0  0  0  0  0  0  0  0  0  0  0  0
   20.1779   19.0531   19.0078 C   0  0  0  0  0  0  0  0  0  0  0  0
   19.2712   18.6224   18.5632 H   0  0  0  0  0  0  0  0  0  0  0  0
   20.9702   18.2940   18.9718 H   0  0  0  0  0  0  0  0  0  0  0  0
   20.4917   19.8975   18.3804 H   0  0  0  0  0  0  0  0  0  0  0  0
  1  2  1  0  0  0  0
  1  3  1  0  0  0  0
  1  4  1  0  0  0  0
  1  5  1  0  0  0  0
  5  6  1  0  0  0  0
  5  7  1  0  0  0  0
  5  8  1  0  0  0  0
  8  9  1  0  0  0  0
  8 10  1  0  0  0  0
  8 11  1  0  0  0  0
 11 12  1  0  0  0  0
 11 13  1  0  0  0  0
 11 14  1  0  0  0  0
 14 15  1  0  0  0  0
 14 16  1  0  0  0  0
 14 17  1  0  0  0  0
 17 18  1  0  0  0  0
 17 19  1  0  0  0  0
 17 20  1  0  0  0  0
 20 21  1  0  0  0  0
 20 22  1  0  0  0  0
 20 23  1  0  0  0  0
M  END
> <VM2 Rank>
18

> <Conf_Id>
839

> <Probability>
1.98

> <Sum Probability>
74.01

> <Delta G>
1.074

> <G>
38.990

> <E>
11.290

> <-TS>
27.700

> <U+W>
-7.489

> <U>
48.041

> <W>
-55.530

> <W(PB)>
-57.678

> <W(SA)>
2.148

> <Valence>
2.405

> <Coulomb>
44.931

> <VdW>
0.705

> <VdW6>
-5.756

> <VdW12>
6.460

> <Bond>
0.178

> <Angle>
0.724

> <Pdih>
1.504

> <Idih>
0.000

> <Tether>
0.000

$$$$
VeraChem MOL file


 23 22  0  0  0  0  0  0  0  0999 V2000     
   20.0669   18.7790   25.9377 N   0  3  0  0  0  0  0  0  0  0  0  0
   21.0090   19.0400   25.6317 H   0  0  0  0  0  0  0  0  0  0  0  0
   20.0343   17.7553   25.9792 H   0  0  0  0  0  0  0  0  0  0  0  0
   19.9591   19.1204   26.8989 H   0  0  0  0  0  0  0  0  0  0  0  0
   18.9997   19.3404   25.0183 C   0  0  0  0  0  0  0  0  0  0  0  0
   19.0737   20.4310   25.0377 H   0  0  0  0  0  0  0  0  0  0  0  0
   18.0269   19.0580   25.4301 H   0  0  0  0  0  0  0  0  0  0  0  0
   19.1026   18.8391   23.5645 C   0  0  0  0  0  0  0  0  0  0  0  0
   19.0470   17.7425   23.5505 H   0  0  0  0  0  0  0  0  0  0  0  0
   18.2247   19.2054   23.0182 H   0  0  0  0  0  0  0  0  0  0  0  0
   20.3972   19.3150   22.8584 C   0  0  0  0  0  0  0  0  0  0  0  0
   21.2703   18.9806   23.4343 H   0  0  0  0  0  0  0  0  0  0  0  0
   20.4336   20.4133   22.8529 H   0  0  0  0  0  0  0  0  0  0  0  0
   20.5437   18.7844   21.4108 C   0  0  0  0  0  0  0  0  0  0  0  0
   21.5391   19.0629   21.0379 H   0  0  0  0  0  0  0  0  0  0  0  0
   20.5136   17.6860   21.4161 H   0  0  0  0  0  0  0  0  0  0  0  0
   19.4731   19.3313   20.4368 C   0  0  0  0  0  0  0  0  0  0  0  0
   19.4656   20.4297   20.4718 H   0  0  0  0  0  0  0  0  0  0  0  0
   18.4735   18.9958   20.7432 H   0  0  0  0  0  0  0  0  0  0  0  0
   19.7329   18.8679   18.9875 C   0  0  0  0  0  0  0  0  0  0  0  0
   18.9634   19.2616   18.3108 H   0  0  0  0  0  0  0  0  0  0  0  0
   19.7170   17.7726   18.9147 H   0  0  0  0  0  0  0  0  0  0  0  0
   20.7087   19.2203   18.6287 H   0  0  0  0  0  0  0  0  0  0  0  0
  1  2  1  0  0  0  0
  1  3  1  0  0  0  0
  1  4  1  0  0  0  0
  1  5  1  0  0  0  0
  5  6  1  0  0  0  0
  5  7  1  0  0  0  0
  5  8  1  0  0  0  0
  8  9  1  0  0  0  0
  8 10  1  0  0  0  0
  8 11  1  0  0  0  0
 11 12  1  0  0  0  0
 11 13  1  0  0  0  0
 11 14  1  0  0  0  0
 14 15  1  0  0  0  0
 14 16  1  0  0  0  0
 14 17  1  0  0  0  0
 17 18  1  0  0  0  0
 17 19  1  0  0  0  0
 17 20  1  0  0  0  0
 20 21  1  0  0  0  0
 20 22  1  0  0  0  0
 20 23  1  0  0  0  0
M  END
> <VM2 Rank>
19

> <Conf_Id>
978

> <Probability>
1.96

> <Sum Probability>
75.97

> <Delta G>
1.081

> <G>
38.997

> <E>
11.297

> <-TS>
27.699

> <U+W>
-7.482

> <U>
48.041

> <W>
-55.523

> <W(PB)>
-57.654

> <W(SA)>
2.131

> <Valence>
2.405

> <Coulomb>
44.931

> <VdW>
0.705

> <VdW6>
-5.756

> <VdW12>
6.460

> <Bond>
0.178

> <Angle>
0.724

> <Pdih>
1.504

> <Idih>
0.000

> <Tether>
0.000

$$$$
VeraChem MOL file


 23 22  0  0  0  0  0  0  0  0999 V2000     
   19.9813   18.5645   26.0724 N   0  3  0  0  0  0  0  0  0  0  0  0
   19.0525   18.5668   26.5061 H   0  0  0  0  0  0  0  0  0  0  0  0
   20.4516   19.4279   26.3626 H   0  0  0  0  0  0  0  0  0  0  0  0
   20.5030   17.7862   26.4897 H   0  0  0  0  0  0  0  0  0  0  0  0
   19.9007   18.4440   24.5642 C   0  0  0  0  0  0  0  0  0  0  0  0
   19.4168   17.4927   24.3268 H   0  0  0  0  0  0  0  0  0  0  0  0
   20.9217   18.4173   24.1749 H   0  0  0  0  0  0  0  0  0  0  0  0
   19.1222   19.5993   23.9070 C   0  0  0  0  0  0  0  0  0  0  0  0
   18.1124   19.6421   24.3364 H   0  0  0  0  0  0  0  0  0  0  0  0
   19.6067   20.5550   24.1477 H   0  0  0  0  0  0  0  0  0  0  0  0
   19.0094   19.4451   22.3720 C   0  0  0  0  0  0  0  0  0  0  0  0
   18.3751   20.2531   21.9819 H   0  0  0  0  0  0  0  0  0  0  0  0
   18.4921   18.5040   22.1430 H   0  0  0  0  0  0  0  0  0  0  0  0
   20.3836   19.4850   21.6568 C   0  0  0  0  0  0  0  0  0  0  0  0
   20.9292   20.3833   21.9773 H   0  0  0  0  0  0  0  0  0  0  0  0
   20.9944   18.6254   21.9636 H   0  0  0  0  0  0  0  0  0  0  0  0
   20.2716   19.5032   20.1132 C   0  0  0  0  0  0  0  0  0  0  0  0
   21.2765   19.6345   19.6879 H   0  0  0  0  0  0  0  0  0  0  0  0
   19.6862   20.3764   19.7929 H   0  0  0  0  0  0  0  0  0  0  0  0
   19.6472   18.2159   19.5284 C   0  0  0  0  0  0  0  0  0  0  0  0
   19.6719   18.2411   18.4312 H   0  0  0  0  0  0  0  0  0  0  0  0
   18.5991   18.1024   19.8318 H   0  0  0  0  0  0  0  0  0  0  0  0
   20.1989   17.3252   19.8560 H   0  0  0  0  0  0  0  0  0  0  0  0
  1  2  1  0  0  0  0
  1  3  1  0  0  0  0
  1  4  1  0  0  0  0
  1  5  1  0  0  0  0
  5  6  1  0  0  0  0
  5  7  1  0  0  0  0
  5  8  1  0  0  0  0
  8  9  1  0  0  0  0
  8 10  1  0  0  0  0
  8 11  1  0  0  0  0
 11 12  1  0  0  0  0
 11 13  1  0  0  0  0
 11 14  1  0  0  0  0
 14 15  1  0  0  0  0
 14 16  1  0  0  0  0
 14 17  1  0  0  0  0
 17 18  1  0  0  0  0
 17 19  1  0  0  0  0
 17 20  1  0  0  0  0
 20 21  1  0  0  0  0
 20 22  1  0  0  0  0
 20 23  1  0  0  0  0
M  END
> <VM2 Rank>
20

> <Conf_Id>
729

> <Probability>
1.87

> <Sum Probability>
77.83

> <Delta G>
1.108

> <G>
39.025

> <E>
11.287

> <-TS>
27.737

> <U+W>
-7.492

> <U>
47.960

> <W>
-55.452

> <W(PB)>
-57.573

> <W(SA)>
2.121

> <Valence>
2.523

> <Coulomb>
44.824

> <VdW>
0.613

> <VdW6>
-5.844

> <VdW12>
6.458

> <Bond>
0.171

> <Angle>
0.728

> <Pdih>
1.624

> <Idih>
0.000

> <Tether>
0.000

$$$$
VeraChem MOL file


 23 22  0  0  0  0  0  0  0  0999 V2000     
   19.6685   18.4346   26.0582 N   0  3  0  0  0  0  0  0  0  0  0  0
   20.2855   19.0796   26.5624 H   0  0  0  0  0  0  0  0  0  0  0  0
   19.8206   17.5027   26.4586 H   0  0  0  0  0  0  0  0  0  0  0  0
   18.7047   18.7018   26.2829 H   0  0  0  0  0  0  0  0  0  0  0  0
   19.9276   18.4551   24.5654 C   0  0  0  0  0  0  0  0  0  0  0  0
   19.2597   17.7262   24.0991 H   0  0  0  0  0  0  0  0  0  0  0  0
   20.9590   18.1339   24.3972 H   0  0  0  0  0  0  0  0  0  0  0  0
   19.7075   19.8426   23.9337 C   0  0  0  0  0  0  0  0  0  0  0  0
   18.6723   20.1664   24.1051 H   0  0  0  0  0  0  0  0  0  0  0  0
   20.3531   20.5737   24.4385 H   0  0  0  0  0  0  0  0  0  0  0  0
   20.0150   19.8632   22.4178 C   0  0  0  0  0  0  0  0  0  0  0  0
   21.0621   19.5724   22.2601 H   0  0  0  0  0  0  0  0  0  0  0  0
   19.9188   20.8948   22.0522 H   0  0  0  0  0  0  0  0  0  0  0  0
   19.0772   18.9417   21.5973 C   0  0  0  0  0  0  0  0  0  0  0  0
   19.2329   17.8929   21.8833 H   0  0  0  0  0  0  0  0  0  0  0  0
   18.0335   19.1792   21.8454 H   0  0  0  0  0  0  0  0  0  0  0  0
   19.2626   19.0837   20.0672 C   0  0  0  0  0  0  0  0  0  0  0  0
   19.0804   20.1246   19.7653 H   0  0  0  0  0  0  0  0  0  0  0  0
   18.4971   18.4788   19.5613 H   0  0  0  0  0  0  0  0  0  0  0  0
   20.6575   18.6361   19.5743 C   0  0  0  0  0  0  0  0  0  0  0  0
   20.7074   18.6717   18.4784 H   0  0  0  0  0  0  0  0  0  0  0  0
   20.8752   17.6065   19.8867 H   0  0  0  0  0  0  0  0  0  0  0  0
   21.4503   19.2880   19.9616 H   0  0  0  0  0  0  0  0  0  0  0  0
  1  2  1  0  0  0  0
  1  3  1  0  0  0  0
  1  4  1  0  0  0  0
  1  5  1  0  0  0  0
  5  6  1  0  0  0  0
  5  7  1  0  0  0  0
  5  8  1  0  0  0  0
  8  9  1  0  0  0  0
  8 10  1  0  0  0  0
  8 11  1  0  0  0  0
 11 12  1  0  0  0  0
 11 13  1  0  0  0  0
 11 14  1  0  0  0  0
 14 15  1  0  0  0  0
 14 16  1  0  0  0  0
 14 17  1  0  0  0  0
 17 18  1  0  0  0  0
 17 19  1  0  0  0  0
 17 20  1  0  0  0  0
 20 21  1  0  0  0  0
 20 22  1  0  0  0  0
 20 23  1  0  0  0  0
M  END
> <VM2 Rank>
21

> <Conf_Id>
1137

> <Probability>
1.86

> <Sum Probability>
79.69

> <Delta G>
1.110

> <G>
39.026

> <E>
11.289

> <-TS>
27.737

> <U+W>
-7.490

> <U>
47.960

> <W>
-55.450

> <W(PB)>
-57.583

> <W(SA)>
2.133

> <Valence>
2.523

> <Coulomb>
44.824

> <VdW>
0.613

> <VdW6>
-5.844

> <VdW12>
6.458

> <Bond>
0.171

> <Angle>
0.728

> <Pdih>
1.624

> <Idih>
0.000

> <Tether>
0.000

$$$$
VeraChem MOL file


 23 22  0  0  0  0  0  0  0  0999 V2000     
   19.9355   19.0089   26.1816 N   0  3  0  0  0  0  0  0  0  0  0  0
   20.1653   19.8033   26.7884 H   0  0  0  0  0  0  0  0  0  0  0  0
   20.7039   18.3359   26.2680 H   0  0  0  0  0  0  0  0  0  0  0  0
   19.1001   18.5648   26.5763 H   0  0  0  0  0  0  0  0  0  0  0  0
   19.7210   19.4410   24.7453 C   0  0  0  0  0  0  0  0  0  0  0  0
   20.6361   19.9308   24.4029 H   0  0  0  0  0  0  0  0  0  0  0  0
   18.9113   20.1756   24.7312 H   0  0  0  0  0  0  0  0  0  0  0  0
   19.3734   18.2688   23.8081 C   0  0  0  0  0  0  0  0  0  0  0  0
   20.1869   17.5312   23.8211 H   0  0  0  0  0  0  0  0  0  0  0  0
   18.4800   17.7579   24.1912 H   0  0  0  0  0  0  0  0  0  0  0  0
   19.1057   18.7222   22.3533 C   0  0  0  0  0  0  0  0  0  0  0  0
   18.2850   19.4528   22.3424 H   0  0  0  0  0  0  0  0  0  0  0  0
   18.7562   17.8527   21.7817 H   0  0  0  0  0  0  0  0  0  0  0  0
   20.3555   19.3284   21.6655 C   0  0  0  0  0  0  0  0  0  0  0  0
   20.7191   20.1830   22.2511 H   0  0  0  0  0  0  0  0  0  0  0  0
   21.1692   18.5901   21.6583 H   0  0  0  0  0  0  0  0  0  0  0  0
   20.0880   19.8149   20.2204 C   0  0  0  0  0  0  0  0  0  0  0  0
   20.9847   20.3328   19.8520 H   0  0  0  0  0  0  0  0  0  0  0  0
   19.2817   20.5617   20.2227 H   0  0  0  0  0  0  0  0  0  0  0  0
   19.7368   18.6728   19.2399 C   0  0  0  0  0  0  0  0  0  0  0  0
   20.5127   17.8962   19.2437 H   0  0  0  0  0  0  0  0  0  0  0  0
   19.6536   19.0584   18.2155 H   0  0  0  0  0  0  0  0  0  0  0  0
   18.7783   18.2032   19.4931 H   0  0  0  0  0  0  0  0  0  0  0  0
  1  2  1  0  0  0  0
  1  3  1  0  0  0  0
  1  4  1  0  0  0  0
  1  5  1  0  0  0  0
  5  6  1  0  0  0  0
  5  7  1  0  0  0  0
  5  8  1  0  0  0  0
  8  9  1  0  0  0  0
  8 10  1  0  0  0  0
  8 11  1  0  0  0  0
 11 12  1  0  0  0  0
 11 13  1  0  0  0  0
 11 14  1  0  0  0  0
 14 15  1  0  0  0  0
 14 16  1  0  0  0  0
 14 17  1  0  0  0  0
 17 18  1  0  0  0  0
 17 19  1  0  0  0  0
 17 20  1  0  0  0  0
 20 21  1  0  0  0  0
 20 22  1  0  0  0  0
 20 23  1  0  0  0  0
M  END
> <VM2 Rank>
22

> <Conf_Id>
139

> <Probability>
1.72

> <Sum Probability>
81.42

> <Delta G>
1.156

> <G>
39.072

> <E>
11.368

> <-TS>
27.705

> <U+W>
-7.412

> <U>
48.047

> <W>
-55.459

> <W(PB)>
-57.597

> <W(SA)>
2.138

> <Valence>
2.583

> <Coulomb>
44.791

> <VdW>
0.673

> <VdW6>
-5.789

> <VdW12>
6.462

> <Bond>
0.177

> <Angle>
0.787

> <Pdih>
1.619

> <Idih>
0.000

> <Tether>
0.000

$$$$
VeraChem MOL file


 23 22  0  0  0  0  0  0  0  0999 V2000     
   19.9326   17.9510   25.5929 N   0  3  0  0  0  0  0  0  0  0  0  0
   19.3934   17.1294   25.3013 H   0  0  0  0  0  0  0  0  0  0  0  0
   19.3980   18.4150   26.3343 H   0  0  0  0  0  0  0  0  0  0  0  0
   20.7969   17.6035   26.0221 H   0  0  0  0  0  0  0  0  0  0  0  0
   20.2158   18.8831   24.4325 C   0  0  0  0  0  0  0  0  0  0  0  0
   20.8109   18.3338   23.6982 H   0  0  0  0  0  0  0  0  0  0  0  0
   20.8151   19.7171   24.8073 H   0  0  0  0  0  0  0  0  0  0  0  0
   18.9368   19.4229   23.7653 C   0  0  0  0  0  0  0  0  0  0  0  0
   18.3291   18.5859   23.3984 H   0  0  0  0  0  0  0  0  0  0  0  0
   18.3275   19.9364   24.5209 H   0  0  0  0  0  0  0  0  0  0  0  0
   19.2345   20.4103   22.6094 C   0  0  0  0  0  0  0  0  0  0  0  0
   19.7239   21.3033   23.0222 H   0  0  0  0  0  0  0  0  0  0  0  0
   18.2832   20.7577   22.1832 H   0  0  0  0  0  0  0  0  0  0  0  0
   20.1214   19.8382   21.4730 C   0  0  0  0  0  0  0  0  0  0  0  0
   20.2846   20.6309   20.7298 H   0  0  0  0  0  0  0  0  0  0  0  0
   21.1152   19.5823   21.8642 H   0  0  0  0  0  0  0  0  0  0  0  0
   19.5059   18.6070   20.7670 C   0  0  0  0  0  0  0  0  0  0  0  0
   18.4943   18.8496   20.4128 H   0  0  0  0  0  0  0  0  0  0  0  0
   19.4044   17.7749   21.4764 H   0  0  0  0  0  0  0  0  0  0  0  0
   20.3690   18.1446   19.5738 C   0  0  0  0  0  0  0  0  0  0  0  0
   19.9198   17.2694   19.0867 H   0  0  0  0  0  0  0  0  0  0  0  0
   21.3790   17.8661   19.9020 H   0  0  0  0  0  0  0  0  0  0  0  0
   20.4607   18.9385   18.8212 H   0  0  0  0  0  0  0  0  0  0  0  0
  1  2  1  0  0  0  0
  1  3  1  0  0  0  0
  1  4  1  0  0  0  0
  1  5  1  0  0  0  0
  5  6  1  0  0  0  0
  5  7  1  0  0  0  0
  5  8  1  0  0  0  0
  8  9  1  0  0  0  0
  8 10  1  0  0  0  0
  8 11  1  0  0  0  0
 11 12  1  0  0  0  0
 11 13  1  0  0  0  0
 11 14  1  0  0  0  0
 14 15  1  0  0  0  0
 14 16  1  0  0  0  0
 14 17  1  0  0  0  0
 17 18  1  0  0  0  0
 17 19  1  0  0  0  0
 17 20  1  0  0  0  0
 20 21  1  0  0  0  0
 20 22  1  0  0  0  0
 20 23  1  0  0  0  0
M  END
> <VM2 Rank>
23

> <Conf_Id>
750

> <Probability>
1.72

> <Sum Probability>
83.13

> <Delta G>
1.158

> <G>
39.074

> <E>
11.222

> <-TS>
27.852

> <U+W>
-7.557

> <U>
48.231

> <W>
-55.788

> <W(PB)>
-57.904

> <W(SA)>
2.116

> <Valence>
2.496

> <Coulomb>
45.257

> <VdW>
0.478

> <VdW6>
-6.161

> <VdW12>
6.639

> <Bond>
0.180

> <Angle>
0.891

> <Pdih>
1.425

> <Idih>
0.000

> <Tether>
0.000

$$$$
VeraChem MOL file


 23 22  0  0  0  0  0  0  0  0999 V2000     
   20.1746   18.0516   25.6039 N   0  3  0  0  0  0  0  0  0  0  0  0
   21.1574   17.8634   25.3819 H   0  0  0  0  0  0  0  0  0  0  0  0
   19.7807   17.1806   25.9756 H   0  0  0  0  0  0  0  0  0  0  0  0
   20.1635   18.7335   26.3692 H   0  0  0  0  0  0  0  0  0  0  0  0
   19.4060   18.5461   24.3954 C   0  0  0  0  0  0  0  0  0  0  0  0
   18.3656   18.6979   24.6954 H   0  0  0  0  0  0  0  0  0  0  0  0
   19.4343   17.7610   23.6353 H   0  0  0  0  0  0  0  0  0  0  0  0
   19.9732   19.8540   23.8126 C   0  0  0  0  0  0  0  0  0  0  0  0
   19.9786   20.6233   24.5962 H   0  0  0  0  0  0  0  0  0  0  0  0
   21.0208   19.7058   23.5211 H   0  0  0  0  0  0  0  0  0  0  0  0
   19.1548   20.3772   22.6057 C   0  0  0  0  0  0  0  0  0  0  0  0
   19.6096   21.3096   22.2437 H   0  0  0  0  0  0  0  0  0  0  0  0
   18.1470   20.6473   22.9504 H   0  0  0  0  0  0  0  0  0  0  0  0
   19.0255   19.3824   21.4231 C   0  0  0  0  0  0  0  0  0  0  0  0
   18.4786   18.4856   21.7440 H   0  0  0  0  0  0  0  0  0  0  0  0
   18.4074   19.8500   20.6442 H   0  0  0  0  0  0  0  0  0  0  0  0
   20.3839   18.9723   20.8071 C   0  0  0  0  0  0  0  0  0  0  0  0
   20.9893   18.4343   21.5488 H   0  0  0  0  0  0  0  0  0  0  0  0
   20.9498   19.8711   20.5247 H   0  0  0  0  0  0  0  0  0  0  0  0
   20.1980   18.0734   19.5662 C   0  0  0  0  0  0  0  0  0  0  0  0
   19.6607   17.1514   19.8238 H   0  0  0  0  0  0  0  0  0  0  0  0
   21.1708   17.7897   19.1439 H   0  0  0  0  0  0  0  0  0  0  0  0
   19.6300   18.5929   18.7834 H   0  0  0  0  0  0  0  0  0  0  0  0
  1  2  1  0  0  0  0
  1  3  1  0  0  0  0
  1  4  1  0  0  0  0
  1  5  1  0  0  0  0
  5  6  1  0  0  0  0
  5  7  1  0  0  0  0
  5  8  1  0  0  0  0
  8  9  1  0  0  0  0
  8 10  1  0  0  0  0
  8 11  1  0  0  0  0
 11 12  1  0  0  0  0
 11 13  1  0  0  0  0
 11 14  1  0  0  0  0
 14 15  1  0  0  0  0
 14 16  1  0  0  0  0
 14 17  1  0  0  0  0
 17 18  1  0  0  0  0
 17 19  1  0  0  0  0
 17 20  1  0  0  0  0
 20 21  1  0  0  0  0
 20 22  1  0  0  0  0
 20 23  1  0  0  0  0
M  END
> <VM2 Rank>
24

> <Conf_Id>
716

> <Probability>
1.66

> <Sum Probability>
84.79

> <Delta G>
1.179

> <G>
39.095

> <E>
11.243

> <-TS>
27.852

> <U+W>
-7.536

> <U>
48.231

> <W>
-55.766

> <W(PB)>
-57.888

> <W(SA)>
2.121

> <Valence>
2.496

> <Coulomb>
45.257

> <VdW>
0.479

> <VdW6>
-6.161

> <VdW12>
6.640

> <Bond>
0.180

> <Angle>
0.891

> <Pdih>
1.425

> <Idih>
0.000

> <Tether>
0.000

$$$$
VeraChem MOL file


 23 22  0  0  0  0  0  0  0  0999 V2000     
   19.3780   18.7770   26.1562 N   0  3  0  0  0  0  0  0  0  0  0  0
   18.6071   19.1551   26.7174 H   0  0  0  0  0  0  0  0  0  0  0  0
   20.2482   19.0426   26.6286 H   0  0  0  0  0  0  0  0  0  0  0  0
   19.3084   17.7554   26.2045 H   0  0  0  0  0  0  0  0  0  0  0  0
   19.3339   19.2799   24.7276 C   0  0  0  0  0  0  0  0  0  0  0  0
   19.3833   20.3719   24.7525 H   0  0  0  0  0  0  0  0  0  0  0  0
   18.3713   18.9885   24.2997 H   0  0  0  0  0  0  0  0  0  0  0  0
   20.4804   18.7292   23.8585 C   0  0  0  0  0  0  0  0  0  0  0  0
   21.4396   18.9889   24.3261 H   0  0  0  0  0  0  0  0  0  0  0  0
   20.4306   17.6325   23.8322 H   0  0  0  0  0  0  0  0  0  0  0  0
   20.4603   19.2856   22.4150 C   0  0  0  0  0  0  0  0  0  0  0  0
   21.3655   18.9379   21.9006 H   0  0  0  0  0  0  0  0  0  0  0  0
   20.5202   20.3824   22.4443 H   0  0  0  0  0  0  0  0  0  0  0  0
   19.2071   18.8509   21.6131 C   0  0  0  0  0  0  0  0  0  0  0  0
   19.1589   17.7542   21.5668 H   0  0  0  0  0  0  0  0  0  0  0  0
   18.3015   19.1778   22.1409 H   0  0  0  0  0  0  0  0  0  0  0  0
   19.1626   19.4301   20.1782 C   0  0  0  0  0  0  0  0  0  0  0  0
   19.2000   20.5277   20.2189 H   0  0  0  0  0  0  0  0  0  0  0  0
   18.1951   19.1727   19.7248 H   0  0  0  0  0  0  0  0  0  0  0  0
   20.2937   18.9043   19.2653 C   0  0  0  0  0  0  0  0  0  0  0  0
   20.2983   17.8070   19.2340 H   0  0  0  0  0  0  0  0  0  0  0  0
   21.2794   19.2432   19.6071 H   0  0  0  0  0  0  0  0  0  0  0  0
   20.1586   19.2683   18.2385 H   0  0  0  0  0  0  0  0  0  0  0  0
  1  2  1  0  0  0  0
  1  3  1  0  0  0  0
  1  4  1  0  0  0  0
  1  5  1  0  0  0  0
  5  6  1  0  0  0  0
  5  7  1  0  0  0  0
  5  8  1  0  0  0  0
  8  9  1  0  0  0  0
  8 10  1  0  0  0  0
  8 11  1  0  0  0  0
 11 12  1  0  0  0  0
 11 13  1  0  0  0  0
 11 14  1  0  0  0  0
 14 15  1  0  0  0  0
 14 16  1  0  0  0  0
 14 17  1  0  0  0  0
 17 18  1  0  0  0  0
 17 19  1  0  0  0  0
 17 20  1  0  0  0  0
 20 21  1  0  0  0  0
 20 22  1  0  0  0  0
 20 23  1  0  0  0  0
M  END
> <VM2 Rank>
25

> <Conf_Id>
188

> <Probability>
1.63

> <Sum Probability>
86.43

> <Delta G>
1.188

> <G>
39.104

> <E>
11.399

> <-TS>
27.705

> <U+W>
-7.380

> <U>
48.047

> <W>
-55.426

> <W(PB)>
-57.542

> <W(SA)>
2.116

> <Valence>
2.583

> <Coulomb>
44.791

> <VdW>
0.673

> <VdW6>
-5.789

> <VdW12>
6.462

> <Bond>
0.177

> <Angle>
0.787

> <Pdih>
1.619

> <Idih>
0.000

> <Tether>
0.000

$$$$
VeraChem MOL file


 23 22  0  0  0  0  0  0  0  0999 V2000     
   20.0523   18.2282   25.8962 N   0  3  0  0  0  0  0  0  0  0  0  0
   19.1173   17.8498   26.0790 H   0  0  0  0  0  0  0  0  0  0  0  0
   20.4194   18.5617   26.7940 H   0  0  0  0  0  0  0  0  0  0  0  0
   20.6440   17.4432   25.6056 H   0  0  0  0  0  0  0  0  0  0  0  0
   20.0229   19.3298   24.8563 C   0  0  0  0  0  0  0  0  0  0  0  0
   21.0424   19.7053   24.7333 H   0  0  0  0  0  0  0  0  0  0  0  0
   19.4017   20.1423   25.2430 H   0  0  0  0  0  0  0  0  0  0  0  0
   19.4758   18.8620   23.4961 C   0  0  0  0  0  0  0  0  0  0  0  0
   20.0958   18.0354   23.1267 H   0  0  0  0  0  0  0  0  0  0  0  0
   18.4579   18.4712   23.6266 H   0  0  0  0  0  0  0  0  0  0  0  0
   19.4622   20.0165   22.4670 C   0  0  0  0  0  0  0  0  0  0  0  0
   20.4851   20.3819   22.3052 H   0  0  0  0  0  0  0  0  0  0  0  0
   18.9030   20.8633   22.8886 H   0  0  0  0  0  0  0  0  0  0  0  0
   18.8163   19.6319   21.1107 C   0  0  0  0  0  0  0  0  0  0  0  0
   17.7607   19.3765   21.2774 H   0  0  0  0  0  0  0  0  0  0  0  0
   18.8115   20.5167   20.4593 H   0  0  0  0  0  0  0  0  0  0  0  0
   19.5003   18.4611   20.3593 C   0  0  0  0  0  0  0  0  0  0  0  0
   18.9559   18.2824   19.4215 H   0  0  0  0  0  0  0  0  0  0  0  0
   19.4101   17.5330   20.9394 H   0  0  0  0  0  0  0  0  0  0  0  0
   20.9863   18.7275   20.0284 C   0  0  0  0  0  0  0  0  0  0  0  0
   21.5950   18.7960   20.9386 H   0  0  0  0  0  0  0  0  0  0  0  0
   21.1036   19.6618   19.4644 H   0  0  0  0  0  0  0  0  0  0  0  0
   21.3963   17.9127   19.4176 H   0  0  0  0  0  0  0  0  0  0  0  0
  1  2  1  0  0  0  0
  1  3  1  0  0  0  0
  1  4  1  0  0  0  0
  1  5  1  0  0  0  0
  5  6  1  0  0  0  0
  5  7  1  0  0  0  0
  5  8  1  0  0  0  0
  8  9  1  0  0  0  0
  8 10  1  0  0  0  0
  8 11  1  0  0  0  0
 11 12  1  0  0  0  0
 11 13  1  0  0  0  0
 11 14  1  0  0  0  0
 14 15  1  0  0  0  0
 14 16  1  0  0  0  0
 14 17  1  0  0  0  0
 17 18  1  0  0  0  0
 17 19  1  0  0  0  0
 17 20  1  0  0  0  0
 20 21  1  0  0  0  0
 20 22  1  0  0  0  0
 20 23  1  0  0  0  0
M  END
> <VM2 Rank>
26

> <Conf_Id>
518

> <Probability>
1.50

> <Sum Probability>
87.92

> <Delta G>
1.241

> <G>
39.157

> <E>
11.211

> <-TS>
27.946

> <U+W>
-7.568

> <U>
48.054

> <W>
-55.621

> <W(PB)>
-57.725

> <W(SA)>
2.103

> <Valence>
2.692

> <Coulomb>
44.814

> <VdW>
0.547

> <VdW6>
-6.176

> <VdW12>
6.723

> <Bond>
0.192

> <Angle>
1.036

> <Pdih>
1.465

> <Idih>
0.000

> <Tether>
0.000

$$$$
VeraChem MOL file


 23 22  0  0  0  0  0  0  0  0999 V2000     
   19.8709   18.1527   25.8879 N   0  3  0  0  0  0  0  0  0  0  0  0
   19.3075   18.0989   26.7433 H   0  0  0  0  0  0  0  0  0  0  0  0
   20.7810   18.5418   26.1548 H   0  0  0  0  0  0  0  0  0  0  0  0
   20.0340   17.1894   25.5776 H   0  0  0  0  0  0  0  0  0  0  0  0
   19.1922   18.9842   24.8184 C   0  0  0  0  0  0  0  0  0  0  0  0
   19.0229   19.9846   25.2258 H   0  0  0  0  0  0  0  0  0  0  0  0
   18.2203   18.5311   24.6047 H   0  0  0  0  0  0  0  0  0  0  0  0
   20.0129   19.0855   23.5206 C   0  0  0  0  0  0  0  0  0  0  0  0
   20.9939   19.5263   23.7422 H   0  0  0  0  0  0  0  0  0  0  0  0
   20.1916   18.0753   23.1310 H   0  0  0  0  0  0  0  0  0  0  0  0
   19.2847   19.9427   22.4589 C   0  0  0  0  0  0  0  0  0  0  0  0
   19.0449   20.9224   22.8951 H   0  0  0  0  0  0  0  0  0  0  0  0
   18.3205   19.4814   22.2066 H   0  0  0  0  0  0  0  0  0  0  0  0
   20.1156   20.1725   21.1699 C   0  0  0  0  0  0  0  0  0  0  0  0
   19.5428   20.8210   20.4926 H   0  0  0  0  0  0  0  0  0  0  0  0
   21.0243   20.7345   21.4261 H   0  0  0  0  0  0  0  0  0  0  0  0
   20.5228   18.8866   20.4059 C   0  0  0  0  0  0  0  0  0  0  0  0
   21.1984   18.2771   21.0209 H   0  0  0  0  0  0  0  0  0  0  0  0
   21.1041   19.1763   19.5194 H   0  0  0  0  0  0  0  0  0  0  0  0
   19.3170   18.0328   19.9525 C   0  0  0  0  0  0  0  0  0  0  0  0
   18.7708   17.6208   20.8101 H   0  0  0  0  0  0  0  0  0  0  0  0
   19.6535   17.1875   19.3384 H   0  0  0  0  0  0  0  0  0  0  0  0
   18.6167   18.6270   19.3512 H   0  0  0  0  0  0  0  0  0  0  0  0
  1  2  1  0  0  0  0
  1  3  1  0  0  0  0
  1  4  1  0  0  0  0
  1  5  1  0  0  0  0
  5  6  1  0  0  0  0
  5  7  1  0  0  0  0
  5  8  1  0  0  0  0
  8  9  1  0  0  0  0
  8 10  1  0  0  0  0
  8 11  1  0  0  0  0
 11 12  1  0  0  0  0
 11 13  1  0  0  0  0
 11 14  1  0  0  0  0
 14 15  1  0  0  0  0
 14 16  1  0  0  0  0
 14 17  1  0  0  0  0
 17 18  1  0  0  0  0
 17 19  1  0  0  0  0
 17 20  1  0  0  0  0
 20 21  1  0  0  0  0
 20 22  1  0  0  0  0
 20 23  1  0  0  0  0
M  END
> <VM2 Rank>
27

> <Conf_Id>
834

> <Probability>
1.29

> <Sum Probability>
89.21

> <Delta G>
1.328

> <G>
39.244

> <E>
11.299

> <-TS>
27.945

> <U+W>
-7.481

> <U>
48.054

> <W>
-55.534

> <W(PB)>
-57.639

> <W(SA)>
2.105

> <Valence>
2.692

> <Coulomb>
44.814

> <VdW>
0.547

> <VdW6>
-6.176

> <VdW12>
6.724

> <Bond>
0.192

> <Angle>
1.036

> <Pdih>
1.465

> <Idih>
0.000

> <Tether>
0.000

$$$$
VeraChem MOL file


 23 22  0  0  0  0  0  0  0  0999 V2000     
   19.8773   18.6894   25.7958 N   0  3  0  0  0  0  0  0  0  0  0  0
   18.9397   18.3226   25.9882 H   0  0  0  0  0  0  0  0  0  0  0  0
   20.2736   18.9829   26.6951 H   0  0  0  0  0  0  0  0  0  0  0  0
   20.4458   17.9064   25.4597 H   0  0  0  0  0  0  0  0  0  0  0  0
   19.8423   19.8300   24.7972 C   0  0  0  0  0  0  0  0  0  0  0  0
   20.8653   20.1890   24.6551 H   0  0  0  0  0  0  0  0  0  0  0  0
   19.2561   20.6395   25.2406 H   0  0  0  0  0  0  0  0  0  0  0  0
   19.2330   19.4468   23.4345 C   0  0  0  0  0  0  0  0  0  0  0  0
   18.2126   19.0690   23.5821 H   0  0  0  0  0  0  0  0  0  0  0  0
   19.1467   20.3608   22.8338 H   0  0  0  0  0  0  0  0  0  0  0  0
   20.0830   18.3991   22.6729 C   0  0  0  0  0  0  0  0  0  0  0  0
   20.2015   17.5030   23.2962 H   0  0  0  0  0  0  0  0  0  0  0  0
   21.0963   18.7903   22.5112 H   0  0  0  0  0  0  0  0  0  0  0  0
   19.4625   17.9622   21.3203 C   0  0  0  0  0  0  0  0  0  0  0  0
   20.1026   17.1890   20.8735 H   0  0  0  0  0  0  0  0  0  0  0  0
   18.4953   17.4771   21.5113 H   0  0  0  0  0  0  0  0  0  0  0  0
   19.2556   19.0979   20.2856 C   0  0  0  0  0  0  0  0  0  0  0  0
   18.5180   19.8216   20.6575 H   0  0  0  0  0  0  0  0  0  0  0  0
   18.8174   18.6652   19.3754 H   0  0  0  0  0  0  0  0  0  0  0  0
   20.5623   19.8316   19.9076 C   0  0  0  0  0  0  0  0  0  0  0  0
   20.9766   20.3810   20.7621 H   0  0  0  0  0  0  0  0  0  0  0  0
   20.3772   20.5584   19.1061 H   0  0  0  0  0  0  0  0  0  0  0  0
   21.3227   19.1247   19.5511 H   0  0  0  0  0  0  0  0  0  0  0  0
  1  2  1  0  0  0  0
  1  3  1  0  0  0  0
  1  4  1  0  0  0  0
  1  5  1  0  0  0  0
  5  6  1  0  0  0  0
  5  7  1  0  0  0  0
  5  8  1  0  0  0  0
  8  9  1  0  0  0  0
  8 10  1  0  0  0  0
  8 11  1  0  0  0  0
 11 12  1  0  0  0  0
 11 13  1  0  0  0  0
 11 14  1  0  0  0  0
 14 15  1  0  0  0  0
 14 16  1  0  0  0  0
 14 17  1  0  0  0  0
 17 18  1  0  0  0  0
 17 19  1  0  0  0  0
 17 20  1  0  0  0  0
 20 21  1  0  0  0  0
 20 22  1  0  0  0  0
 20 23  1  0  0  0  0
M  END
> <VM2 Rank>
28

> <Conf_Id>
571

> <Probability>
0.88

> <Sum Probability>
90.09

> <Delta G>
1.560

> <G>
39.476

> <E>
11.437

> <-TS>
28.039

> <U+W>
-7.342

> <U>
48.503

> <W>
-55.844

> <W(PB)>
-57.926

> <W(SA)>
2.081

> <Valence>
2.824

> <Coulomb>
44.990

> <VdW>
0.689

> <VdW6>
-6.667

> <VdW12>
7.356

> <Bond>
0.219

> <Angle>
1.118

> <Pdih>
1.487

> <Idih>
0.000

> <Tether>
0.000

$$$$
VeraChem MOL file


 23 22  0  0  0  0  0  0  0  0999 V2000     
   20.0738   18.1586   25.2941 N   0  3  0  0  0  0  0  0  0  0  0  0
   19.5898   17.4332   24.7564 H   0  0  0  0  0  0  0  0  0  0  0  0
   19.4457   18.4438   26.0520 H   0  0  0  0  0  0  0  0  0  0  0  0
   20.8892   17.7163   25.7315 H   0  0  0  0  0  0  0  0  0  0  0  0
   20.4702   19.3321   24.4200 C   0  0  0  0  0  0  0  0  0  0  0  0
   21.1628   18.9683   23.6565 H   0  0  0  0  0  0  0  0  0  0  0  0
   21.0040   20.0501   25.0484 H   0  0  0  0  0  0  0  0  0  0  0  0
   19.2732   20.0321   23.7454 C   0  0  0  0  0  0  0  0  0  0  0  0
   18.6023   20.4234   24.5215 H   0  0  0  0  0  0  0  0  0  0  0  0
   19.6391   20.9094   23.1969 H   0  0  0  0  0  0  0  0  0  0  0  0
   18.4657   19.1168   22.7876 C   0  0  0  0  0  0  0  0  0  0  0  0
   17.6632   19.7083   22.3257 H   0  0  0  0  0  0  0  0  0  0  0  0
   17.9598   18.3372   23.3728 H   0  0  0  0  0  0  0  0  0  0  0  0
   19.3023   18.4404   21.6708 C   0  0  0  0  0  0  0  0  0  0  0  0
   20.0507   17.7700   22.1139 H   0  0  0  0  0  0  0  0  0  0  0  0
   18.6349   17.7991   21.0787 H   0  0  0  0  0  0  0  0  0  0  0  0
   19.9998   19.4469   20.7256 C   0  0  0  0  0  0  0  0  0  0  0  0
   20.7253   20.0520   21.2854 H   0  0  0  0  0  0  0  0  0  0  0  0
   19.2569   20.1425   20.3110 H   0  0  0  0  0  0  0  0  0  0  0  0
   20.7310   18.7303   19.5705 C   0  0  0  0  0  0  0  0  0  0  0  0
   21.5020   18.0493   19.9539 H   0  0  0  0  0  0  0  0  0  0  0  0
   21.2219   19.4583   18.9117 H   0  0  0  0  0  0  0  0  0  0  0  0
   20.0297   18.1448   18.9617 H   0  0  0  0  0  0  0  0  0  0  0  0
  1  2  1  0  0  0  0
  1  3  1  0  0  0  0
  1  4  1  0  0  0  0
  1  5  1  0  0  0  0
  5  6  1  0  0  0  0
  5  7  1  0  0  0  0
  5  8  1  0  0  0  0
  8  9  1  0  0  0  0
  8 10  1  0  0  0  0
  8 11  1  0  0  0  0
 11 12  1  0  0  0  0
 11 13  1  0  0  0  0
 11 14  1  0  0  0  0
 14 15  1  0  0  0  0
 14 16  1  0  0  0  0
 14 17  1  0  0  0  0
 17 18  1  0  0  0  0
 17 19  1  0  0  0  0
 17 20  1  0  0  0  0
 20 21  1  0  0  0  0
 20 22  1  0  0  0  0
 20 23  1  0  0  0  0
M  END
> <VM2 Rank>
29

> <Conf_Id>
88

> <Probability>
0.83

> <Sum Probability>
90.92

> <Delta G>
1.591

> <G>
39.508

> <E>
11.447

> <-TS>
28.060

> <U+W>
-7.332

> <U>
48.590

> <W>
-55.922

> <W(PB)>
-58.013

> <W(SA)>
2.090

> <Valence>
2.601

> <Coulomb>
45.520

> <VdW>
0.469

> <VdW6>
-6.867

> <VdW12>
7.336

> <Bond>
0.205

> <Angle>
0.962

> <Pdih>
1.434

> <Idih>
0.000

> <Tether>
0.000

$$$$
VeraChem MOL file


 23 22  0  0  0  0  0  0  0  0999 V2000     
   20.2304   19.8407   25.3503 N   0  3  0  0  0  0  0  0  0  0  0  0
   19.9053   20.5444   26.0218 H   0  0  0  0  0  0  0  0  0  0  0  0
   20.6827   20.3447   24.5815 H   0  0  0  0  0  0  0  0  0  0  0  0
   20.9560   19.2908   25.8210 H   0  0  0  0  0  0  0  0  0  0  0  0
   19.0945   18.9674   24.8550 C   0  0  0  0  0  0  0  0  0  0  0  0
   18.3450   19.6152   24.3934 H   0  0  0  0  0  0  0  0  0  0  0  0
   18.6381   18.4897   25.7262 H   0  0  0  0  0  0  0  0  0  0  0  0
   19.5381   17.8830   23.8517 C   0  0  0  0  0  0  0  0  0  0  0  0
   20.2515   17.2095   24.3450 H   0  0  0  0  0  0  0  0  0  0  0  0
   18.6672   17.2671   23.5907 H   0  0  0  0  0  0  0  0  0  0  0  0
   20.1758   18.4411   22.5541 C   0  0  0  0  0  0  0  0  0  0  0  0
   20.4893   17.5897   21.9363 H   0  0  0  0  0  0  0  0  0  0  0  0
   21.0916   18.9964   22.7963 H   0  0  0  0  0  0  0  0  0  0  0  0
   19.2138   19.3445   21.7413 C   0  0  0  0  0  0  0  0  0  0  0  0
   18.3101   18.7787   21.4760 H   0  0  0  0  0  0  0  0  0  0  0  0
   18.8805   20.1833   22.3664 H   0  0  0  0  0  0  0  0  0  0  0  0
   19.8531   19.9270   20.4574 C   0  0  0  0  0  0  0  0  0  0  0  0
   20.7519   20.5033   20.7177 H   0  0  0  0  0  0  0  0  0  0  0  0
   19.1499   20.6419   20.0076 H   0  0  0  0  0  0  0  0  0  0  0  0
   20.2103   18.8534   19.4042 C   0  0  0  0  0  0  0  0  0  0  0  0
   21.0053   18.1867   19.7604 H   0  0  0  0  0  0  0  0  0  0  0  0
   20.5671   19.3262   18.4801 H   0  0  0  0  0  0  0  0  0  0  0  0
   19.3348   18.2414   19.1513 H   0  0  0  0  0  0  0  0  0  0  0  0
  1  2  1  0  0  0  0
  1  3  1  0  0  0  0
  1  4  1  0  0  0  0
  1  5  1  0  0  0  0
  5  6  1  0  0  0  0
  5  7  1  0  0  0  0
  5  8  1  0  0  0  0
  8  9  1  0  0  0  0
  8 10  1  0  0  0  0
  8 11  1  0  0  0  0
 11 12  1  0  0  0  0
 11 13  1  0  0  0  0
 11 14  1  0  0  0  0
 14 15  1  0  0  0  0
 14 16  1  0  0  0  0
 14 17  1  0  0  0  0
 17 18  1  0  0  0  0
 17 19  1  0  0  0  0
 17 20  1  0  0  0  0
 20 21  1  0  0  0  0
 20 22  1  0  0  0  0
 20 23  1  0  0  0  0
M  END
> <VM2 Rank>
30

> <Conf_Id>
636

> <Probability>
0.82

> <Sum Probability>
91.74

> <Delta G>
1.599

> <G>
39.515

> <E>
11.625

> <-TS>
27.890

> <U+W>
-7.154

> <U>
48.727

> <W>
-55.881

> <W(PB)>
-57.960

> <W(SA)>
2.080

> <Valence>
2.672

> <Coulomb>
45.371

> <VdW>
0.684

> <VdW6>
-6.511

> <VdW12>
7.195

> <Bond>
0.203

> <Angle>
0.915

> <Pdih>
1.554

> <Idih>
0.000

> <Tether>
0.000

$$$$
VeraChem MOL file


 23 22  0  0  0  0  0  0  0  0999 V2000     
   20.3541   17.8788   24.9469 N   0  3  0  0  0  0  0  0  0  0  0  0
   19.5906   17.3574   25.3895 H   0  0  0  0  0  0  0  0  0  0  0  0
   21.1941   17.7175   25.5128 H   0  0  0  0  0  0  0  0  0  0  0  0
   20.5217   17.4525   24.0305 H   0  0  0  0  0  0  0  0  0  0  0  0
   20.0313   19.3551   24.8259 C   0  0  0  0  0  0  0  0  0  0  0  0
   20.8936   19.8549   24.3772 H   0  0  0  0  0  0  0  0  0  0  0  0
   19.8982   19.7508   25.8364 H   0  0  0  0  0  0  0  0  0  0  0  0
   18.7672   19.6467   23.9916 C   0  0  0  0  0  0  0  0  0  0  0  0
   17.9001   19.1796   24.4771 H   0  0  0  0  0  0  0  0  0  0  0  0
   18.5787   20.7285   24.0045 H   0  0  0  0  0  0  0  0  0  0  0  0
   18.8559   19.1609   22.5231 C   0  0  0  0  0  0  0  0  0  0  0  0
   17.9094   19.3983   22.0181 H   0  0  0  0  0  0  0  0  0  0  0  0
   18.9467   18.0675   22.5041 H   0  0  0  0  0  0  0  0  0  0  0  0
   20.0258   19.8080   21.7395 C   0  0  0  0  0  0  0  0  0  0  0  0
   19.9649   20.9003   21.8421 H   0  0  0  0  0  0  0  0  0  0  0  0
   20.9871   19.5091   22.1782 H   0  0  0  0  0  0  0  0  0  0  0  0
   20.0245   19.4550   20.2326 C   0  0  0  0  0  0  0  0  0  0  0  0
   20.8144   20.0340   19.7340 H   0  0  0  0  0  0  0  0  0  0  0  0
   19.0764   19.7730   19.7767 H   0  0  0  0  0  0  0  0  0  0  0  0
   20.2572   17.9525   19.9545 C   0  0  0  0  0  0  0  0  0  0  0  0
   20.3365   17.7698   18.8750 H   0  0  0  0  0  0  0  0  0  0  0  0
   19.4296   17.3394   20.3321 H   0  0  0  0  0  0  0  0  0  0  0  0
   21.1866   17.6033   20.4226 H   0  0  0  0  0  0  0  0  0  0  0  0
  1  2  1  0  0  0  0
  1  3  1  0  0  0  0
  1  4  1  0  0  0  0
  1  5  1  0  0  0  0
  5  6  1  0  0  0  0
  5  7  1  0  0  0  0
  5  8  1  0  0  0  0
  8  9  1  0  0  0  0
  8 10  1  0  0  0  0
  8 11  1  0  0  0  0
 11 12  1  0  0  0  0
 11 13  1  0  0  0  0
 11 14  1  0  0  0  0
 14 15  1  0  0  0  0
 14 16  1  0  0  0  0
 14 17  1  0  0  0  0
 17 18  1  0  0  0  0
 17 19  1  0  0  0  0
 17 20  1  0  0  0  0
 20 21  1  0  0  0  0
 20 22  1  0  0  0  0
 20 23  1  0  0  0  0
M  END
> <VM2 Rank>
31

> <Conf_Id>
378

> <Probability>
0.82

> <Sum Probability>
92.56

> <Delta G>
1.602

> <G>
39.518

> <E>
11.589

> <-TS>
27.929

> <U+W>
-7.190

> <U>
48.775

> <W>
-55.965

> <W(PB)>
-58.038

> <W(SA)>
2.073

> <Valence>
2.602

> <Coulomb>
45.581

> <VdW>
0.592

> <VdW6>
-6.616

> <VdW12>
7.209

> <Bond>
0.196

> <Angle>
0.832

> <Pdih>
1.574

> <Idih>
0.000

> <Tether>
0.000

$$$$
VeraChem MOL file


 23 22  0  0  0  0  0  0  0  0999 V2000     
   18.6466   19.1828   25.2779 N   0  3  0  0  0  0  0  0  0  0  0  0
   18.3251   19.8881   25.9495 H   0  0  0  0  0  0  0  0  0  0  0  0
   18.4891   18.2661   25.7085 H   0  0  0  0  0  0  0  0  0  0  0  0
   18.0321   19.2436   24.4604 H   0  0  0  0  0  0  0  0  0  0  0  0
   20.1009   19.3854   24.9009 C   0  0  0  0  0  0  0  0  0  0  0  0
   20.6918   19.3428   25.8199 H   0  0  0  0  0  0  0  0  0  0  0  0
   20.2053   20.3879   24.4782 H   0  0  0  0  0  0  0  0  0  0  0  0
   20.6341   18.3383   23.9016 C   0  0  0  0  0  0  0  0  0  0  0  0
   21.7019   18.5279   23.7290 H   0  0  0  0  0  0  0  0  0  0  0  0
   20.5710   17.3422   24.3596 H   0  0  0  0  0  0  0  0  0  0  0  0
   19.8920   18.3231   22.5412 C   0  0  0  0  0  0  0  0  0  0  0  0
   18.8370   18.0595   22.6936 H   0  0  0  0  0  0  0  0  0  0  0  0
   20.3220   17.5201   21.9286 H   0  0  0  0  0  0  0  0  0  0  0  0
   19.9917   19.6678   21.7768 C   0  0  0  0  0  0  0  0  0  0  0  0
   19.5839   20.4755   22.3986 H   0  0  0  0  0  0  0  0  0  0  0  0
   21.0474   19.9162   21.6009 H   0  0  0  0  0  0  0  0  0  0  0  0
   19.2301   19.6681   20.4291 C   0  0  0  0  0  0  0  0  0  0  0  0
   19.2531   20.6849   20.0125 H   0  0  0  0  0  0  0  0  0  0  0  0
   18.1708   19.4306   20.6001 H   0  0  0  0  0  0  0  0  0  0  0  0
   19.8205   18.6915   19.3865 C   0  0  0  0  0  0  0  0  0  0  0  0
   20.8881   18.8872   19.2221 H   0  0  0  0  0  0  0  0  0  0  0  0
   19.3071   18.8028   18.4226 H   0  0  0  0  0  0  0  0  0  0  0  0
   19.7062   17.6469   19.7011 H   0  0  0  0  0  0  0  0  0  0  0  0
  1  2  1  0  0  0  0
  1  3  1  0  0  0  0
  1  4  1  0  0  0  0
  1  5  1  0  0  0  0
  5  6  1  0  0  0  0
  5  7  1  0  0  0  0
  5  8  1  0  0  0  0
  8  9  1  0  0  0  0
  8 10  1  0  0  0  0
  8 11  1  0  0  0  0
 11 12  1  0  0  0  0
 11 13  1  0  0  0  0
 11 14  1  0  0  0  0
 14 15  1  0  0  0  0
 14 16  1  0  0  0  0
 14 17  1  0  0  0  0
 17 18  1  0  0  0  0
 17 19  1  0  0  0  0
 17 20  1  0  0  0  0
 20 21  1  0  0  0  0
 20 22  1  0  0  0  0
 20 23  1  0  0  0  0
M  END
> <VM2 Rank>
32

> <Conf_Id>
795

> <Probability>
0.79

> <Sum Probability>
93.34

> <Delta G>
1.623

> <G>
39.539

> <E>
11.649

> <-TS>
27.890

> <U+W>
-7.130

> <U>
48.727

> <W>
-55.857

> <W(PB)>
-57.937

> <W(SA)>
2.080

> <Valence>
2.671

> <Coulomb>
45.371

> <VdW>
0.684

> <VdW6>
-6.511

> <VdW12>
7.195

> <Bond>
0.203

> <Angle>
0.915

> <Pdih>
1.554

> <Idih>
0.000

> <Tether>
0.000

$$$$
VeraChem MOL file


 23 22  0  0  0  0  0  0  0  0999 V2000     
   19.9517   18.1079   25.2888 N   0  3  0  0  0  0  0  0  0  0  0  0
   19.6587   17.2046   25.6759 H   0  0  0  0  0  0  0  0  0  0  0  0
   20.1317   18.7296   26.0836 H   0  0  0  0  0  0  0  0  0  0  0  0
   20.8468   17.9564   24.8142 H   0  0  0  0  0  0  0  0  0  0  0  0
   18.9105   18.6831   24.3490 C   0  0  0  0  0  0  0  0  0  0  0  0
   17.9785   18.7915   24.9105 H   0  0  0  0  0  0  0  0  0  0  0  0
   18.7412   17.9606   23.5464 H   0  0  0  0  0  0  0  0  0  0  0  0
   19.3073   20.0461   23.7469 C   0  0  0  0  0  0  0  0  0  0  0  0
   18.4718   20.4236   23.1436 H   0  0  0  0  0  0  0  0  0  0  0  0
   19.4410   20.7723   24.5596 H   0  0  0  0  0  0  0  0  0  0  0  0
   20.5964   20.0031   22.8847 C   0  0  0  0  0  0  0  0  0  0  0  0
   21.4581   19.7923   23.5322 H   0  0  0  0  0  0  0  0  0  0  0  0
   20.7768   21.0034   22.4676 H   0  0  0  0  0  0  0  0  0  0  0  0
   20.5747   18.9696   21.7287 C   0  0  0  0  0  0  0  0  0  0  0  0
   21.5432   19.0087   21.2113 H   0  0  0  0  0  0  0  0  0  0  0  0
   20.4894   17.9525   22.1339 H   0  0  0  0  0  0  0  0  0  0  0  0
   19.4459   19.2165   20.7002 C   0  0  0  0  0  0  0  0  0  0  0  0
   19.5072   20.2466   20.3223 H   0  0  0  0  0  0  0  0  0  0  0  0
   18.4647   19.1118   21.1821 H   0  0  0  0  0  0  0  0  0  0  0  0
   19.5296   18.2306   19.5156 C   0  0  0  0  0  0  0  0  0  0  0  0
   19.4407   17.1919   19.8597 H   0  0  0  0  0  0  0  0  0  0  0  0
   20.4837   18.3337   18.9823 H   0  0  0  0  0  0  0  0  0  0  0  0
   18.7208   18.4180   18.7974 H   0  0  0  0  0  0  0  0  0  0  0  0
  1  2  1  0  0  0  0
  1  3  1  0  0  0  0
  1  4  1  0  0  0  0
  1  5  1  0  0  0  0
  5  6  1  0  0  0  0
  5  7  1  0  0  0  0
  5  8  1  0  0  0  0
  8  9  1  0  0  0  0
  8 10  1  0  0  0  0
  8 11  1  0  0  0  0
 11 12  1  0  0  0  0
 11 13  1  0  0  0  0
 11 14  1  0  0  0  0
 14 15  1  0  0  0  0
 14 16  1  0  0  0  0
 14 17  1  0  0  0  0
 17 18  1  0  0  0  0
 17 19  1  0  0  0  0
 17 20  1  0  0  0  0
 20 21  1  0  0  0  0
 20 22  1  0  0  0  0
 20 23  1  0  0  0  0
M  END
> <VM2 Rank>
33

> <Conf_Id>
1134

> <Probability>
0.77

> <Sum Probability>
94.11

> <Delta G>
1.637

> <G>
39.553

> <E>
11.493

> <-TS>
28.060

> <U+W>
-7.286

> <U>
48.590

> <W>
-55.876

> <W(PB)>
-57.963

> <W(SA)>
2.087

> <Valence>
2.601

> <Coulomb>
45.520

> <VdW>
0.469

> <VdW6>
-6.866

> <VdW12>
7.335

> <Bond>
0.205

> <Angle>
0.962

> <Pdih>
1.434

> <Idih>
0.000

> <Tether>
0.000

$$$$
VeraChem MOL file


 23 22  0  0  0  0  0  0  0  0999 V2000     
   19.6752   18.6053   25.7866 N   0  3  0  0  0  0  0  0  0  0  0  0
   19.1195   18.5024   26.6425 H   0  0  0  0  0  0  0  0  0  0  0  0
   20.5780   19.0045   26.0628 H   0  0  0  0  0  0  0  0  0  0  0  0
   19.8570   17.6612   25.4329 H   0  0  0  0  0  0  0  0  0  0  0  0
   18.9691   19.4665   24.7575 C   0  0  0  0  0  0  0  0  0  0  0  0
   18.7726   20.4382   25.2187 H   0  0  0  0  0  0  0  0  0  0  0  0
   18.0082   18.9996   24.5251 H   0  0  0  0  0  0  0  0  0  0  0  0
   19.7736   19.6719   23.4592 C   0  0  0  0  0  0  0  0  0  0  0  0
   19.2332   20.3969   22.8379 H   0  0  0  0  0  0  0  0  0  0  0  0
   20.7456   20.1236   23.6975 H   0  0  0  0  0  0  0  0  0  0  0  0
   19.9784   18.3556   22.6681 C   0  0  0  0  0  0  0  0  0  0  0  0
   19.0029   17.9190   22.4158 H   0  0  0  0  0  0  0  0  0  0  0  0
   20.4816   17.6197   23.3090 H   0  0  0  0  0  0  0  0  0  0  0  0
   20.8282   18.5308   21.3826 C   0  0  0  0  0  0  0  0  0  0  0  0
   21.8356   18.8676   21.6637 H   0  0  0  0  0  0  0  0  0  0  0  0
   20.9615   17.5466   20.9127 H   0  0  0  0  0  0  0  0  0  0  0  0
   20.2493   19.5116   20.3310 C   0  0  0  0  0  0  0  0  0  0  0  0
   20.9339   19.5463   19.4720 H   0  0  0  0  0  0  0  0  0  0  0  0
   20.2251   20.5323   20.7354 H   0  0  0  0  0  0  0  0  0  0  0  0
   18.8422   19.1155   19.8290 C   0  0  0  0  0  0  0  0  0  0  0  0
   18.8372   18.0900   19.4375 H   0  0  0  0  0  0  0  0  0  0  0  0
   18.5195   19.7850   19.0213 H   0  0  0  0  0  0  0  0  0  0  0  0
   18.0960   19.1817   20.6305 H   0  0  0  0  0  0  0  0  0  0  0  0
  1  2  1  0  0  0  0
  1  3  1  0  0  0  0
  1  4  1  0  0  0  0
  1  5  1  0  0  0  0
  5  6  1  0  0  0  0
  5  7  1  0  0  0  0
  5  8  1  0  0  0  0
  8  9  1  0  0  0  0
  8 10  1  0  0  0  0
  8 11  1  0  0  0  0
 11 12  1  0  0  0  0
 11 13  1  0  0  0  0
 11 14  1  0  0  0  0
 14 15  1  0  0  0  0
 14 16  1  0  0  0  0
 14 17  1  0  0  0  0
 17 18  1  0  0  0  0
 17 19  1  0  0  0  0
 17 20  1  0  0  0  0
 20 21  1  0  0  0  0
 20 22  1  0  0  0  0
 20 23  1  0  0  0  0
M  END
> <VM2 Rank>
34

> <Conf_Id>
365

> <Probability>
0.74

> <Sum Probability>
94.85

> <Delta G>
1.663

> <G>
39.580

> <E>
11.541

> <-TS>
28.039

> <U+W>
-7.238

> <U>
48.503

> <W>
-55.741

> <W(PB)>
-57.818

> <W(SA)>
2.078

> <Valence>
2.824

> <Coulomb>
44.990

> <VdW>
0.689

> <VdW6>
-6.667

> <VdW12>
7.356

> <Bond>
0.219

> <Angle>
1.118

> <Pdih>
1.487

> <Idih>
0.000

> <Tether>
0.000

$$$$
VeraChem MOL file


 23 22  0  0  0  0  0  0  0  0999 V2000     
   19.9803   17.7232   24.9298 N   0  3  0  0  0  0  0  0  0  0  0  0
   20.2356   17.3333   24.0174 H   0  0  0  0  0  0  0  0  0  0  0  0
   19.4611   16.9963   25.4338 H   0  0  0  0  0  0  0  0  0  0  0  0
   20.8510   17.8818   25.4468 H   0  0  0  0  0  0  0  0  0  0  0  0
   19.1706   18.9969   24.7866 C   0  0  0  0  0  0  0  0  0  0  0  0
   18.9054   19.3376   25.7911 H   0  0  0  0  0  0  0  0  0  0  0  0
   18.2464   18.7532   24.2565 H   0  0  0  0  0  0  0  0  0  0  0  0
   19.9159   20.1247   24.0440 C   0  0  0  0  0  0  0  0  0  0  0  0
   19.2811   21.0207   24.0366 H   0  0  0  0  0  0  0  0  0  0  0  0
   20.8175   20.3937   24.6102 H   0  0  0  0  0  0  0  0  0  0  0  0
   20.3117   19.7667   22.5894 C   0  0  0  0  0  0  0  0  0  0  0  0
   21.0237   18.9318   22.5988 H   0  0  0  0  0  0  0  0  0  0  0  0
   20.8471   20.6207   22.1522 H   0  0  0  0  0  0  0  0  0  0  0  0
   19.0932   19.4202   21.6969 C   0  0  0  0  0  0  0  0  0  0  0  0
   18.5960   18.5146   22.0692 H   0  0  0  0  0  0  0  0  0  0  0  0
   18.3547   20.2306   21.7685 H   0  0  0  0  0  0  0  0  0  0  0  0
   19.4612   19.2206   20.2069 C   0  0  0  0  0  0  0  0  0  0  0  0
   19.9370   20.1308   19.8159 H   0  0  0  0  0  0  0  0  0  0  0  0
   18.5355   19.0859   19.6299 H   0  0  0  0  0  0  0  0  0  0  0  0
   20.3831   18.0047   19.9604 C   0  0  0  0  0  0  0  0  0  0  0  0
   20.5406   17.8544   18.8845 H   0  0  0  0  0  0  0  0  0  0  0  0
   19.9414   17.0853   20.3661 H   0  0  0  0  0  0  0  0  0  0  0  0
   21.3688   18.1459   20.4207 H   0  0  0  0  0  0  0  0  0  0  0  0
  1  2  1  0  0  0  0
  1  3  1  0  0  0  0
  1  4  1  0  0  0  0
  1  5  1  0  0  0  0
  5  6  1  0  0  0  0
  5  7  1  0  0  0  0
  5  8  1  0  0  0  0
  8  9  1  0  0  0  0
  8 10  1  0  0  0  0
  8 11  1  0  0  0  0
 11 12  1  0  0  0  0
 11 13  1  0  0  0  0
 11 14  1  0  0  0  0
 14 15  1  0  0  0  0
 14 16  1  0  0  0  0
 14 17  1  0  0  0  0
 17 18  1  0  0  0  0
 17 19  1  0  0  0  0
 17 20  1  0  0  0  0
 20 21  1  0  0  0  0
 20 22  1  0  0  0  0
 20 23  1  0  0  0  0
M  END
> <VM2 Rank>
35

> <Conf_Id>
466

> <Probability>
0.72

> <Sum Probability>
95.57

> <Delta G>
1.678

> <G>
39.594

> <E>
11.665

> <-TS>
27.929

> <U+W>
-7.114

> <U>
48.775

> <W>
-55.889

> <W(PB)>
-57.962

> <W(SA)>
2.073

> <Valence>
2.602

> <Coulomb>
45.581

> <VdW>
0.592

> <VdW6>
-6.616

> <VdW12>
7.208

> <Bond>
0.196

> <Angle>
0.832

> <Pdih>
1.574

> <Idih>
0.000

> <Tether>
0.000

$$$$
VeraChem MOL file


 23 22  0  0  0  0  0  0  0  0999 V2000     
   20.2114   17.9529   25.2449 N   0  3  0  0  0  0  0  0  0  0  0  0
   19.8426   17.0723   24.8719 H   0  0  0  0  0  0  0  0  0  0  0  0
   20.3618   17.8123   26.2497 H   0  0  0  0  0  0  0  0  0  0  0  0
   21.1328   18.0996   24.8220 H   0  0  0  0  0  0  0  0  0  0  0  0
   19.2765   19.1155   24.9736 C   0  0  0  0  0  0  0  0  0  0  0  0
   19.7142   20.0137   25.4176 H   0  0  0  0  0  0  0  0  0  0  0  0
   18.3323   18.9084   25.4847 H   0  0  0  0  0  0  0  0  0  0  0  0
   19.0051   19.3566   23.4762 C   0  0  0  0  0  0  0  0  0  0  0  0
   18.5664   18.4500   23.0403 H   0  0  0  0  0  0  0  0  0  0  0  0
   18.2505   20.1487   23.3822 H   0  0  0  0  0  0  0  0  0  0  0  0
   20.2802   19.7678   22.6986 C   0  0  0  0  0  0  0  0  0  0  0  0
   21.0151   18.9530   22.7193 H   0  0  0  0  0  0  0  0  0  0  0  0
   20.7533   20.6159   23.2128 H   0  0  0  0  0  0  0  0  0  0  0  0
   20.0014   20.1811   21.2304 C   0  0  0  0  0  0  0  0  0  0  0  0
   19.3567   21.0707   21.2256 H   0  0  0  0  0  0  0  0  0  0  0  0
   20.9471   20.4935   20.7664 H   0  0  0  0  0  0  0  0  0  0  0  0
   19.3483   19.0865   20.3482 C   0  0  0  0  0  0  0  0  0  0  0  0
   19.1981   19.4947   19.3389 H   0  0  0  0  0  0  0  0  0  0  0  0
   18.3459   18.8429   20.7251 H   0  0  0  0  0  0  0  0  0  0  0  0
   20.1932   17.7967   20.2421 C   0  0  0  0  0  0  0  0  0  0  0  0
   20.2713   17.2864   21.2100 H   0  0  0  0  0  0  0  0  0  0  0  0
   21.2078   18.0179   19.8863 H   0  0  0  0  0  0  0  0  0  0  0  0
   19.7348   17.0939   19.5344 H   0  0  0  0  0  0  0  0  0  0  0  0
  1  2  1  0  0  0  0
  1  3  1  0  0  0  0
  1  4  1  0  0  0  0
  1  5  1  0  0  0  0
  5  6  1  0  0  0  0
  5  7  1  0  0  0  0
  5  8  1  0  0  0  0
  8  9  1  0  0  0  0
  8 10  1  0  0  0  0
  8 11  1  0  0  0  0
 11 12  1  0  0  0  0
 11 13  1  0  0  0  0
 11 14  1  0  0  0  0
 14 15  1  0  0  0  0
 14 16  1  0  0  0  0
 14 17  1  0  0  0  0
 17 18  1  0  0  0  0
 17 19  1  0  0  0  0
 17 20  1  0  0  0  0
 20 21  1  0  0  0  0
 20 22  1  0  0  0  0
 20 23  1  0  0  0  0
M  END
> <VM2 Rank>
36

> <Conf_Id>
492

> <Probability>
0.69

> <Sum Probability>
96.26

> <Delta G>
1.700

> <G>
39.616

> <E>
11.562

> <-TS>
28.055

> <U+W>
-7.217

> <U>
48.781

> <W>
-55.998

> <W(PB)>
-58.048

> <W(SA)>
2.050

> <Valence>
2.785

> <Coulomb>
45.396

> <VdW>
0.600

> <VdW6>
-6.752

> <VdW12>
7.352

> <Bond>
0.213

> <Angle>
1.043

> <Pdih>
1.528

> <Idih>
0.000

> <Tether>
0.000

$$$$
VeraChem MOL file


 23 22  0  0  0  0  0  0  0  0999 V2000     
   20.0046   17.8668   25.2355 N   0  3  0  0  0  0  0  0  0  0  0  0
   19.2868   17.3315   24.7378 H   0  0  0  0  0  0  0  0  0  0  0  0
   19.9206   17.6287   26.2296 H   0  0  0  0  0  0  0  0  0  0  0  0
   20.9159   17.5188   24.9208 H   0  0  0  0  0  0  0  0  0  0  0  0
   19.8586   19.3576   25.0002 C   0  0  0  0  0  0  0  0  0  0  0  0
   20.6282   19.8636   25.5894 H   0  0  0  0  0  0  0  0  0  0  0  0
   18.8809   19.6669   25.3796 H   0  0  0  0  0  0  0  0  0  0  0  0
   19.9946   19.7682   23.5213 C   0  0  0  0  0  0  0  0  0  0  0  0
   19.9708   20.8643   23.4607 H   0  0  0  0  0  0  0  0  0  0  0  0
   20.9782   19.4533   23.1502 H   0  0  0  0  0  0  0  0  0  0  0  0
   18.8688   19.1808   22.6343 C   0  0  0  0  0  0  0  0  0  0  0  0
   17.8964   19.4276   23.0825 H   0  0  0  0  0  0  0  0  0  0  0  0
   18.9281   18.0850   22.6241 H   0  0  0  0  0  0  0  0  0  0  0  0
   18.8859   19.7170   21.1795 C   0  0  0  0  0  0  0  0  0  0  0  0
   18.0368   19.2830   20.6337 H   0  0  0  0  0  0  0  0  0  0  0  0
   18.7091   20.8013   21.1961 H   0  0  0  0  0  0  0  0  0  0  0  0
   20.1877   19.4356   20.3865 C   0  0  0  0  0  0  0  0  0  0  0  0
   21.0346   19.9611   20.8478 H   0  0  0  0  0  0  0  0  0  0  0  0
   20.0825   19.8626   19.3793 H   0  0  0  0  0  0  0  0  0  0  0  0
   20.5158   17.9309   20.2567 C   0  0  0  0  0  0  0  0  0  0  0  0
   19.6746   17.3802   19.8162 H   0  0  0  0  0  0  0  0  0  0  0  0
   20.7470   17.4842   21.2316 H   0  0  0  0  0  0  0  0  0  0  0  0
   21.3901   17.7824   19.6098 H   0  0  0  0  0  0  0  0  0  0  0  0
  1  2  1  0  0  0  0
  1  3  1  0  0  0  0
  1  4  1  0  0  0  0
  1  5  1  0  0  0  0
  5  6  1  0  0  0  0
  5  7  1  0  0  0  0
  5  8  1  0  0  0  0
  8  9  1  0  0  0  0
  8 10  1  0  0  0  0
  8 11  1  0  0  0  0
 11 12  1  0  0  0  0
 11 13  1  0  0  0  0
 11 14  1  0  0  0  0
 14 15  1  0  0  0  0
 14 16  1  0  0  0  0
 14 17  1  0  0  0  0
 17 18  1  0  0  0  0
 17 19  1  0  0  0  0
 17 20  1  0  0  0  0
 20 21  1  0  0  0  0
 20 22  1  0  0  0  0
 20 23  1  0  0  0  0
M  END
> <VM2 Rank>
37

> <Conf_Id>
703

> <Probability>
0.65

> <Sum Probability>
96.91

> <Delta G>
1.739

> <G>
39.655

> <E>
11.601

> <-TS>
28.054

> <U+W>
-7.178

> <U>
48.780

> <W>
-55.959

> <W(PB)>
-58.030

> <W(SA)>
2.071

> <Valence>
2.785

> <Coulomb>
45.396

> <VdW>
0.600

> <VdW6>
-6.751

> <VdW12>
7.351

> <Bond>
0.213

> <Angle>
1.043

> <Pdih>
1.528

> <Idih>
0.000

> <Tether>
0.000

$$$$
VeraChem MOL file


 23 22  0  0  0  0  0  0  0  0999 V2000     
   19.2151   18.1526   25.5915 N   0  3  0  0  0  0  0  0  0  0  0  0
   19.1202   17.1949   25.2386 H   0  0  0  0  0  0  0  0  0  0  0  0
   18.4001   18.3331   26.1874 H   0  0  0  0  0  0  0  0  0  0  0  0
   20.0390   18.1691   26.2011 H   0  0  0  0  0  0  0  0  0  0  0  0
   19.3243   19.1618   24.4666 C   0  0  0  0  0  0  0  0  0  0  0  0
   19.3932   20.1580   24.9118 H   0  0  0  0  0  0  0  0  0  0  0  0
   18.4042   19.1104   23.8787 H   0  0  0  0  0  0  0  0  0  0  0  0
   20.5393   18.9180   23.5522 C   0  0  0  0  0  0  0  0  0  0  0  0
   21.4545   18.9346   24.1586 H   0  0  0  0  0  0  0  0  0  0  0  0
   20.4778   17.9133   23.1149 H   0  0  0  0  0  0  0  0  0  0  0  0
   20.6643   19.9776   22.4294 C   0  0  0  0  0  0  0  0  0  0  0  0
   21.5583   19.7612   21.8295 H   0  0  0  0  0  0  0  0  0  0  0  0
   20.8462   20.9598   22.8873 H   0  0  0  0  0  0  0  0  0  0  0  0
   19.4278   20.0879   21.4969 C   0  0  0  0  0  0  0  0  0  0  0  0
   18.5707   20.4653   22.0706 H   0  0  0  0  0  0  0  0  0  0  0  0
   19.6312   20.8521   20.7341 H   0  0  0  0  0  0  0  0  0  0  0  0
   19.0166   18.7720   20.7887 C   0  0  0  0  0  0  0  0  0  0  0  0
   18.1293   18.9693   20.1711 H   0  0  0  0  0  0  0  0  0  0  0  0
   18.7064   18.0228   21.5294 H   0  0  0  0  0  0  0  0  0  0  0  0
   20.1286   18.1870   19.8888 C   0  0  0  0  0  0  0  0  0  0  0  0
   20.4640   18.9236   19.1472 H   0  0  0  0  0  0  0  0  0  0  0  0
   19.7606   17.3071   19.3455 H   0  0  0  0  0  0  0  0  0  0  0  0
   20.9986   17.8717   20.4779 H   0  0  0  0  0  0  0  0  0  0  0  0
  1  2  1  0  0  0  0
  1  3  1  0  0  0  0
  1  4  1  0  0  0  0
  1  5  1  0  0  0  0
  5  6  1  0  0  0  0
  5  7  1  0  0  0  0
  5  8  1  0  0  0  0
  8  9  1  0  0  0  0
  8 10  1  0  0  0  0
  8 11  1  0  0  0  0
 11 12  1  0  0  0  0
 11 13  1  0  0  0  0
 11 14  1  0  0  0  0
 14 15  1  0  0  0  0
 14 16  1  0  0  0  0
 14 17  1  0  0  0  0
 17 18  1  0  0  0  0
 17 19  1  0  0  0  0
 17 20  1  0  0  0  0
 20 21  1  0  0  0  0
 20 22  1  0  0  0  0
 20 23  1  0  0  0  0
M  END
> <VM2 Rank>
38

> <Conf_Id>
441

> <Probability>
0.65

> <Sum Probability>
97.55

> <Delta G>
1.740

> <G>
39.656

> <E>
11.473

> <-TS>
28.183

> <U+W>
-7.306

> <U>
48.641

> <W>
-55.947

> <W(PB)>
-58.031

> <W(SA)>
2.084

> <Valence>
2.922

> <Coulomb>
45.269

> <VdW>
0.450

> <VdW6>
-7.045

> <VdW12>
7.495

> <Bond>
0.220

> <Angle>
1.205

> <Pdih>
1.497

> <Idih>
0.000

> <Tether>
0.000

$$$$
VeraChem MOL file


 23 22  0  0  0  0  0  0  0  0999 V2000     
   20.5356   18.7019   25.6517 N   0  3  0  0  0  0  0  0  0  0  0  0
   20.9336   19.3870   26.3030 H   0  0  0  0  0  0  0  0  0  0  0  0
   21.3076   18.1049   25.3382 H   0  0  0  0  0  0  0  0  0  0  0  0
   19.8983   18.1104   26.1946 H   0  0  0  0  0  0  0  0  0  0  0  0
   19.8316   19.3729   24.4898 C   0  0  0  0  0  0  0  0  0  0  0  0
   20.5595   20.0070   23.9770 H   0  0  0  0  0  0  0  0  0  0  0  0
   19.0434   20.0124   24.8960 H   0  0  0  0  0  0  0  0  0  0  0  0
   19.2224   18.3702   23.4922 C   0  0  0  0  0  0  0  0  0  0  0  0
   20.0107   17.7190   23.0936 H   0  0  0  0  0  0  0  0  0  0  0  0
   18.5211   17.7144   24.0249 H   0  0  0  0  0  0  0  0  0  0  0  0
   18.4715   19.0655   22.3295 C   0  0  0  0  0  0  0  0  0  0  0  0
   17.6130   19.6149   22.7400 H   0  0  0  0  0  0  0  0  0  0  0  0
   18.0437   18.2993   21.6693 H   0  0  0  0  0  0  0  0  0  0  0  0
   19.3338   20.0488   21.4926 C   0  0  0  0  0  0  0  0  0  0  0  0
   18.7092   20.4686   20.6921 H   0  0  0  0  0  0  0  0  0  0  0  0
   19.6238   20.9034   22.1186 H   0  0  0  0  0  0  0  0  0  0  0  0
   20.6089   19.4343   20.8612 C   0  0  0  0  0  0  0  0  0  0  0  0
   21.2996   19.1014   21.6475 H   0  0  0  0  0  0  0  0  0  0  0  0
   21.1400   20.2217   20.3082 H   0  0  0  0  0  0  0  0  0  0  0  0
   20.3122   18.2634   19.8971 C   0  0  0  0  0  0  0  0  0  0  0  0
   19.8791   17.4059   20.4269 H   0  0  0  0  0  0  0  0  0  0  0  0
   21.2356   17.9207   19.4125 H   0  0  0  0  0  0  0  0  0  0  0  0
   19.6127   18.5695   19.1085 H   0  0  0  0  0  0  0  0  0  0  0  0
  1  2  1  0  0  0  0
  1  3  1  0  0  0  0
  1  4  1  0  0  0  0
  1  5  1  0  0  0  0
  5  6  1  0  0  0  0
  5  7  1  0  0  0  0
  5  8  1  0  0  0  0
  8  9  1  0  0  0  0
  8 10  1  0  0  0  0
  8 11  1  0  0  0  0
 11 12  1  0  0  0  0
 11 13  1  0  0  0  0
 11 14  1  0  0  0  0
 14 15  1  0  0  0  0
 14 16  1  0  0  0  0
 14 17  1  0  0  0  0
 17 18  1  0  0  0  0
 17 19  1  0  0  0  0
 17 20  1  0  0  0  0
 20 21  1  0  0  0  0
 20 22  1  0  0  0  0
 20 23  1  0  0  0  0
M  END
> <VM2 Rank>
39

> <Conf_Id>
479

> <Probability>
0.59

> <Sum Probability>
98.14

> <Delta G>
1.794

> <G>
39.711

> <E>
11.527

> <-TS>
28.183

> <U+W>
-7.252

> <U>
48.641

> <W>
-55.893

> <W(PB)>
-57.963

> <W(SA)>
2.070

> <Valence>
2.922

> <Coulomb>
45.269

> <VdW>
0.449

> <VdW6>
-7.045

> <VdW12>
7.494

> <Bond>
0.220

> <Angle>
1.205

> <Pdih>
1.497

> <Idih>
0.000

> <Tether>
0.000

$$$$
VeraChem MOL file


 23 22  0  0  0  0  0  0  0  0999 V2000     
   19.0918   18.9201   25.4295 N   0  3  0  0  0  0  0  0  0  0  0  0
   18.5164   18.2122   24.9633 H   0  0  0  0  0  0  0  0  0  0  0  0
   18.4692   19.4616   26.0385 H   0  0  0  0  0  0  0  0  0  0  0  0
   19.7488   18.4231   26.0392 H   0  0  0  0  0  0  0  0  0  0  0  0
   19.8108   19.8037   24.4293 C   0  0  0  0  0  0  0  0  0  0  0  0
   20.3789   20.5495   24.9918 H   0  0  0  0  0  0  0  0  0  0  0  0
   19.0570   20.3276   23.8357 H   0  0  0  0  0  0  0  0  0  0  0  0
   20.7637   19.0312   23.4950 C   0  0  0  0  0  0  0  0  0  0  0  0
   21.2979   19.7504   22.8611 H   0  0  0  0  0  0  0  0  0  0  0  0
   21.5340   18.5336   24.0989 H   0  0  0  0  0  0  0  0  0  0  0  0
   20.0539   17.9783   22.6041 C   0  0  0  0  0  0  0  0  0  0  0  0
   19.6558   17.1761   23.2396 H   0  0  0  0  0  0  0  0  0  0  0  0
   20.8007   17.4948   21.9603 H   0  0  0  0  0  0  0  0  0  0  0  0
   18.9009   18.5380   21.7278 C   0  0  0  0  0  0  0  0  0  0  0  0
   18.4809   17.7151   21.1331 H   0  0  0  0  0  0  0  0  0  0  0  0
   18.0831   18.8813   22.3753 H   0  0  0  0  0  0  0  0  0  0  0  0
   19.3004   19.6913   20.7725 C   0  0  0  0  0  0  0  0  0  0  0  0
   19.6304   20.5655   21.3495 H   0  0  0  0  0  0  0  0  0  0  0  0
   18.4064   20.0148   20.2213 H   0  0  0  0  0  0  0  0  0  0  0  0
   20.3946   19.2942   19.7558 C   0  0  0  0  0  0  0  0  0  0  0  0
   20.5791   20.1140   19.0496 H   0  0  0  0  0  0  0  0  0  0  0  0
   20.0926   18.4126   19.1757 H   0  0  0  0  0  0  0  0  0  0  0  0
   21.3448   19.0681   20.2552 H   0  0  0  0  0  0  0  0  0  0  0  0
  1  2  1  0  0  0  0
  1  3  1  0  0  0  0
  1  4  1  0  0  0  0
  1  5  1  0  0  0  0
  5  6  1  0  0  0  0
  5  7  1  0  0  0  0
  5  8  1  0  0  0  0
  8  9  1  0  0  0  0
  8 10  1  0  0  0  0
  8 11  1  0  0  0  0
 11 12  1  0  0  0  0
 11 13  1  0  0  0  0
 11 14  1  0  0  0  0
 14 15  1  0  0  0  0
 14 16  1  0  0  0  0
 14 17  1  0  0  0  0
 17 18  1  0  0  0  0
 17 19  1  0  0  0  0
 17 20  1  0  0  0  0
 20 21  1  0  0  0  0
 20 22  1  0  0  0  0
 20 23  1  0  0  0  0
M  END
> <VM2 Rank>
40

> <Conf_Id>
1138

> <Probability>
0.33

> <Sum Probability>
98.47

> <Delta G>
2.148

> <G>
40.064

> <E>
11.688

> <-TS>
28.376

> <U+W>
-7.091

> <U>
48.991

> <W>
-56.082

> <W(PB)>
-58.124

> <W(SA)>
2.041

> <Valence>
3.025

> <Coulomb>
45.510

> <VdW>
0.456

> <VdW6>
-7.727

> <VdW12>
8.183

> <Bond>
0.246

> <Angle>
1.276

> <Pdih>
1.503

> <Idih>
0.000

> <Tether>
0.000

$$$$
VeraChem MOL file


 23 22  0  0  0  0  0  0  0  0999 V2000     
   20.0914   19.3359   25.4750 N   0  3  0  0  0  0  0  0  0  0  0  0
   19.9347   18.5004   26.0477 H   0  0  0  0  0  0  0  0  0  0  0  0
   20.0980   20.1390   26.1127 H   0  0  0  0  0  0  0  0  0  0  0  0
   21.0326   19.2587   25.0779 H   0  0  0  0  0  0  0  0  0  0  0  0
   19.0387   19.4827   24.3941 C   0  0  0  0  0  0  0  0  0  0  0  0
   19.2431   20.4050   23.8442 H   0  0  0  0  0  0  0  0  0  0  0  0
   18.0682   19.5886   24.8865 H   0  0  0  0  0  0  0  0  0  0  0  0
   18.9890   18.2932   23.4142 C   0  0  0  0  0  0  0  0  0  0  0  0
   18.7536   17.3773   23.9722 H   0  0  0  0  0  0  0  0  0  0  0  0
   18.1540   18.4428   22.7178 H   0  0  0  0  0  0  0  0  0  0  0  0
   20.3017   18.0814   22.6154 C   0  0  0  0  0  0  0  0  0  0  0  0
   20.1696   17.2324   21.9316 H   0  0  0  0  0  0  0  0  0  0  0  0
   21.0998   17.7766   23.3054 H   0  0  0  0  0  0  0  0  0  0  0  0
   20.7829   19.3208   21.8136 C   0  0  0  0  0  0  0  0  0  0  0  0
   21.0638   20.1210   22.5112 H   0  0  0  0  0  0  0  0  0  0  0  0
   21.7064   19.0566   21.2802 H   0  0  0  0  0  0  0  0  0  0  0  0
   19.7602   19.8826   20.7935 C   0  0  0  0  0  0  0  0  0  0  0  0
   20.2016   20.7614   20.3032 H   0  0  0  0  0  0  0  0  0  0  0  0
   18.8649   20.2471   21.3146 H   0  0  0  0  0  0  0  0  0  0  0  0
   19.3521   18.8606   19.7083 C   0  0  0  0  0  0  0  0  0  0  0  0
   18.6970   19.3312   18.9638 H   0  0  0  0  0  0  0  0  0  0  0  0
   18.8063   18.0123   20.1395 H   0  0  0  0  0  0  0  0  0  0  0  0
   20.2332   18.4711   19.1821 H   0  0  0  0  0  0  0  0  0  0  0  0
  1  2  1  0  0  0  0
  1  3  1  0  0  0  0
  1  4  1  0  0  0  0
  1  5  1  0  0  0  0
  5  6  1  0  0  0  0
  5  7  1  0  0  0  0
  5  8  1  0  0  0  0
  8  9  1  0  0  0  0
  8 10  1  0  0  0  0
  8 11  1  0  0  0  0
 11 12  1  0  0  0  0
 11 13  1  0  0  0  0
 11 14  1  0  0  0  0
 14 15  1  0  0  0  0
 14 16  1  0  0  0  0
 14 17  1  0  0  0  0
 17 18  1  0  0  0  0
 17 19  1  0  0  0  0
 17 20  1  0  0  0  0
 20 21  1  0  0  0  0
 20 22  1  0  0  0  0
 20 23  1  0  0  0  0
M  END
> <VM2 Rank>
41

> <Conf_Id>
758

> <Probability>
0.31

> <Sum Probability>
98.78

> <Delta G>
2.187

> <G>
40.103

> <E>
11.727

> <-TS>
28.376

> <U+W>
-7.052

> <U>
48.991

> <W>
-56.042

> <W(PB)>
-58.099

> <W(SA)>
2.057

> <Valence>
3.025

> <Coulomb>
45.510

> <VdW>
0.456

> <VdW6>
-7.727

> <VdW12>
8.183

> <Bond>
0.246

> <Angle>
1.276

> <Pdih>
1.503

> <Idih>
0.000

> <Tether>
0.000

$$$$
VeraChem MOL file


 23 22  0  0  0  0  0  0  0  0999 V2000     
   20.6333   18.0147   24.8318 N   0  3  0  0  0  0  0  0  0  0  0  0
   20.9556   17.8722   23.8708 H   0  0  0  0  0  0  0  0  0  0  0  0
   20.0436   17.2125   25.0755 H   0  0  0  0  0  0  0  0  0  0  0  0
   21.4599   17.9713   25.4376 H   0  0  0  0  0  0  0  0  0  0  0  0
   19.8894   19.3268   24.9897 C   0  0  0  0  0  0  0  0  0  0  0  0
   20.5800   20.1470   24.7761 H   0  0  0  0  0  0  0  0  0  0  0  0
   19.5920   19.3995   26.0394 H   0  0  0  0  0  0  0  0  0  0  0  0
   18.6334   19.4549   24.1027 C   0  0  0  0  0  0  0  0  0  0  0  0
   18.0718   18.5112   24.1072 H   0  0  0  0  0  0  0  0  0  0  0  0
   17.9727   20.2004   24.5648 H   0  0  0  0  0  0  0  0  0  0  0  0
   18.9159   19.9083   22.6473 C   0  0  0  0  0  0  0  0  0  0  0  0
   19.4218   20.8837   22.6600 H   0  0  0  0  0  0  0  0  0  0  0  0
   17.9511   20.0708   22.1472 H   0  0  0  0  0  0  0  0  0  0  0  0
   19.7493   18.9056   21.8143 C   0  0  0  0  0  0  0  0  0  0  0  0
   20.7688   18.8463   22.2149 H   0  0  0  0  0  0  0  0  0  0  0  0
   19.3067   17.9028   21.8909 H   0  0  0  0  0  0  0  0  0  0  0  0
   19.8258   19.3200   20.3280 C   0  0  0  0  0  0  0  0  0  0  0  0
   20.2614   20.3257   20.2451 H   0  0  0  0  0  0  0  0  0  0  0  0
   18.8129   19.3776   19.9053 H   0  0  0  0  0  0  0  0  0  0  0  0
   20.6689   18.3267   19.5002 C   0  0  0  0  0  0  0  0  0  0  0  0
   21.6990   18.2738   19.8760 H   0  0  0  0  0  0  0  0  0  0  0  0
   20.7101   18.6366   18.4479 H   0  0  0  0  0  0  0  0  0  0  0  0
   20.2389   17.3173   19.5373 H   0  0  0  0  0  0  0  0  0  0  0  0
  1  2  1  0  0  0  0
  1  3  1  0  0  0  0
  1  4  1  0  0  0  0
  1  5  1  0  0  0  0
  5  6  1  0  0  0  0
  5  7  1  0  0  0  0
  5  8  1  0  0  0  0
  8  9  1  0  0  0  0
  8 10  1  0  0  0  0
  8 11  1  0  0  0  0
 11 12  1  0  0  0  0
 11 13  1  0  0  0  0
 11 14  1  0  0  0  0
 14 15  1  0  0  0  0
 14 16  1  0  0  0  0
 14 17  1  0  0  0  0
 17 18  1  0  0  0  0
 17 19  1  0  0  0  0
 17 20  1  0  0  0  0
 20 21  1  0  0  0  0
 20 22  1  0  0  0  0
 20 23  1  0  0  0  0
M  END
> <VM2 Rank>
42

> <Conf_Id>
882

> <Probability>
0.11

> <Sum Probability>
98.88

> <Delta G>
2.812

> <G>
40.728

> <E>
13.064

> <-TS>
27.665

> <U+W>
-5.716

> <U>
50.170

> <W>
-55.885

> <W(PB)>
-57.989

> <W(SA)>
2.104

> <Valence>
3.335

> <Coulomb>
46.425

> <VdW>
0.410

> <VdW6>
-6.121

> <VdW12>
6.530

> <Bond>
0.172

> <Angle>
0.958

> <Pdih>
2.205

> <Idih>
0.000

> <Tether>
0.000

$$$$
VeraChem MOL file


 23 22  0  0  0  0  0  0  0  0999 V2000     
   19.6968   17.6250   24.7891 N   0  3  0  0  0  0  0  0  0  0  0  0
   19.6463   17.3274   23.8111 H   0  0  0  0  0  0  0  0  0  0  0  0
   19.1002   16.9896   25.3298 H   0  0  0  0  0  0  0  0  0  0  0  0
   20.6598   17.4689   25.1038 H   0  0  0  0  0  0  0  0  0  0  0  0
   19.2775   19.0722   24.9617 C   0  0  0  0  0  0  0  0  0  0  0  0
   19.3531   19.3002   26.0284 H   0  0  0  0  0  0  0  0  0  0  0  0
   18.2286   19.1686   24.6686 H   0  0  0  0  0  0  0  0  0  0  0  0
   20.1373   20.0806   24.1712 C   0  0  0  0  0  0  0  0  0  0  0  0
   20.0372   21.0593   24.6590 H   0  0  0  0  0  0  0  0  0  0  0  0
   21.1992   19.8124   24.2499 H   0  0  0  0  0  0  0  0  0  0  0  0
   19.7310   20.2474   22.6845 C   0  0  0  0  0  0  0  0  0  0  0  0
   20.3321   21.0612   22.2557 H   0  0  0  0  0  0  0  0  0  0  0  0
   18.6843   20.5770   22.6263 H   0  0  0  0  0  0  0  0  0  0  0  0
   19.9204   18.9768   21.8221 C   0  0  0  0  0  0  0  0  0  0  0  0
   20.9351   18.5802   21.9653 H   0  0  0  0  0  0  0  0  0  0  0  0
   19.2156   18.2004   22.1441 H   0  0  0  0  0  0  0  0  0  0  0  0
   19.6888   19.2630   20.3218 C   0  0  0  0  0  0  0  0  0  0  0  0
   20.3919   20.0343   19.9773 H   0  0  0  0  0  0  0  0  0  0  0  0
   18.6775   19.6668   20.1728 H   0  0  0  0  0  0  0  0  0  0  0  0
   19.8643   17.9920   19.4636 C   0  0  0  0  0  0  0  0  0  0  0  0
   19.1494   17.2133   19.7599 H   0  0  0  0  0  0  0  0  0  0  0  0
   20.8779   17.5829   19.5665 H   0  0  0  0  0  0  0  0  0  0  0  0
   19.6977   18.2153   18.4018 H   0  0  0  0  0  0  0  0  0  0  0  0
  1  2  1  0  0  0  0
  1  3  1  0  0  0  0
  1  4  1  0  0  0  0
  1  5  1  0  0  0  0
  5  6  1  0  0  0  0
  5  7  1  0  0  0  0
  5  8  1  0  0  0  0
  8  9  1  0  0  0  0
  8 10  1  0  0  0  0
  8 11  1  0  0  0  0
 11 12  1  0  0  0  0
 11 13  1  0  0  0  0
 11 14  1  0  0  0  0
 14 15  1  0  0  0  0
 14 16  1  0  0  0  0
 14 17  1  0  0  0  0
 17 18  1  0  0  0  0
 17 19  1  0  0  0  0
 17 20  1  0  0  0  0
 20 21  1  0  0  0  0
 20 22  1  0  0  0  0
 20 23  1  0  0  0  0
M  END
> <VM2 Rank>
43

> <Conf_Id>
174

> <Probability>
0.11

> <Sum Probability>
98.99

> <Delta G>
2.817

> <G>
40.734

> <E>
13.069

> <-TS>
27.665

> <U+W>
-5.710

> <U>
50.170

> <W>
-55.880

> <W(PB)>
-57.975

> <W(SA)>
2.095

> <Valence>
3.335

> <Coulomb>
46.425

> <VdW>
0.410

> <VdW6>
-6.121

> <VdW12>
6.531

> <Bond>
0.172

> <Angle>
0.958

> <Pdih>
2.205

> <Idih>
0.000

> <Tether>
0.000

$$$$
VeraChem MOL file


 23 22  0  0  0  0  0  0  0  0999 V2000     
   20.6932   18.8414   25.6433 N   0  3  0  0  0  0  0  0  0  0  0  0
   20.1203   19.3021   26.3578 H   0  0  0  0  0  0  0  0  0  0  0  0
   21.6669   19.1074   25.8253 H   0  0  0  0  0  0  0  0  0  0  0  0
   20.6246   17.8318   25.8069 H   0  0  0  0  0  0  0  0  0  0  0  0
   20.2590   19.2178   24.2413 C   0  0  0  0  0  0  0  0  0  0  0  0
   20.9289   18.7150   23.5397 H   0  0  0  0  0  0  0  0  0  0  0  0
   20.3829   20.2981   24.1276 H   0  0  0  0  0  0  0  0  0  0  0  0
   18.8023   18.8271   23.9357 C   0  0  0  0  0  0  0  0  0  0  0  0
   18.6947   17.7365   24.0070 H   0  0  0  0  0  0  0  0  0  0  0  0
   18.1510   19.2542   24.7098 H   0  0  0  0  0  0  0  0  0  0  0  0
   18.3014   19.3078   22.5502 C   0  0  0  0  0  0  0  0  0  0  0  0
   18.3337   20.4047   22.4951 H   0  0  0  0  0  0  0  0  0  0  0  0
   17.2391   19.0380   22.4716 H   0  0  0  0  0  0  0  0  0  0  0  0
   19.0463   18.6864   21.3397 C   0  0  0  0  0  0  0  0  0  0  0  0
   19.3446   17.6542   21.5696 H   0  0  0  0  0  0  0  0  0  0  0  0
   18.3400   18.6173   20.5006 H   0  0  0  0  0  0  0  0  0  0  0  0
   20.2702   19.5087   20.8680 C   0  0  0  0  0  0  0  0  0  0  0  0
   21.0115   19.6008   21.6701 H   0  0  0  0  0  0  0  0  0  0  0  0
   19.9530   20.5302   20.6157 H   0  0  0  0  0  0  0  0  0  0  0  0
   20.9436   18.8678   19.6358 C   0  0  0  0  0  0  0  0  0  0  0  0
   21.8054   19.4649   19.3105 H   0  0  0  0  0  0  0  0  0  0  0  0
   20.2435   18.8006   18.7928 H   0  0  0  0  0  0  0  0  0  0  0  0
   21.3021   17.8556   19.8640 H   0  0  0  0  0  0  0  0  0  0  0  0
  1  2  1  0  0  0  0
  1  3  1  0  0  0  0
  1  4  1  0  0  0  0
  1  5  1  0  0  0  0
  5  6  1  0  0  0  0
  5  7  1  0  0  0  0
  5  8  1  0  0  0  0
  8  9  1  0  0  0  0
  8 10  1  0  0  0  0
  8 11  1  0  0  0  0
 11 12  1  0  0  0  0
 11 13  1  0  0  0  0
 11 14  1  0  0  0  0
 14 15  1  0  0  0  0
 14 16  1  0  0  0  0
 14 17  1  0  0  0  0
 17 18  1  0  0  0  0
 17 19  1  0  0  0  0
 17 20  1  0  0  0  0
 20 21  1  0  0  0  0
 20 22  1  0  0  0  0
 20 23  1  0  0  0  0
M  END
> <VM2 Rank>
44

> <Conf_Id>
1118

> <Probability>
0.10

> <Sum Probability>
99.09

> <Delta G>
2.836

> <G>
40.753

> <E>
13.107

> <-TS>
27.646

> <U+W>
-5.672

> <U>
50.133

> <W>
-55.805

> <W(PB)>
-57.921

> <W(SA)>
2.116

> <Valence>
4.276

> <Coulomb>
45.339

> <VdW>
0.519

> <VdW6>
-6.084

> <VdW12>
6.603

> <Bond>
0.193

> <Angle>
1.128

> <Pdih>
2.955

> <Idih>
0.000

> <Tether>
0.000

$$$$
VeraChem MOL file


 23 22  0  0  0  0  0  0  0  0999 V2000     
   19.0063   18.1397   25.5664 N   0  3  0  0  0  0  0  0  0  0  0  0
   19.0267   18.8473   26.3079 H   0  0  0  0  0  0  0  0  0  0  0  0
   19.7565   17.4708   25.7675 H   0  0  0  0  0  0  0  0  0  0  0  0
   18.1203   17.6321   25.6636 H   0  0  0  0  0  0  0  0  0  0  0  0
   19.1534   18.7578   24.1909 C   0  0  0  0  0  0  0  0  0  0  0  0
   18.3104   19.4359   24.0330 H   0  0  0  0  0  0  0  0  0  0  0  0
   19.0937   17.9514   23.4560 H   0  0  0  0  0  0  0  0  0  0  0  0
   20.4763   19.5234   24.0120 C   0  0  0  0  0  0  0  0  0  0  0  0
   20.5709   20.2610   24.8201 H   0  0  0  0  0  0  0  0  0  0  0  0
   21.3184   18.8280   24.1267 H   0  0  0  0  0  0  0  0  0  0  0  0
   20.5950   20.2619   22.6548 C   0  0  0  0  0  0  0  0  0  0  0  0
   21.5379   20.8261   22.6675 H   0  0  0  0  0  0  0  0  0  0  0  0
   19.8001   21.0147   22.5618 H   0  0  0  0  0  0  0  0  0  0  0  0
   20.6060   19.3351   21.4108 C   0  0  0  0  0  0  0  0  0  0  0  0
   21.2158   19.8134   20.6317 H   0  0  0  0  0  0  0  0  0  0  0  0
   21.1094   18.3882   21.6501 H   0  0  0  0  0  0  0  0  0  0  0  0
   19.2012   19.0641   20.8192 C   0  0  0  0  0  0  0  0  0  0  0  0
   18.7204   20.0176   20.5594 H   0  0  0  0  0  0  0  0  0  0  0  0
   18.5533   18.5784   21.5581 H   0  0  0  0  0  0  0  0  0  0  0  0
   19.2778   18.1749   19.5599 C   0  0  0  0  0  0  0  0  0  0  0  0
   18.2753   17.9966   19.1496 H   0  0  0  0  0  0  0  0  0  0  0  0
   19.7250   17.1996   19.7922 H   0  0  0  0  0  0  0  0  0  0  0  0
   19.8823   18.6503   18.7764 H   0  0  0  0  0  0  0  0  0  0  0  0
  1  2  1  0  0  0  0
  1  3  1  0  0  0  0
  1  4  1  0  0  0  0
  1  5  1  0  0  0  0
  5  6  1  0  0  0  0
  5  7  1  0  0  0  0
  5  8  1  0  0  0  0
  8  9  1  0  0  0  0
  8 10  1  0  0  0  0
  8 11  1  0  0  0  0
 11 12  1  0  0  0  0
 11 13  1  0  0  0  0
 11 14  1  0  0  0  0
 14 15  1  0  0  0  0
 14 16  1  0  0  0  0
 14 17  1  0  0  0  0
 17 18  1  0  0  0  0
 17 19  1  0  0  0  0
 17 20  1  0  0  0  0
 20 21  1  0  0  0  0
 20 22  1  0  0  0  0
 20 23  1  0  0  0  0
M  END
> <VM2 Rank>
45

> <Conf_Id>
341

> <Probability>
0.10

> <Sum Probability>
99.19

> <Delta G>
2.884

> <G>
40.800

> <E>
13.154

> <-TS>
27.646

> <U+W>
-5.625

> <U>
50.133

> <W>
-55.759

> <W(PB)>
-57.887

> <W(SA)>
2.128

> <Valence>
4.276

> <Coulomb>
45.339

> <VdW>
0.519

> <VdW6>
-6.084

> <VdW12>
6.603

> <Bond>
0.193

> <Angle>
1.128

> <Pdih>
2.955

> <Idih>
0.000

> <Tether>
0.000

$$$$
VeraChem MOL file


 23 22  0  0  0  0  0  0  0  0999 V2000     
   20.3685   18.3573   25.8665 N   0  3  0  0  0  0  0  0  0  0  0  0
   19.6605   17.6421   26.0615 H   0  0  0  0  0  0  0  0  0  0  0  0
   20.5987   18.8005   26.7624 H   0  0  0  0  0  0  0  0  0  0  0  0
   21.2123   17.8684   25.5507 H   0  0  0  0  0  0  0  0  0  0  0  0
   19.8851   19.3683   24.8466 C   0  0  0  0  0  0  0  0  0  0  0  0
   20.6736   20.1133   24.7099 H   0  0  0  0  0  0  0  0  0  0  0  0
   19.0059   19.8702   25.2596 H   0  0  0  0  0  0  0  0  0  0  0  0
   19.5302   18.7351   23.4896 C   0  0  0  0  0  0  0  0  0  0  0  0
   20.4092   18.2134   23.0948 H   0  0  0  0  0  0  0  0  0  0  0  0
   18.7502   17.9763   23.6367 H   0  0  0  0  0  0  0  0  0  0  0  0
   19.0313   19.8008   22.4842 C   0  0  0  0  0  0  0  0  0  0  0  0
   19.7781   20.5986   22.3694 H   0  0  0  0  0  0  0  0  0  0  0  0
   18.1388   20.2800   22.9103 H   0  0  0  0  0  0  0  0  0  0  0  0
   18.6590   19.2162   21.0964 C   0  0  0  0  0  0  0  0  0  0  0  0
   18.3077   18.1803   21.2003 H   0  0  0  0  0  0  0  0  0  0  0  0
   17.8011   19.7813   20.7065 H   0  0  0  0  0  0  0  0  0  0  0  0
   19.7871   19.2924   20.0359 C   0  0  0  0  0  0  0  0  0  0  0  0
   20.0597   20.3429   19.8628 H   0  0  0  0  0  0  0  0  0  0  0  0
   19.3922   18.9198   19.0803 H   0  0  0  0  0  0  0  0  0  0  0  0
   21.0548   18.4869   20.3948 C   0  0  0  0  0  0  0  0  0  0  0  0
   20.8073   17.4459   20.6394 H   0  0  0  0  0  0  0  0  0  0  0  0
   21.5815   18.9319   21.2478 H   0  0  0  0  0  0  0  0  0  0  0  0
   21.7541   18.4757   19.5487 H   0  0  0  0  0  0  0  0  0  0  0  0
  1  2  1  0  0  0  0
  1  3  1  0  0  0  0
  1  4  1  0  0  0  0
  1  5  1  0  0  0  0
  5  6  1  0  0  0  0
  5  7  1  0  0  0  0
  5  8  1  0  0  0  0
  8  9  1  0  0  0  0
  8 10  1  0  0  0  0
  8 11  1  0  0  0  0
 11 12  1  0  0  0  0
 11 13  1  0  0  0  0
 11 14  1  0  0  0  0
 14 15  1  0  0  0  0
 14 16  1  0  0  0  0
 14 17  1  0  0  0  0
 17 18  1  0  0  0  0
 17 19  1  0  0  0  0
 17 20  1  0  0  0  0
 20 21  1  0  0  0  0
 20 22  1  0  0  0  0
 20 23  1  0  0  0  0
M  END
> <VM2 Rank>
46

> <Conf_Id>
79

> <Probability>
0.05

> <Sum Probability>
99.24

> <Delta G>
3.294

> <G>
41.210

> <E>
13.349

> <-TS>
27.862

> <U+W>
-5.431

> <U>
50.253

> <W>
-55.684

> <W(PB)>
-57.781

> <W(SA)>
2.097

> <Valence>
4.702

> <Coulomb>
44.992

> <VdW>
0.559

> <VdW6>
-6.152

> <VdW12>
6.711

> <Bond>
0.198

> <Angle>
1.163

> <Pdih>
3.341

> <Idih>
0.000

> <Tether>
0.000

$$$$
VeraChem MOL file


 23 22  0  0  0  0  0  0  0  0999 V2000     
   20.0630   17.8546   24.9966 N   0  3  0  0  0  0  0  0  0  0  0  0
   20.1614   17.3940   24.0879 H   0  0  0  0  0  0  0  0  0  0  0  0
   19.1645   17.5583   25.3910 H   0  0  0  0  0  0  0  0  0  0  0  0
   20.7954   17.4774   25.6076 H   0  0  0  0  0  0  0  0  0  0  0  0
   20.1534   19.3636   24.8770 C   0  0  0  0  0  0  0  0  0  0  0  0
   21.1482   19.6243   24.5059 H   0  0  0  0  0  0  0  0  0  0  0  0
   20.0520   19.7696   25.8872 H   0  0  0  0  0  0  0  0  0  0  0  0
   19.0749   19.9952   23.9722 C   0  0  0  0  0  0  0  0  0  0  0  0
   18.0970   19.5396   24.1774 H   0  0  0  0  0  0  0  0  0  0  0  0
   18.9796   21.0521   24.2547 H   0  0  0  0  0  0  0  0  0  0  0  0
   19.3920   19.9356   22.4560 C   0  0  0  0  0  0  0  0  0  0  0  0
   20.3489   20.4413   22.2691 H   0  0  0  0  0  0  0  0  0  0  0  0
   18.6273   20.5176   21.9233 H   0  0  0  0  0  0  0  0  0  0  0  0
   19.4313   18.5033   21.8671 C   0  0  0  0  0  0  0  0  0  0  0  0
   20.3098   17.9664   22.2458 H   0  0  0  0  0  0  0  0  0  0  0  0
   18.5455   17.9480   22.2052 H   0  0  0  0  0  0  0  0  0  0  0  0
   19.4643   18.4801   20.3199 C   0  0  0  0  0  0  0  0  0  0  0  0
   18.5736   18.9856   19.9211 H   0  0  0  0  0  0  0  0  0  0  0  0
   19.4027   17.4367   19.9803 H   0  0  0  0  0  0  0  0  0  0  0  0
   20.7371   19.1245   19.7252 C   0  0  0  0  0  0  0  0  0  0  0  0
   20.7849   20.1984   19.9448 H   0  0  0  0  0  0  0  0  0  0  0  0
   20.7520   19.0098   18.6336 H   0  0  0  0  0  0  0  0  0  0  0  0
   21.6433   18.6510   20.1248 H   0  0  0  0  0  0  0  0  0  0  0  0
  1  2  1  0  0  0  0
  1  3  1  0  0  0  0
  1  4  1  0  0  0  0
  1  5  1  0  0  0  0
  5  6  1  0  0  0  0
  5  7  1  0  0  0  0
  5  8  1  0  0  0  0
  8  9  1  0  0  0  0
  8 10  1  0  0  0  0
  8 11  1  0  0  0  0
 11 12  1  0  0  0  0
 11 13  1  0  0  0  0
 11 14  1  0  0  0  0
 14 15  1  0  0  0  0
 14 16  1  0  0  0  0
 14 17  1  0  0  0  0
 17 18  1  0  0  0  0
 17 19  1  0  0  0  0
 17 20  1  0  0  0  0
 20 21  1  0  0  0  0
 20 22  1  0  0  0  0
 20 23  1  0  0  0  0
M  END
> <VM2 Rank>
47

> <Conf_Id>
918

> <Probability>
0.05

> <Sum Probability>
99.28

> <Delta G>
3.296

> <G>
41.212

> <E>
13.412

> <-TS>
27.800

> <U+W>
-5.367

> <U>
50.658

> <W>
-56.025

> <W(PB)>
-58.107

> <W(SA)>
2.082

> <Valence>
3.781

> <Coulomb>
46.354

> <VdW>
0.522

> <VdW6>
-6.753

> <VdW12>
7.276

> <Bond>
0.207

> <Angle>
1.137

> <Pdih>
2.438

> <Idih>
0.000

> <Tether>
0.000

$$$$
VeraChem MOL file


 23 22  0  0  0  0  0  0  0  0999 V2000     
   19.5597   18.0208   25.8297 N   0  3  0  0  0  0  0  0  0  0  0  0
   19.0151   18.1418   26.6904 H   0  0  0  0  0  0  0  0  0  0  0  0
   20.5480   18.0108   26.1017 H   0  0  0  0  0  0  0  0  0  0  0  0
   19.3375   17.0888   25.4653 H   0  0  0  0  0  0  0  0  0  0  0  0
   19.2626   19.1093   24.8183 C   0  0  0  0  0  0  0  0  0  0  0  0
   19.4927   20.0725   25.2819 H   0  0  0  0  0  0  0  0  0  0  0  0
   18.1922   19.0815   24.5971 H   0  0  0  0  0  0  0  0  0  0  0  0
   20.0649   18.9575   23.5139 C   0  0  0  0  0  0  0  0  0  0  0  0
   21.1383   18.9694   23.7453 H   0  0  0  0  0  0  0  0  0  0  0  0
   19.8475   17.9800   23.0692 H   0  0  0  0  0  0  0  0  0  0  0  0
   19.7387   20.0951   22.5165 C   0  0  0  0  0  0  0  0  0  0  0  0
   19.9930   21.0512   22.9949 H   0  0  0  0  0  0  0  0  0  0  0  0
   18.6585   20.1331   22.3185 H   0  0  0  0  0  0  0  0  0  0  0  0
   20.5215   19.9911   21.1813 C   0  0  0  0  0  0  0  0  0  0  0  0
   20.7537   21.0098   20.8410 H   0  0  0  0  0  0  0  0  0  0  0  0
   21.4935   19.5058   21.3454 H   0  0  0  0  0  0  0  0  0  0  0  0
   19.7579   19.2804   20.0346 C   0  0  0  0  0  0  0  0  0  0  0  0
   20.3728   19.3282   19.1250 H   0  0  0  0  0  0  0  0  0  0  0  0
   18.8360   19.8338   19.8073 H   0  0  0  0  0  0  0  0  0  0  0  0
   19.4108   17.8028   20.3197 C   0  0  0  0  0  0  0  0  0  0  0  0
   18.9937   17.3272   19.4227 H   0  0  0  0  0  0  0  0  0  0  0  0
   18.6599   17.7161   21.1145 H   0  0  0  0  0  0  0  0  0  0  0  0
   20.3028   17.2360   20.6162 H   0  0  0  0  0  0  0  0  0  0  0  0
  1  2  1  0  0  0  0
  1  3  1  0  0  0  0
  1  4  1  0  0  0  0
  1  5  1  0  0  0  0
  5  6  1  0  0  0  0
  5  7  1  0  0  0  0
  5  8  1  0  0  0  0
  8  9  1  0  0  0  0
  8 10  1  0  0  0  0
  8 11  1  0  0  0  0
 11 12  1  0  0  0  0
 11 13  1  0  0  0  0
 11 14  1  0  0  0  0
 14 15  1  0  0  0  0
 14 16  1  0  0  0  0
 14 17  1  0  0  0  0
 17 18  1  0  0  0  0
 17 19  1  0  0  0  0
 17 20  1  0  0  0  0
 20 21  1  0  0  0  0
 20 22  1  0  0  0  0
 20 23  1  0  0  0  0
M  END
> <VM2 Rank>
48

> <Conf_Id>
933

> <Probability>
0.04

> <Sum Probability>
99.33

> <Delta G>
3.353

> <G>
41.270

> <E>
13.408

> <-TS>
27.861

> <U+W>
-5.371

> <U>
50.253

> <W>
-55.624

> <W(PB)>
-57.711

> <W(SA)>
2.087

> <Valence>
4.702

> <Coulomb>
44.992

> <VdW>
0.559

> <VdW6>
-6.152

> <VdW12>
6.711

> <Bond>
0.198

> <Angle>
1.163

> <Pdih>
3.340

> <Idih>
0.000

> <Tether>
0.000

$$$$
VeraChem MOL file


 23 22  0  0  0  0  0  0  0  0999 V2000     
   20.1978   17.9108   25.0028 N   0  3  0  0  0  0  0  0  0  0  0  0
   20.5255   17.5456   24.1046 H   0  0  0  0  0  0  0  0  0  0  0  0
   19.9036   17.1063   25.5670 H   0  0  0  0  0  0  0  0  0  0  0  0
   21.0076   18.3254   25.4752 H   0  0  0  0  0  0  0  0  0  0  0  0
   19.0750   18.9149   24.8279 C   0  0  0  0  0  0  0  0  0  0  0  0
   18.7803   19.2405   25.8292 H   0  0  0  0  0  0  0  0  0  0  0  0
   18.2211   18.4062   24.3725 H   0  0  0  0  0  0  0  0  0  0  0  0
   19.4548   20.1533   23.9895 C   0  0  0  0  0  0  0  0  0  0  0  0
   18.7513   20.9571   24.2442 H   0  0  0  0  0  0  0  0  0  0  0  0
   20.4477   20.5179   24.2845 H   0  0  0  0  0  0  0  0  0  0  0  0
   19.3920   19.9356   22.4559 C   0  0  0  0  0  0  0  0  0  0  0  0
   19.5579   20.9047   21.9656 H   0  0  0  0  0  0  0  0  0  0  0  0
   18.3768   19.6208   22.1792 H   0  0  0  0  0  0  0  0  0  0  0  0
   20.4244   18.9164   21.9125 C   0  0  0  0  0  0  0  0  0  0  0  0
   21.4130   19.1409   22.3361 H   0  0  0  0  0  0  0  0  0  0  0  0
   20.1585   17.9034   22.2389 H   0  0  0  0  0  0  0  0  0  0  0  0
   20.5378   18.9266   20.3689 C   0  0  0  0  0  0  0  0  0  0  0  0
   21.3461   18.2450   20.0690 H   0  0  0  0  0  0  0  0  0  0  0  0
   20.8362   19.9267   20.0243 H   0  0  0  0  0  0  0  0  0  0  0  0
   19.2343   18.4994   19.6566 C   0  0  0  0  0  0  0  0  0  0  0  0
   18.9024   17.5109   19.9997 H   0  0  0  0  0  0  0  0  0  0  0  0
   19.3899   18.4432   18.5714 H   0  0  0  0  0  0  0  0  0  0  0  0
   18.4235   19.2162   19.8369 H   0  0  0  0  0  0  0  0  0  0  0  0
  1  2  1  0  0  0  0
  1  3  1  0  0  0  0
  1  4  1  0  0  0  0
  1  5  1  0  0  0  0
  5  6  1  0  0  0  0
  5  7  1  0  0  0  0
  5  8  1  0  0  0  0
  8  9  1  0  0  0  0
  8 10  1  0  0  0  0
  8 11  1  0  0  0  0
 11 12  1  0  0  0  0
 11 13  1  0  0  0  0
 11 14  1  0  0  0  0
 14 15  1  0  0  0  0
 14 16  1  0  0  0  0
 14 17  1  0  0  0  0
 17 18  1  0  0  0  0
 17 19  1  0  0  0  0
 17 20  1  0  0  0  0
 20 21  1  0  0  0  0
 20 22  1  0  0  0  0
 20 23  1  0  0  0  0
M  END
> <VM2 Rank>
49

> <Conf_Id>
349

> <Probability>
0.04

> <Sum Probability>
99.37

> <Delta G>
3.367

> <G>
41.283

> <E>
13.482

> <-TS>
27.801

> <U+W>
-5.297

> <U>
50.658

> <W>
-55.955

> <W(PB)>
-58.037

> <W(SA)>
2.082

> <Valence>
3.781

> <Coulomb>
46.354

> <VdW>
0.522

> <VdW6>
-6.754

> <VdW12>
7.276

> <Bond>
0.207

> <Angle>
1.137

> <Pdih>
2.438

> <Idih>
0.000

> <Tether>
0.000

$$$$
VeraChem MOL file


 23 22  0  0  0  0  0  0  0  0999 V2000     
   19.5924   17.9219   25.7385 N   0  3  0  0  0  0  0  0  0  0  0  0
   20.5128   17.4720   25.7019 H   0  0  0  0  0  0  0  0  0  0  0  0
   18.9052   17.2295   25.4237 H   0  0  0  0  0  0  0  0  0  0  0  0
   19.3928   18.1119   26.7265 H   0  0  0  0  0  0  0  0  0  0  0  0
   19.5468   19.1849   24.9026 C   0  0  0  0  0  0  0  0  0  0  0  0
   20.2796   19.8862   25.3108 H   0  0  0  0  0  0  0  0  0  0  0  0
   18.5520   19.6256   25.0107 H   0  0  0  0  0  0  0  0  0  0  0  0
   19.8432   18.9345   23.4133 C   0  0  0  0  0  0  0  0  0  0  0  0
   20.8369   18.4789   23.3099 H   0  0  0  0  0  0  0  0  0  0  0  0
   19.1095   18.2192   23.0214 H   0  0  0  0  0  0  0  0  0  0  0  0
   19.7827   20.2464   22.5985 C   0  0  0  0  0  0  0  0  0  0  0  0
   20.4209   20.9973   23.0848 H   0  0  0  0  0  0  0  0  0  0  0  0
   18.7605   20.6485   22.6299 H   0  0  0  0  0  0  0  0  0  0  0  0
   20.2366   20.1064   21.1222 C   0  0  0  0  0  0  0  0  0  0  0  0
   20.1938   21.1060   20.6679 H   0  0  0  0  0  0  0  0  0  0  0  0
   21.2929   19.8074   21.0782 H   0  0  0  0  0  0  0  0  0  0  0  0
   19.3718   19.1490   20.2620 C   0  0  0  0  0  0  0  0  0  0  0  0
   19.3156   19.5512   19.2407 H   0  0  0  0  0  0  0  0  0  0  0  0
   18.3384   19.1280   20.6352 H   0  0  0  0  0  0  0  0  0  0  0  0
   19.9425   17.7139   20.1770 C   0  0  0  0  0  0  0  0  0  0  0  0
   20.0044   17.2347   21.1601 H   0  0  0  0  0  0  0  0  0  0  0  0
   20.9493   17.7181   19.7395 H   0  0  0  0  0  0  0  0  0  0  0  0
   19.3063   17.0851   19.5407 H   0  0  0  0  0  0  0  0  0  0  0  0
  1  2  1  0  0  0  0
  1  3  1  0  0  0  0
  1  4  1  0  0  0  0
  1  5  1  0  0  0  0
  5  6  1  0  0  0  0
  5  7  1  0  0  0  0
  5  8  1  0  0  0  0
  8  9  1  0  0  0  0
  8 10  1  0  0  0  0
  8 11  1  0  0  0  0
 11 12  1  0  0  0  0
 11 13  1  0  0  0  0
 11 14  1  0  0  0  0
 14 15  1  0  0  0  0
 14 16  1  0  0  0  0
 14 17  1  0  0  0  0
 17 18  1  0  0  0  0
 17 19  1  0  0  0  0
 17 20  1  0  0  0  0
 20 21  1  0  0  0  0
 20 22  1  0  0  0  0
 20 23  1  0  0  0  0
M  END
> <VM2 Rank>
50

> <Conf_Id>
372

> <Probability>
0.04

> <Sum Probability>
99.41

> <Delta G>
3.397

> <G>
41.313

> <E>
13.461

> <-TS>
27.853

> <U+W>
-5.319

> <U>
50.301

> <W>
-55.620

> <W(PB)>
-57.719

> <W(SA)>
2.099

> <Valence>
4.724

> <Coulomb>
45.004

> <VdW>
0.574

> <VdW6>
-6.145

> <VdW12>
6.719

> <Bond>
0.198

> <Angle>
1.201

> <Pdih>
3.325

> <Idih>
0.000

> <Tether>
0.000

$$$$
VeraChem MOL file


 23 22  0  0  0  0  0  0  0  0999 V2000     
   18.8073   18.3045   25.1314 N   0  3  0  0  0  0  0  0  0  0  0  0
   19.0370   17.4631   24.5943 H   0  0  0  0  0  0  0  0  0  0  0  0
   17.8293   18.2144   25.4266 H   0  0  0  0  0  0  0  0  0  0  0  0
   19.3786   18.2859   25.9822 H   0  0  0  0  0  0  0  0  0  0  0  0
   19.0381   19.5681   24.3255 C   0  0  0  0  0  0  0  0  0  0  0  0
   18.7359   20.4142   24.9487 H   0  0  0  0  0  0  0  0  0  0  0  0
   18.3782   19.5377   23.4569 H   0  0  0  0  0  0  0  0  0  0  0  0
   20.5036   19.7637   23.8822 C   0  0  0  0  0  0  0  0  0  0  0  0
   20.6192   20.7592   23.4335 H   0  0  0  0  0  0  0  0  0  0  0  0
   21.1338   19.7650   24.7815 H   0  0  0  0  0  0  0  0  0  0  0  0
   21.0322   18.6841   22.8999 C   0  0  0  0  0  0  0  0  0  0  0  0
   20.6696   17.6885   23.1865 H   0  0  0  0  0  0  0  0  0  0  0  0
   22.1250   18.6387   23.0055 H   0  0  0  0  0  0  0  0  0  0  0  0
   20.7229   18.9499   21.4035 C   0  0  0  0  0  0  0  0  0  0  0  0
   21.1829   19.8995   21.0970 H   0  0  0  0  0  0  0  0  0  0  0  0
   21.2165   18.1679   20.8100 H   0  0  0  0  0  0  0  0  0  0  0  0
   19.2182   18.9709   21.0490 C   0  0  0  0  0  0  0  0  0  0  0  0
   18.7408   19.8508   21.4988 H   0  0  0  0  0  0  0  0  0  0  0  0
   18.7230   18.0821   21.4642 H   0  0  0  0  0  0  0  0  0  0  0  0
   18.9937   19.0159   19.5225 C   0  0  0  0  0  0  0  0  0  0  0  0
   19.4569   19.9083   19.0818 H   0  0  0  0  0  0  0  0  0  0  0  0
   17.9214   19.0428   19.2892 H   0  0  0  0  0  0  0  0  0  0  0  0
   19.4220   18.1312   19.0335 H   0  0  0  0  0  0  0  0  0  0  0  0
  1  2  1  0  0  0  0
  1  3  1  0  0  0  0
  1  4  1  0  0  0  0
  1  5  1  0  0  0  0
  5  6  1  0  0  0  0
  5  7  1  0  0  0  0
  5  8  1  0  0  0  0
  8  9  1  0  0  0  0
  8 10  1  0  0  0  0
  8 11  1  0  0  0  0
 11 12  1  0  0  0  0
 11 13  1  0  0  0  0
 11 14  1  0  0  0  0
 14 15  1  0  0  0  0
 14 16  1  0  0  0  0
 14 17  1  0  0  0  0
 17 18  1  0  0  0  0
 17 19  1  0  0  0  0
 17 20  1  0  0  0  0
 20 21  1  0  0  0  0
 20 22  1  0  0  0  0
 20 23  1  0  0  0  0
M  END
> <VM2 Rank>
51

> <Conf_Id>
1149

> <Probability>
0.04

> <Sum Probability>
99.45

> <Delta G>
3.398

> <G>
41.315

> <E>
13.416

> <-TS>
27.899

> <U+W>
-5.364

> <U>
50.743

> <W>
-56.106

> <W(PB)>
-58.186

> <W(SA)>
2.080

> <Valence>
4.299

> <Coulomb>
45.941

> <VdW>
0.503

> <VdW6>
-6.823

> <VdW12>
7.326

> <Bond>
0.216

> <Angle>
1.354

> <Pdih>
2.729

> <Idih>
0.000

> <Tether>
0.000

$$$$
VeraChem MOL file


 23 22  0  0  0  0  0  0  0  0999 V2000     
   20.4226   18.2673   25.7763 N   0  3  0  0  0  0  0  0  0  0  0  0
   21.4196   18.2753   25.5382 H   0  0  0  0  0  0  0  0  0  0  0  0
   20.0978   17.2995   25.6831 H   0  0  0  0  0  0  0  0  0  0  0  0
   20.3517   18.5108   26.7702 H   0  0  0  0  0  0  0  0  0  0  0  0
   19.6254   19.2176   24.9061 C   0  0  0  0  0  0  0  0  0  0  0  0
   20.0034   20.2293   25.0768 H   0  0  0  0  0  0  0  0  0  0  0  0
   18.5828   19.1805   25.2335 H   0  0  0  0  0  0  0  0  0  0  0  0
   19.7100   18.8791   23.4072 C   0  0  0  0  0  0  0  0  0  0  0  0
   20.7618   18.9065   23.0967 H   0  0  0  0  0  0  0  0  0  0  0  0
   19.3430   17.8575   23.2419 H   0  0  0  0  0  0  0  0  0  0  0  0
   18.8870   19.8738   22.5576 C   0  0  0  0  0  0  0  0  0  0  0  0
   19.3175   20.8801   22.6552 H   0  0  0  0  0  0  0  0  0  0  0  0
   17.8696   19.9360   22.9685 H   0  0  0  0  0  0  0  0  0  0  0  0
   18.7820   19.5013   21.0559 C   0  0  0  0  0  0  0  0  0  0  0  0
   18.2555   18.5439   20.9397 H   0  0  0  0  0  0  0  0  0  0  0  0
   18.1395   20.2515   20.5743 H   0  0  0  0  0  0  0  0  0  0  0  0
   20.1335   19.4658   20.2967 C   0  0  0  0  0  0  0  0  0  0  0  0
   20.8448   20.1706   20.7494 H   0  0  0  0  0  0  0  0  0  0  0  0
   19.9674   19.8223   19.2704 H   0  0  0  0  0  0  0  0  0  0  0  0
   20.7555   18.0521   20.2140 C   0  0  0  0  0  0  0  0  0  0  0  0
   20.0797   17.3564   19.6999 H   0  0  0  0  0  0  0  0  0  0  0  0
   20.9750   17.6385   21.2043 H   0  0  0  0  0  0  0  0  0  0  0  0
   21.6966   18.0794   19.6496 H   0  0  0  0  0  0  0  0  0  0  0  0
  1  2  1  0  0  0  0
  1  3  1  0  0  0  0
  1  4  1  0  0  0  0
  1  5  1  0  0  0  0
  5  6  1  0  0  0  0
  5  7  1  0  0  0  0
  5  8  1  0  0  0  0
  8  9  1  0  0  0  0
  8 10  1  0  0  0  0
  8 11  1  0  0  0  0
 11 12  1  0  0  0  0
 11 13  1  0  0  0  0
 11 14  1  0  0  0  0
 14 15  1  0  0  0  0
 14 16  1  0  0  0  0
 14 17  1  0  0  0  0
 17 18  1  0  0  0  0
 17 19  1  0  0  0  0
 17 20  1  0  0  0  0
 20 21  1  0  0  0  0
 20 22  1  0  0  0  0
 20 23  1  0  0  0  0
M  END
> <VM2 Rank>
52

> <Conf_Id>
568

> <Probability>
0.04

> <Sum Probability>
99.49

> <Delta G>
3.454

> <G>
41.370

> <E>
13.518

> <-TS>
27.852

> <U+W>
-5.261

> <U>
50.301

> <W>
-55.562

> <W(PB)>
-57.696

> <W(SA)>
2.134

> <Valence>
4.724

> <Coulomb>
45.004

> <VdW>
0.574

> <VdW6>
-6.145

> <VdW12>
6.719

> <Bond>
0.198

> <Angle>
1.201

> <Pdih>
3.325

> <Idih>
0.000

> <Tether>
0.000

$$$$
VeraChem MOL file


 23 22  0  0  0  0  0  0  0  0999 V2000     
   20.7497   19.1157   25.2199 N   0  3  0  0  0  0  0  0  0  0  0  0
   20.2970   18.6694   26.0240 H   0  0  0  0  0  0  0  0  0  0  0  0
   21.4753   19.7371   25.5929 H   0  0  0  0  0  0  0  0  0  0  0  0
   21.2280   18.3781   24.6941 H   0  0  0  0  0  0  0  0  0  0  0  0
   19.7536   19.8669   24.3582 C   0  0  0  0  0  0  0  0  0  0  0  0
   20.3043   20.3421   23.5448 H   0  0  0  0  0  0  0  0  0  0  0  0
   19.3161   20.6565   24.9752 H   0  0  0  0  0  0  0  0  0  0  0  0
   18.6232   18.9784   23.7965 C   0  0  0  0  0  0  0  0  0  0  0  0
   18.1115   18.5028   24.6438 H   0  0  0  0  0  0  0  0  0  0  0  0
   17.8703   19.6112   23.3082 H   0  0  0  0  0  0  0  0  0  0  0  0
   19.0958   17.8754   22.8116 C   0  0  0  0  0  0  0  0  0  0  0  0
   18.3549   17.0642   22.8337 H   0  0  0  0  0  0  0  0  0  0  0  0
   20.0342   17.4232   23.1575 H   0  0  0  0  0  0  0  0  0  0  0  0
   19.2395   18.3304   21.3359 C   0  0  0  0  0  0  0  0  0  0  0  0
   19.4951   17.4491   20.7315 H   0  0  0  0  0  0  0  0  0  0  0  0
   18.2671   18.6819   20.9641 H   0  0  0  0  0  0  0  0  0  0  0  0
   20.3053   19.4249   21.0986 C   0  0  0  0  0  0  0  0  0  0  0  0
   21.2508   19.1377   21.5794 H   0  0  0  0  0  0  0  0  0  0  0  0
   19.9800   20.3683   21.5553 H   0  0  0  0  0  0  0  0  0  0  0  0
   20.5488   19.6653   19.5934 C   0  0  0  0  0  0  0  0  0  0  0  0
   21.2984   20.4531   19.4431 H   0  0  0  0  0  0  0  0  0  0  0  0
   19.6252   19.9785   19.0894 H   0  0  0  0  0  0  0  0  0  0  0  0
   20.9149   18.7547   19.1015 H   0  0  0  0  0  0  0  0  0  0  0  0
  1  2  1  0  0  0  0
  1  3  1  0  0  0  0
  1  4  1  0  0  0  0
  1  5  1  0  0  0  0
  5  6  1  0  0  0  0
  5  7  1  0  0  0  0
  5  8  1  0  0  0  0
  8  9  1  0  0  0  0
  8 10  1  0  0  0  0
  8 11  1  0  0  0  0
 11 12  1  0  0  0  0
 11 13  1  0  0  0  0
 11 14  1  0  0  0  0
 14 15  1  0  0  0  0
 14 16  1  0  0  0  0
 14 17  1  0  0  0  0
 17 18  1  0  0  0  0
 17 19  1  0  0  0  0
 17 20  1  0  0  0  0
 20 21  1  0  0  0  0
 20 22  1  0  0  0  0
 20 23  1  0  0  0  0
M  END
> <VM2 Rank>
53

> <Conf_Id>
757

> <Probability>
0.04

> <Sum Probability>
99.52

> <Delta G>
3.455

> <G>
41.371

> <E>
13.472

> <-TS>
27.899

> <U+W>
-5.307

> <U>
50.743

> <W>
-56.049

> <W(PB)>
-58.118

> <W(SA)>
2.069

> <Valence>
4.299

> <Coulomb>
45.941

> <VdW>
0.503

> <VdW6>
-6.823

> <VdW12>
7.326

> <Bond>
0.216

> <Angle>
1.354

> <Pdih>
2.730

> <Idih>
0.000

> <Tether>
0.000

$$$$
VeraChem MOL file


 23 22  0  0  0  0  0  0  0  0999 V2000     
   19.0031   18.0594   25.0903 N   0  3  0  0  0  0  0  0  0  0  0  0
   18.5826   17.7639   24.2052 H   0  0  0  0  0  0  0  0  0  0  0  0
   18.2633   18.0322   25.8002 H   0  0  0  0  0  0  0  0  0  0  0  0
   19.6917   17.3463   25.3510 H   0  0  0  0  0  0  0  0  0  0  0  0
   19.6319   19.4357   24.9868 C   0  0  0  0  0  0  0  0  0  0  0  0
   20.0451   19.6708   25.9714 H   0  0  0  0  0  0  0  0  0  0  0  0
   18.8459   20.1632   24.7672 H   0  0  0  0  0  0  0  0  0  0  0  0
   20.7546   19.5426   23.9338 C   0  0  0  0  0  0  0  0  0  0  0  0
   21.4051   20.3785   24.2239 H   0  0  0  0  0  0  0  0  0  0  0  0
   21.3868   18.6452   23.9646 H   0  0  0  0  0  0  0  0  0  0  0  0
   20.2615   19.8064   22.4877 C   0  0  0  0  0  0  0  0  0  0  0  0
   21.1460   19.9768   21.8611 H   0  0  0  0  0  0  0  0  0  0  0  0
   19.6843   20.7410   22.4636 H   0  0  0  0  0  0  0  0  0  0  0  0
   19.4128   18.6604   21.8817 C   0  0  0  0  0  0  0  0  0  0  0  0
   19.9522   17.7073   21.9706 H   0  0  0  0  0  0  0  0  0  0  0  0
   18.4841   18.5562   22.4555 H   0  0  0  0  0  0  0  0  0  0  0  0
   19.0244   18.8972   20.4017 C   0  0  0  0  0  0  0  0  0  0  0  0
   18.5015   19.8588   20.3029 H   0  0  0  0  0  0  0  0  0  0  0  0
   18.3040   18.1240   20.1000 H   0  0  0  0  0  0  0  0  0  0  0  0
   20.2277   18.8552   19.4320 C   0  0  0  0  0  0  0  0  0  0  0  0
   20.7871   17.9166   19.5369 H   0  0  0  0  0  0  0  0  0  0  0  0
   20.9185   19.6890   19.6064 H   0  0  0  0  0  0  0  0  0  0  0  0
   19.8842   18.9258   18.3918 H   0  0  0  0  0  0  0  0  0  0  0  0
  1  2  1  0  0  0  0
  1  3  1  0  0  0  0
  1  4  1  0  0  0  0
  1  5  1  0  0  0  0
  5  6  1  0  0  0  0
  5  7  1  0  0  0  0
  5  8  1  0  0  0  0
  8  9  1  0  0  0  0
  8 10  1  0  0  0  0
  8 11  1  0  0  0  0
 11 12  1  0  0  0  0
 11 13  1  0  0  0  0
 11 14  1  0  0  0  0
 14 15  1  0  0  0  0
 14 16  1  0  0  0  0
 14 17  1  0  0  0  0
 17 18  1  0  0  0  0
 17 19  1  0  0  0  0
 17 20  1  0  0  0  0
 20 21  1  0  0  0  0
 20 22  1  0  0  0  0
 20 23  1  0  0  0  0
M  END
> <VM2 Rank>
54

> <Conf_Id>
137

> <Probability>
0.03

> <Sum Probability>
99.55

> <Delta G>
3.520

> <G>
41.437

> <E>
13.751

> <-TS>
27.686

> <U+W>
-5.029

> <U>
50.916

> <W>
-55.945

> <W(PB)>
-58.029

> <W(SA)>
2.084

> <Valence>
3.987

> <Coulomb>
46.335

> <VdW>
0.594

> <VdW6>
-6.627

> <VdW12>
7.221

> <Bond>
0.215

> <Angle>
1.275

> <Pdih>
2.497

> <Idih>
0.000

> <Tether>
0.000

$$$$
VeraChem MOL file


 23 22  0  0  0  0  0  0  0  0999 V2000     
   20.7892   18.8024   25.1718 N   0  3  0  0  0  0  0  0  0  0  0  0
   21.3623   18.9198   24.3319 H   0  0  0  0  0  0  0  0  0  0  0  0
   20.7904   17.8034   25.4015 H   0  0  0  0  0  0  0  0  0  0  0  0
   21.2728   19.2842   25.9373 H   0  0  0  0  0  0  0  0  0  0  0  0
   19.3816   19.3317   24.9753 C   0  0  0  0  0  0  0  0  0  0  0  0
   19.4354   20.4084   24.7938 H   0  0  0  0  0  0  0  0  0  0  0  0
   18.8486   19.1735   25.9168 H   0  0  0  0  0  0  0  0  0  0  0  0
   18.5994   18.6460   23.8356 C   0  0  0  0  0  0  0  0  0  0  0  0
   18.7887   17.5644   23.8463 H   0  0  0  0  0  0  0  0  0  0  0  0
   17.5285   18.7658   24.0473 H   0  0  0  0  0  0  0  0  0  0  0  0
   18.8709   19.2278   22.4243 C   0  0  0  0  0  0  0  0  0  0  0  0
   18.6161   20.2965   22.4148 H   0  0  0  0  0  0  0  0  0  0  0  0
   18.1781   18.7418   21.7258 H   0  0  0  0  0  0  0  0  0  0  0  0
   20.3250   19.0399   21.9233 C   0  0  0  0  0  0  0  0  0  0  0  0
   21.0061   19.6055   22.5705 H   0  0  0  0  0  0  0  0  0  0  0  0
   20.6144   17.9828   22.0009 H   0  0  0  0  0  0  0  0  0  0  0  0
   20.5448   19.5297   20.4710 C   0  0  0  0  0  0  0  0  0  0  0  0
   21.6213   19.5040   20.2512 H   0  0  0  0  0  0  0  0  0  0  0  0
   20.2388   20.5815   20.3821 H   0  0  0  0  0  0  0  0  0  0  0  0
   19.8051   18.6795   19.4127 C   0  0  0  0  0  0  0  0  0  0  0  0
   18.7163   18.7730   19.5060 H   0  0  0  0  0  0  0  0  0  0  0  0
   20.0688   17.6178   19.5042 H   0  0  0  0  0  0  0  0  0  0  0  0
   20.0770   19.0059   18.4006 H   0  0  0  0  0  0  0  0  0  0  0  0
  1  2  1  0  0  0  0
  1  3  1  0  0  0  0
  1  4  1  0  0  0  0
  1  5  1  0  0  0  0
  5  6  1  0  0  0  0
  5  7  1  0  0  0  0
  5  8  1  0  0  0  0
  8  9  1  0  0  0  0
  8 10  1  0  0  0  0
  8 11  1  0  0  0  0
 11 12  1  0  0  0  0
 11 13  1  0  0  0  0
 11 14  1  0  0  0  0
 14 15  1  0  0  0  0
 14 16  1  0  0  0  0
 14 17  1  0  0  0  0
 17 18  1  0  0  0  0
 17 19  1  0  0  0  0
 17 20  1  0  0  0  0
 20 21  1  0  0  0  0
 20 22  1  0  0  0  0
 20 23  1  0  0  0  0
M  END
> <VM2 Rank>
55

> <Conf_Id>
736

> <Probability>
0.03

> <Sum Probability>
99.59

> <Delta G>
3.523

> <G>
41.439

> <E>
13.753

> <-TS>
27.686

> <U+W>
-5.026

> <U>
50.916

> <W>
-55.942

> <W(PB)>
-58.000

> <W(SA)>
2.058

> <Valence>
3.987

> <Coulomb>
46.335

> <VdW>
0.594

> <VdW6>
-6.627

> <VdW12>
7.221

> <Bond>
0.215

> <Angle>
1.275

> <Pdih>
2.498

> <Idih>
0.000

> <Tether>
0.000

$$$$
VeraChem MOL file


 23 22  0  0  0  0  0  0  0  0999 V2000     
   20.2009   18.0337   25.4168 N   0  3  0  0  0  0  0  0  0  0  0  0
   20.0958   18.6916   26.1959 H   0  0  0  0  0  0  0  0  0  0  0  0
   21.0250   17.4586   25.6218 H   0  0  0  0  0  0  0  0  0  0  0  0
   19.3885   17.4090   25.4384 H   0  0  0  0  0  0  0  0  0  0  0  0
   20.3293   18.7485   24.0871 C   0  0  0  0  0  0  0  0  0  0  0  0
   20.4730   17.9914   23.3143 H   0  0  0  0  0  0  0  0  0  0  0  0
   21.2271   19.3712   24.1255 H   0  0  0  0  0  0  0  0  0  0  0  0
   19.1074   19.6262   23.7542 C   0  0  0  0  0  0  0  0  0  0  0  0
   18.1923   19.0194   23.7522 H   0  0  0  0  0  0  0  0  0  0  0  0
   18.9885   20.3629   24.5599 H   0  0  0  0  0  0  0  0  0  0  0  0
   19.2450   20.3857   22.4102 C   0  0  0  0  0  0  0  0  0  0  0  0
   20.2740   20.7465   22.2800 H   0  0  0  0  0  0  0  0  0  0  0  0
   18.6250   21.2909   22.4708 H   0  0  0  0  0  0  0  0  0  0  0  0
   18.7794   19.5918   21.1593 C   0  0  0  0  0  0  0  0  0  0  0  0
   17.7199   19.3275   21.2805 H   0  0  0  0  0  0  0  0  0  0  0  0
   18.8198   20.2609   20.2887 H   0  0  0  0  0  0  0  0  0  0  0  0
   19.5769   18.3062   20.8275 C   0  0  0  0  0  0  0  0  0  0  0  0
   19.1361   17.8466   19.9318 H   0  0  0  0  0  0  0  0  0  0  0  0
   19.4551   17.5654   21.6277 H   0  0  0  0  0  0  0  0  0  0  0  0
   21.0771   18.5648   20.5589 C   0  0  0  0  0  0  0  0  0  0  0  0
   21.2109   19.2942   19.7495 H   0  0  0  0  0  0  0  0  0  0  0  0
   21.5798   17.6361   20.2594 H   0  0  0  0  0  0  0  0  0  0  0  0
   21.5902   18.9463   21.4497 H   0  0  0  0  0  0  0  0  0  0  0  0
  1  2  1  0  0  0  0
  1  3  1  0  0  0  0
  1  4  1  0  0  0  0
  1  5  1  0  0  0  0
  5  6  1  0  0  0  0
  5  7  1  0  0  0  0
  5  8  1  0  0  0  0
  8  9  1  0  0  0  0
  8 10  1  0  0  0  0
  8 11  1  0  0  0  0
 11 12  1  0  0  0  0
 11 13  1  0  0  0  0
 11 14  1  0  0  0  0
 14 15  1  0  0  0  0
 14 16  1  0  0  0  0
 14 17  1  0  0  0  0
 17 18  1  0  0  0  0
 17 19  1  0  0  0  0
 17 20  1  0  0  0  0
 20 21  1  0  0  0  0
 20 22  1  0  0  0  0
 20 23  1  0  0  0  0
M  END
> <VM2 Rank>
56

> <Conf_Id>
1120

> <Probability>
0.03

> <Sum Probability>
99.62

> <Delta G>
3.567

> <G>
41.483

> <E>
13.153

> <-TS>
28.330

> <U+W>
-5.626

> <U>
50.461

> <W>
-56.086

> <W(PB)>
-58.153

> <W(SA)>
2.066

> <Valence>
4.630

> <Coulomb>
45.564

> <VdW>
0.266

> <VdW6>
-7.363

> <VdW12>
7.629

> <Bond>
0.225

> <Angle>
1.702

> <Pdih>
2.703

> <Idih>
0.000

> <Tether>
0.000

$$$$
VeraChem MOL file


 23 22  0  0  0  0  0  0  0  0999 V2000     
   19.9415   17.9258   25.4049 N   0  3  0  0  0  0  0  0  0  0  0  0
   19.7544   16.9299   25.5638 H   0  0  0  0  0  0  0  0  0  0  0  0
   19.4890   18.4390   26.1682 H   0  0  0  0  0  0  0  0  0  0  0  0
   20.9524   18.0597   25.5095 H   0  0  0  0  0  0  0  0  0  0  0  0
   19.4482   18.3820   24.0470 C   0  0  0  0  0  0  0  0  0  0  0  0
   18.3742   18.1844   23.9956 H   0  0  0  0  0  0  0  0  0  0  0  0
   19.9434   17.7711   23.2901 H   0  0  0  0  0  0  0  0  0  0  0  0
   19.7103   19.8770   23.7817 C   0  0  0  0  0  0  0  0  0  0  0  0
   19.2096   20.4549   24.5699 H   0  0  0  0  0  0  0  0  0  0  0  0
   20.7824   20.0970   23.8702 H   0  0  0  0  0  0  0  0  0  0  0  0
   19.1802   20.3588   22.4072 C   0  0  0  0  0  0  0  0  0  0  0  0
   18.9697   21.4343   22.4865 H   0  0  0  0  0  0  0  0  0  0  0  0
   18.2126   19.8889   22.1861 H   0  0  0  0  0  0  0  0  0  0  0  0
   20.1661   20.1688   21.2225 C   0  0  0  0  0  0  0  0  0  0  0  0
   19.7316   20.6402   20.3302 H   0  0  0  0  0  0  0  0  0  0  0  0
   21.0876   20.7286   21.4340 H   0  0  0  0  0  0  0  0  0  0  0  0
   20.5425   18.7079   20.8715 C   0  0  0  0  0  0  0  0  0  0  0  0
   21.0904   18.2458   21.7023 H   0  0  0  0  0  0  0  0  0  0  0  0
   21.2467   18.7247   20.0280 H   0  0  0  0  0  0  0  0  0  0  0  0
   19.3272   17.8368   20.4792 C   0  0  0  0  0  0  0  0  0  0  0  0
   18.6279   17.7138   21.3148 H   0  0  0  0  0  0  0  0  0  0  0  0
   19.6552   16.8354   20.1717 H   0  0  0  0  0  0  0  0  0  0  0  0
   18.7795   18.2826   19.6388 H   0  0  0  0  0  0  0  0  0  0  0  0
  1  2  1  0  0  0  0
  1  3  1  0  0  0  0
  1  4  1  0  0  0  0
  1  5  1  0  0  0  0
  5  6  1  0  0  0  0
  5  7  1  0  0  0  0
  5  8  1  0  0  0  0
  8  9  1  0  0  0  0
  8 10  1  0  0  0  0
  8 11  1  0  0  0  0
 11 12  1  0  0  0  0
 11 13  1  0  0  0  0
 11 14  1  0  0  0  0
 14 15  1  0  0  0  0
 14 16  1  0  0  0  0
 14 17  1  0  0  0  0
 17 18  1  0  0  0  0
 17 19  1  0  0  0  0
 17 20  1  0  0  0  0
 20 21  1  0  0  0  0
 20 22  1  0  0  0  0
 20 23  1  0  0  0  0
M  END
> <VM2 Rank>
57

> <Conf_Id>
572

> <Probability>
0.03

> <Sum Probability>
99.65

> <Delta G>
3.585

> <G>
41.501

> <E>
13.172

> <-TS>
28.330

> <U+W>
-5.608

> <U>
50.461

> <W>
-56.068

> <W(PB)>
-58.143

> <W(SA)>
2.075

> <Valence>
4.630

> <Coulomb>
45.564

> <VdW>
0.267

> <VdW6>
-7.363

> <VdW12>
7.629

> <Bond>
0.225

> <Angle>
1.702

> <Pdih>
2.703

> <Idih>
0.000

> <Tether>
0.000

$$$$
VeraChem MOL file


 23 22  0  0  0  0  0  0  0  0999 V2000     
   18.9349   18.5709   25.5060 N   0  3  0  0  0  0  0  0  0  0  0  0
   18.9666   18.5424   26.5308 H   0  0  0  0  0  0  0  0  0  0  0  0
   18.4846   17.7036   25.1968 H   0  0  0  0  0  0  0  0  0  0  0  0
   18.3143   19.3437   25.2471 H   0  0  0  0  0  0  0  0  0  0  0  0
   20.3172   18.7342   24.9046 C   0  0  0  0  0  0  0  0  0  0  0  0
   20.9317   17.8994   25.2527 H   0  0  0  0  0  0  0  0  0  0  0  0
   20.7490   19.6602   25.2937 H   0  0  0  0  0  0  0  0  0  0  0  0
   20.3234   18.7663   23.3640 C   0  0  0  0  0  0  0  0  0  0  0  0
   21.3658   18.7986   23.0205 H   0  0  0  0  0  0  0  0  0  0  0  0
   19.8896   17.8321   22.9865 H   0  0  0  0  0  0  0  0  0  0  0  0
   19.5544   19.9814   22.7916 C   0  0  0  0  0  0  0  0  0  0  0  0
   19.8988   20.8922   23.3010 H   0  0  0  0  0  0  0  0  0  0  0  0
   18.4850   19.8862   23.0228 H   0  0  0  0  0  0  0  0  0  0  0  0
   19.7274   20.1852   21.2642 C   0  0  0  0  0  0  0  0  0  0  0  0
   19.1852   21.1009   20.9904 H   0  0  0  0  0  0  0  0  0  0  0  0
   20.7813   20.3841   21.0256 H   0  0  0  0  0  0  0  0  0  0  0  0
   19.1878   19.0260   20.3869 C   0  0  0  0  0  0  0  0  0  0  0  0
   18.7776   19.4513   19.4602 H   0  0  0  0  0  0  0  0  0  0  0  0
   18.3467   18.5271   20.8879 H   0  0  0  0  0  0  0  0  0  0  0  0
   20.2707   17.9930   19.9967 C   0  0  0  0  0  0  0  0  0  0  0  0
   21.0858   18.4716   19.4384 H   0  0  0  0  0  0  0  0  0  0  0  0
   19.8423   17.2121   19.3551 H   0  0  0  0  0  0  0  0  0  0  0  0
   20.7061   17.4997   20.8724 H   0  0  0  0  0  0  0  0  0  0  0  0
  1  2  1  0  0  0  0
  1  3  1  0  0  0  0
  1  4  1  0  0  0  0
  1  5  1  0  0  0  0
  5  6  1  0  0  0  0
  5  7  1  0  0  0  0
  5  8  1  0  0  0  0
  8  9  1  0  0  0  0
  8 10  1  0  0  0  0
  8 11  1  0  0  0  0
 11 12  1  0  0  0  0
 11 13  1  0  0  0  0
 11 14  1  0  0  0  0
 14 15  1  0  0  0  0
 14 16  1  0  0  0  0
 14 17  1  0  0  0  0
 17 18  1  0  0  0  0
 17 19  1  0  0  0  0
 17 20  1  0  0  0  0
 20 21  1  0  0  0  0
 20 22  1  0  0  0  0
 20 23  1  0  0  0  0
M  END
> <VM2 Rank>
58

> <Conf_Id>
364

> <Probability>
0.03

> <Sum Probability>
99.67

> <Delta G>
3.640

> <G>
41.556

> <E>
13.603

> <-TS>
27.954

> <U+W>
-5.176

> <U>
50.700

> <W>
-55.876

> <W(PB)>
-57.964

> <W(SA)>
2.088

> <Valence>
4.818

> <Coulomb>
45.214

> <VdW>
0.668

> <VdW6>
-6.661

> <VdW12>
7.328

> <Bond>
0.218

> <Angle>
1.219

> <Pdih>
3.381

> <Idih>
0.000

> <Tether>
0.000

$$$$
VeraChem MOL file


 23 22  0  0  0  0  0  0  0  0999 V2000     
   19.6558   19.2720   25.7989 N   0  3  0  0  0  0  0  0  0  0  0  0
   19.8820   20.2271   25.5052 H   0  0  0  0  0  0  0  0  0  0  0  0
   20.5342   18.8254   26.0808 H   0  0  0  0  0  0  0  0  0  0  0  0
   19.0750   19.3472   26.6409 H   0  0  0  0  0  0  0  0  0  0  0  0
   18.9560   18.4961   24.7000 C   0  0  0  0  0  0  0  0  0  0  0  0
   18.0202   19.0103   24.4645 H   0  0  0  0  0  0  0  0  0  0  0  0
   18.7105   17.5075   25.0973 H   0  0  0  0  0  0  0  0  0  0  0  0
   19.7965   18.3369   23.4182 C   0  0  0  0  0  0  0  0  0  0  0  0
   20.7371   17.8247   23.6607 H   0  0  0  0  0  0  0  0  0  0  0  0
   19.2547   17.6751   22.7332 H   0  0  0  0  0  0  0  0  0  0  0  0
   20.0976   19.6924   22.7293 C   0  0  0  0  0  0  0  0  0  0  0  0
   20.7081   20.3012   23.4094 H   0  0  0  0  0  0  0  0  0  0  0  0
   19.1674   20.2548   22.5687 H   0  0  0  0  0  0  0  0  0  0  0  0
   20.8670   19.5445   21.3906 C   0  0  0  0  0  0  0  0  0  0  0  0
   21.5643   20.3891   21.3015 H   0  0  0  0  0  0  0  0  0  0  0  0
   21.4953   18.6434   21.4088 H   0  0  0  0  0  0  0  0  0  0  0  0
   19.9717   19.5448   20.1250 C   0  0  0  0  0  0  0  0  0  0  0  0
   20.6209   19.5099   19.2389 H   0  0  0  0  0  0  0  0  0  0  0  0
   19.4230   20.4949   20.0622 H   0  0  0  0  0  0  0  0  0  0  0  0
   18.9715   18.3703   20.0521 C   0  0  0  0  0  0  0  0  0  0  0  0
   19.4829   17.4063   20.1707 H   0  0  0  0  0  0  0  0  0  0  0  0
   18.4605   18.3617   19.0806 H   0  0  0  0  0  0  0  0  0  0  0  0
   18.1997   18.4552   20.8269 H   0  0  0  0  0  0  0  0  0  0  0  0
  1  2  1  0  0  0  0
  1  3  1  0  0  0  0
  1  4  1  0  0  0  0
  1  5  1  0  0  0  0
  5  6  1  0  0  0  0
  5  7  1  0  0  0  0
  5  8  1  0  0  0  0
  8  9  1  0  0  0  0
  8 10  1  0  0  0  0
  8 11  1  0  0  0  0
 11 12  1  0  0  0  0
 11 13  1  0  0  0  0
 11 14  1  0  0  0  0
 14 15  1  0  0  0  0
 14 16  1  0  0  0  0
 14 17  1  0  0  0  0
 17 18  1  0  0  0  0
 17 19  1  0  0  0  0
 17 20  1  0  0  0  0
 20 21  1  0  0  0  0
 20 22  1  0  0  0  0
 20 23  1  0  0  0  0
M  END
> <VM2 Rank>
59

> <Conf_Id>
52

> <Probability>
0.03

> <Sum Probability>
99.70

> <Delta G>
3.653

> <G>
41.569

> <E>
13.583

> <-TS>
27.986

> <U+W>
-5.196

> <U>
50.625

> <W>
-55.822

> <W(PB)>
-57.895

> <W(SA)>
2.073

> <Valence>
4.837

> <Coulomb>
45.097

> <VdW>
0.692

> <VdW6>
-6.655

> <VdW12>
7.347

> <Bond>
0.223

> <Angle>
1.167

> <Pdih>
3.447

> <Idih>
0.000

> <Tether>
0.000

$$$$
VeraChem MOL file


 23 22  0  0  0  0  0  0  0  0999 V2000     
   19.4177   19.1732   25.7880 N   0  3  0  0  0  0  0  0  0  0  0  0
   18.6058   19.6966   25.4469 H   0  0  0  0  0  0  0  0  0  0  0  0
   19.7070   19.6103   26.6696 H   0  0  0  0  0  0  0  0  0  0  0  0
   19.0951   18.2273   26.0153 H   0  0  0  0  0  0  0  0  0  0  0  0
   20.5435   19.1561   24.7723 C   0  0  0  0  0  0  0  0  0  0  0  0
   21.3847   18.6192   25.2192 H   0  0  0  0  0  0  0  0  0  0  0  0
   20.8551   20.1888   24.5936 H   0  0  0  0  0  0  0  0  0  0  0  0
   20.1654   18.4901   23.4351 C   0  0  0  0  0  0  0  0  0  0  0  0
   21.0673   18.4286   22.8158 H   0  0  0  0  0  0  0  0  0  0  0  0
   19.8484   17.4552   23.6203 H   0  0  0  0  0  0  0  0  0  0  0  0
   19.0481   19.2560   22.6815 C   0  0  0  0  0  0  0  0  0  0  0  0
   19.3158   20.3164   22.5754 H   0  0  0  0  0  0  0  0  0  0  0  0
   18.1357   19.2317   23.2922 H   0  0  0  0  0  0  0  0  0  0  0  0
   18.7163   18.6503   21.2925 C   0  0  0  0  0  0  0  0  0  0  0  0
   18.9114   17.5690   21.2911 H   0  0  0  0  0  0  0  0  0  0  0  0
   17.6358   18.7556   21.1224 H   0  0  0  0  0  0  0  0  0  0  0  0
   19.4429   19.3249   20.1009 C   0  0  0  0  0  0  0  0  0  0  0  0
   19.1605   20.3858   20.0502 H   0  0  0  0  0  0  0  0  0  0  0  0
   19.0806   18.8693   19.1687 H   0  0  0  0  0  0  0  0  0  0  0  0
   20.9821   19.2064   20.1438 C   0  0  0  0  0  0  0  0  0  0  0  0
   21.4038   19.7876   20.9730 H   0  0  0  0  0  0  0  0  0  0  0  0
   21.4224   19.5934   19.2157 H   0  0  0  0  0  0  0  0  0  0  0  0
   21.2962   18.1604   20.2534 H   0  0  0  0  0  0  0  0  0  0  0  0
  1  2  1  0  0  0  0
  1  3  1  0  0  0  0
  1  4  1  0  0  0  0
  1  5  1  0  0  0  0
  5  6  1  0  0  0  0
  5  7  1  0  0  0  0
  5  8  1  0  0  0  0
  8  9  1  0  0  0  0
  8 10  1  0  0  0  0
  8 11  1  0  0  0  0
 11 12  1  0  0  0  0
 11 13  1  0  0  0  0
 11 14  1  0  0  0  0
 14 15  1  0  0  0  0
 14 16  1  0  0  0  0
 14 17  1  0  0  0  0
 17 18  1  0  0  0  0
 17 19  1  0  0  0  0
 17 20  1  0  0  0  0
 20 21  1  0  0  0  0
 20 22  1  0  0  0  0
 20 23  1  0  0  0  0
M  END
> <VM2 Rank>
60

> <Conf_Id>
1125

> <Probability>
0.02

> <Sum Probability>
99.72

> <Delta G>
3.698

> <G>
41.614

> <E>
13.628

> <-TS>
27.986

> <U+W>
-5.151

> <U>
50.626

> <W>
-55.777

> <W(PB)>
-57.840

> <W(SA)>
2.064

> <Valence>
4.837

> <Coulomb>
45.097

> <VdW>
0.692

> <VdW6>
-6.655

> <VdW12>
7.348

> <Bond>
0.223

> <Angle>
1.166

> <Pdih>
3.447

> <Idih>
0.000

> <Tether>
0.000

$$$$
VeraChem MOL file


 23 22  0  0  0  0  0  0  0  0999 V2000     
   20.4428   19.1979   25.5747 N   0  3  0  0  0  0  0  0  0  0  0  0
   20.3517   20.1909   25.3399 H   0  0  0  0  0  0  0  0  0  0  0  0
   21.3968   18.9145   25.3295 H   0  0  0  0  0  0  0  0  0  0  0  0
   20.3612   19.1223   26.5943 H   0  0  0  0  0  0  0  0  0  0  0  0
   19.4032   18.3542   24.8630 C   0  0  0  0  0  0  0  0  0  0  0  0
   18.4144   18.6896   25.1873 H   0  0  0  0  0  0  0  0  0  0  0  0
   19.5356   17.3189   25.1891 H   0  0  0  0  0  0  0  0  0  0  0  0
   19.4956   18.4221   23.3263 C   0  0  0  0  0  0  0  0  0  0  0  0
   20.4907   18.0820   23.0139 H   0  0  0  0  0  0  0  0  0  0  0  0
   18.7674   17.7183   22.9021 H   0  0  0  0  0  0  0  0  0  0  0  0
   19.2201   19.8424   22.7764 C   0  0  0  0  0  0  0  0  0  0  0  0
   20.0205   20.5246   23.0928 H   0  0  0  0  0  0  0  0  0  0  0  0
   18.2942   20.2250   23.2279 H   0  0  0  0  0  0  0  0  0  0  0  0
   19.0728   19.9130   21.2343 C   0  0  0  0  0  0  0  0  0  0  0  0
   18.2106   19.3152   20.9084 H   0  0  0  0  0  0  0  0  0  0  0  0
   18.8268   20.9519   20.9740 H   0  0  0  0  0  0  0  0  0  0  0  0
   20.3402   19.5052   20.4394 C   0  0  0  0  0  0  0  0  0  0  0  0
   21.2451   19.7321   21.0201 H   0  0  0  0  0  0  0  0  0  0  0  0
   20.3992   20.1256   19.5341 H   0  0  0  0  0  0  0  0  0  0  0  0
   20.3412   18.0223   19.9998 C   0  0  0  0  0  0  0  0  0  0  0  0
   19.4735   17.8013   19.3647 H   0  0  0  0  0  0  0  0  0  0  0  0
   20.3165   17.3377   20.8545 H   0  0  0  0  0  0  0  0  0  0  0  0
   21.2445   17.7951   19.4190 H   0  0  0  0  0  0  0  0  0  0  0  0
  1  2  1  0  0  0  0
  1  3  1  0  0  0  0
  1  4  1  0  0  0  0
  1  5  1  0  0  0  0
  5  6  1  0  0  0  0
  5  7  1  0  0  0  0
  5  8  1  0  0  0  0
  8  9  1  0  0  0  0
  8 10  1  0  0  0  0
  8 11  1  0  0  0  0
 11 12  1  0  0  0  0
 11 13  1  0  0  0  0
 11 14  1  0  0  0  0
 14 15  1  0  0  0  0
 14 16  1  0  0  0  0
 14 17  1  0  0  0  0
 17 18  1  0  0  0  0
 17 19  1  0  0  0  0
 17 20  1  0  0  0  0
 20 21  1  0  0  0  0
 20 22  1  0  0  0  0
 20 23  1  0  0  0  0
M  END
> <VM2 Rank>
61

> <Conf_Id>
510

> <Probability>
0.02

> <Sum Probability>
99.75

> <Delta G>
3.706

> <G>
41.622

> <E>
13.669

> <-TS>
27.954

> <U+W>
-5.110

> <U>
50.700

> <W>
-55.810

> <W(PB)>
-57.884

> <W(SA)>
2.074

> <Valence>
4.818

> <Coulomb>
45.214

> <VdW>
0.668

> <VdW6>
-6.660

> <VdW12>
7.328

> <Bond>
0.218

> <Angle>
1.219

> <Pdih>
3.381

> <Idih>
0.000

> <Tether>
0.000

$$$$
VeraChem MOL file


 23 22  0  0  0  0  0  0  0  0999 V2000     
   20.0185   18.7465   25.7758 N   0  3  0  0  0  0  0  0  0  0  0  0
   20.5177   17.8527   25.7254 H   0  0  0  0  0  0  0  0  0  0  0  0
   19.6822   18.8469   26.7396 H   0  0  0  0  0  0  0  0  0  0  0  0
   20.7083   19.4878   25.6212 H   0  0  0  0  0  0  0  0  0  0  0  0
   18.8825   18.8152   24.7737 C   0  0  0  0  0  0  0  0  0  0  0  0
   18.3792   19.7782   24.8953 H   0  0  0  0  0  0  0  0  0  0  0  0
   18.1706   18.0249   25.0272 H   0  0  0  0  0  0  0  0  0  0  0  0
   19.3316   18.6455   23.3092 C   0  0  0  0  0  0  0  0  0  0  0  0
   19.8608   17.6902   23.1956 H   0  0  0  0  0  0  0  0  0  0  0  0
   18.4301   18.5883   22.6869 H   0  0  0  0  0  0  0  0  0  0  0  0
   20.2232   19.8117   22.8175 C   0  0  0  0  0  0  0  0  0  0  0  0
   21.0725   19.9359   23.5021 H   0  0  0  0  0  0  0  0  0  0  0  0
   19.6533   20.7500   22.8644 H   0  0  0  0  0  0  0  0  0  0  0  0
   20.7889   19.6243   21.3858 C   0  0  0  0  0  0  0  0  0  0  0  0
   21.4347   20.4869   21.1707 H   0  0  0  0  0  0  0  0  0  0  0  0
   21.4488   18.7464   21.3524 H   0  0  0  0  0  0  0  0  0  0  0  0
   19.7185   19.5335   20.2676 C   0  0  0  0  0  0  0  0  0  0  0  0
   20.1079   20.0323   19.3689 H   0  0  0  0  0  0  0  0  0  0  0  0
   18.8166   20.0917   20.5551 H   0  0  0  0  0  0  0  0  0  0  0  0
   19.3529   18.0803   19.8844 C   0  0  0  0  0  0  0  0  0  0  0  0
   18.9367   17.5223   20.7303 H   0  0  0  0  0  0  0  0  0  0  0  0
   20.2358   17.5368   19.5236 H   0  0  0  0  0  0  0  0  0  0  0  0
   18.6057   18.0717   19.0804 H   0  0  0  0  0  0  0  0  0  0  0  0
  1  2  1  0  0  0  0
  1  3  1  0  0  0  0
  1  4  1  0  0  0  0
  1  5  1  0  0  0  0
  5  6  1  0  0  0  0
  5  7  1  0  0  0  0
  5  8  1  0  0  0  0
  8  9  1  0  0  0  0
  8 10  1  0  0  0  0
  8 11  1  0  0  0  0
 11 12  1  0  0  0  0
 11 13  1  0  0  0  0
 11 14  1  0  0  0  0
 14 15  1  0  0  0  0
 14 16  1  0  0  0  0
 14 17  1  0  0  0  0
 17 18  1  0  0  0  0
 17 19  1  0  0  0  0
 17 20  1  0  0  0  0
 20 21  1  0  0  0  0
 20 22  1  0  0  0  0
 20 23  1  0  0  0  0
M  END
> <VM2 Rank>
62

> <Conf_Id>
495

> <Probability>
0.02

> <Sum Probability>
99.77

> <Delta G>
3.712

> <G>
41.629

> <E>
13.680

> <-TS>
27.949

> <U+W>
-5.099

> <U>
50.701

> <W>
-55.800

> <W(PB)>
-57.867

> <W(SA)>
2.067

> <Valence>
4.881

> <Coulomb>
45.095

> <VdW>
0.726

> <VdW6>
-6.620

> <VdW12>
7.345

> <Bond>
0.222

> <Angle>
1.260

> <Pdih>
3.398

> <Idih>
0.000

> <Tether>
0.000

$$$$
VeraChem MOL file


 23 22  0  0  0  0  0  0  0  0999 V2000     
   20.8277   18.8084   25.2419 N   0  3  0  0  0  0  0  0  0  0  0  0
   21.3635   18.0171   24.8714 H   0  0  0  0  0  0  0  0  0  0  0  0
   21.0146   18.8504   26.2495 H   0  0  0  0  0  0  0  0  0  0  0  0
   21.2197   19.6602   24.8291 H   0  0  0  0  0  0  0  0  0  0  0  0
   19.3460   18.6722   24.9501 C   0  0  0  0  0  0  0  0  0  0  0  0
   18.8322   19.5294   25.3933 H   0  0  0  0  0  0  0  0  0  0  0  0
   18.9917   17.7668   25.4504 H   0  0  0  0  0  0  0  0  0  0  0  0
   19.0148   18.5886   23.4476 C   0  0  0  0  0  0  0  0  0  0  0  0
   19.5350   17.7288   23.0108 H   0  0  0  0  0  0  0  0  0  0  0  0
   17.9409   18.3853   23.3423 H   0  0  0  0  0  0  0  0  0  0  0  0
   19.3622   19.8943   22.6876 C   0  0  0  0  0  0  0  0  0  0  0  0
   20.4282   20.1357   22.7919 H   0  0  0  0  0  0  0  0  0  0  0  0
   18.8155   20.7204   23.1635 H   0  0  0  0  0  0  0  0  0  0  0  0
   18.9783   19.8546   21.1852 C   0  0  0  0  0  0  0  0  0  0  0  0
   18.1040   19.2073   21.0311 H   0  0  0  0  0  0  0  0  0  0  0  0
   18.6556   20.8621   20.8882 H   0  0  0  0  0  0  0  0  0  0  0  0
   20.1266   19.4342   20.2324 C   0  0  0  0  0  0  0  0  0  0  0  0
   20.9555   20.1510   20.3154 H   0  0  0  0  0  0  0  0  0  0  0  0
   19.7643   19.5077   19.1974 H   0  0  0  0  0  0  0  0  0  0  0  0
   20.6604   18.0046   20.4691 C   0  0  0  0  0  0  0  0  0  0  0  0
   21.3706   17.7252   19.6802 H   0  0  0  0  0  0  0  0  0  0  0  0
   19.8445   17.2704   20.4619 H   0  0  0  0  0  0  0  0  0  0  0  0
   21.1903   17.9308   21.4265 H   0  0  0  0  0  0  0  0  0  0  0  0
  1  2  1  0  0  0  0
  1  3  1  0  0  0  0
  1  4  1  0  0  0  0
  1  5  1  0  0  0  0
  5  6  1  0  0  0  0
  5  7  1  0  0  0  0
  5  8  1  0  0  0  0
  8  9  1  0  0  0  0
  8 10  1  0  0  0  0
  8 11  1  0  0  0  0
 11 12  1  0  0  0  0
 11 13  1  0  0  0  0
 11 14  1  0  0  0  0
 14 15  1  0  0  0  0
 14 16  1  0  0  0  0
 14 17  1  0  0  0  0
 17 18  1  0  0  0  0
 17 19  1  0  0  0  0
 17 20  1  0  0  0  0
 20 21  1  0  0  0  0
 20 22  1  0  0  0  0
 20 23  1  0  0  0  0
M  END
> <VM2 Rank>
63

> <Conf_Id>
319

> <Probability>
0.02

> <Sum Probability>
99.79

> <Delta G>
3.761

> <G>
41.678

> <E>
13.724

> <-TS>
27.953

> <U+W>
-5.055

> <U>
50.975

> <W>
-56.030

> <W(PB)>
-58.076

> <W(SA)>
2.047

> <Valence>
4.792

> <Coulomb>
45.573

> <VdW>
0.610

> <VdW6>
-6.731

> <VdW12>
7.341

> <Bond>
0.224

> <Angle>
1.227

> <Pdih>
3.342

> <Idih>
0.000

> <Tether>
0.000

$$$$
VeraChem MOL file


 23 22  0  0  0  0  0  0  0  0999 V2000     
   18.9662   18.0341   25.1569 N   0  3  0  0  0  0  0  0  0  0  0  0
   18.7271   17.8989   26.1450 H   0  0  0  0  0  0  0  0  0  0  0  0
   19.1790   17.1086   24.7716 H   0  0  0  0  0  0  0  0  0  0  0  0
   18.1201   18.3710   24.6877 H   0  0  0  0  0  0  0  0  0  0  0  0
   20.1255   18.9963   24.9857 C   0  0  0  0  0  0  0  0  0  0  0  0
   20.9764   18.5922   25.5408 H   0  0  0  0  0  0  0  0  0  0  0  0
   19.8450   19.9506   25.4396 H   0  0  0  0  0  0  0  0  0  0  0  0
   20.5338   19.2205   23.5169 C   0  0  0  0  0  0  0  0  0  0  0  0
   21.4398   19.8407   23.5019 H   0  0  0  0  0  0  0  0  0  0  0  0
   20.8113   18.2597   23.0690 H   0  0  0  0  0  0  0  0  0  0  0  0
   19.4246   19.9204   22.6905 C   0  0  0  0  0  0  0  0  0  0  0  0
   19.1868   20.8749   23.1803 H   0  0  0  0  0  0  0  0  0  0  0  0
   18.4973   19.3326   22.7039 H   0  0  0  0  0  0  0  0  0  0  0  0
   19.8389   20.2124   21.2244 C   0  0  0  0  0  0  0  0  0  0  0  0
   19.3754   21.1614   20.9210 H   0  0  0  0  0  0  0  0  0  0  0  0
   20.9229   20.3795   21.1596 H   0  0  0  0  0  0  0  0  0  0  0  0
   19.4041   19.1338   20.1995 C   0  0  0  0  0  0  0  0  0  0  0  0
   19.6867   19.4754   19.1939 H   0  0  0  0  0  0  0  0  0  0  0  0
   18.3083   19.0501   20.1948 H   0  0  0  0  0  0  0  0  0  0  0  0
   20.0228   17.7395   20.4402 C   0  0  0  0  0  0  0  0  0  0  0  0
   19.7831   17.0650   19.6080 H   0  0  0  0  0  0  0  0  0  0  0  0
   19.6288   17.2814   21.3555 H   0  0  0  0  0  0  0  0  0  0  0  0
   21.1160   17.7990   20.5198 H   0  0  0  0  0  0  0  0  0  0  0  0
  1  2  1  0  0  0  0
  1  3  1  0  0  0  0
  1  4  1  0  0  0  0
  1  5  1  0  0  0  0
  5  6  1  0  0  0  0
  5  7  1  0  0  0  0
  5  8  1  0  0  0  0
  8  9  1  0  0  0  0
  8 10  1  0  0  0  0
  8 11  1  0  0  0  0
 11 12  1  0  0  0  0
 11 13  1  0  0  0  0
 11 14  1  0  0  0  0
 14 15  1  0  0  0  0
 14 16  1  0  0  0  0
 14 17  1  0  0  0  0
 17 18  1  0  0  0  0
 17 19  1  0  0  0  0
 17 20  1  0  0  0  0
 20 21  1  0  0  0  0
 20 22  1  0  0  0  0
 20 23  1  0  0  0  0
M  END
> <VM2 Rank>
64

> <Conf_Id>
860

> <Probability>
0.02

> <Sum Probability>
99.81

> <Delta G>
3.796

> <G>
41.713

> <E>
13.759

> <-TS>
27.953

> <U+W>
-5.020

> <U>
50.975

> <W>
-55.995

> <W(PB)>
-58.046

> <W(SA)>
2.051

> <Valence>
4.792

> <Coulomb>
45.573

> <VdW>
0.610

> <VdW6>
-6.731

> <VdW12>
7.341

> <Bond>
0.224

> <Angle>
1.226

> <Pdih>
3.342

> <Idih>
0.000

> <Tether>
0.000

$$$$
VeraChem MOL file


 23 22  0  0  0  0  0  0  0  0999 V2000     
   19.5368   18.5463   25.7540 N   0  3  0  0  0  0  0  0  0  0  0  0
   18.5397   18.5860   25.5224 H   0  0  0  0  0  0  0  0  0  0  0  0
   19.6270   18.8242   26.7371 H   0  0  0  0  0  0  0  0  0  0  0  0
   19.8230   17.5639   25.6939 H   0  0  0  0  0  0  0  0  0  0  0  0
   20.3635   19.4312   24.8412 C   0  0  0  0  0  0  0  0  0  0  0  0
   21.4030   19.3693   25.1745 H   0  0  0  0  0  0  0  0  0  0  0  0
   20.0257   20.4630   24.9702 H   0  0  0  0  0  0  0  0  0  0  0  0
   20.2819   19.0406   23.3525 C   0  0  0  0  0  0  0  0  0  0  0  0
   21.0035   19.6585   22.8041 H   0  0  0  0  0  0  0  0  0  0  0  0
   20.5955   17.9956   23.2291 H   0  0  0  0  0  0  0  0  0  0  0  0
   18.8685   19.2481   22.7558 C   0  0  0  0  0  0  0  0  0  0  0  0
   18.6006   20.3121   22.8165 H   0  0  0  0  0  0  0  0  0  0  0  0
   18.1313   18.7124   23.3680 H   0  0  0  0  0  0  0  0  0  0  0  0
   18.7151   18.7617   21.2912 C   0  0  0  0  0  0  0  0  0  0  0  0
   18.8759   17.6763   21.2351 H   0  0  0  0  0  0  0  0  0  0  0  0
   17.6677   18.9201   20.9991 H   0  0  0  0  0  0  0  0  0  0  0  0
   19.6175   19.4916   20.2630 C   0  0  0  0  0  0  0  0  0  0  0  0
   19.8333   20.5145   20.6016 H   0  0  0  0  0  0  0  0  0  0  0  0
   19.0608   19.5969   19.3212 H   0  0  0  0  0  0  0  0  0  0  0  0
   20.9326   18.7374   19.9564 C   0  0  0  0  0  0  0  0  0  0  0  0
   21.5257   19.2863   19.2135 H   0  0  0  0  0  0  0  0  0  0  0  0
   20.7255   17.7407   19.5456 H   0  0  0  0  0  0  0  0  0  0  0  0
   21.5542   18.6108   20.8495 H   0  0  0  0  0  0  0  0  0  0  0  0
  1  2  1  0  0  0  0
  1  3  1  0  0  0  0
  1  4  1  0  0  0  0
  1  5  1  0  0  0  0
  5  6  1  0  0  0  0
  5  7  1  0  0  0  0
  5  8  1  0  0  0  0
  8  9  1  0  0  0  0
  8 10  1  0  0  0  0
  8 11  1  0  0  0  0
 11 12  1  0  0  0  0
 11 13  1  0  0  0  0
 11 14  1  0  0  0  0
 14 15  1  0  0  0  0
 14 16  1  0  0  0  0
 14 17  1  0  0  0  0
 17 18  1  0  0  0  0
 17 19  1  0  0  0  0
 17 20  1  0  0  0  0
 20 21  1  0  0  0  0
 20 22  1  0  0  0  0
 20 23  1  0  0  0  0
M  END
> <VM2 Rank>
65

> <Conf_Id>
1022

> <Probability>
0.02

> <Sum Probability>
99.83

> <Delta G>
3.803

> <G>
41.719

> <E>
13.770

> <-TS>
27.949

> <U+W>
-5.009

> <U>
50.701

> <W>
-55.709

> <W(PB)>
-57.768

> <W(SA)>
2.058

> <Valence>
4.881

> <Coulomb>
45.095

> <VdW>
0.726

> <VdW6>
-6.620

> <VdW12>
7.345

> <Bond>
0.222

> <Angle>
1.260

> <Pdih>
3.398

> <Idih>
0.000

> <Tether>
0.000

$$$$
VeraChem MOL file


 23 22  0  0  0  0  0  0  0  0999 V2000     
   20.9898   18.9136   24.7564 N   0  3  0  0  0  0  0  0  0  0  0  0
   21.3552   19.4904   23.9930 H   0  0  0  0  0  0  0  0  0  0  0  0
   21.7213   18.2389   25.0044 H   0  0  0  0  0  0  0  0  0  0  0  0
   20.8634   19.5283   25.5669 H   0  0  0  0  0  0  0  0  0  0  0  0
   19.6961   18.2254   24.3671 C   0  0  0  0  0  0  0  0  0  0  0  0
   19.3784   17.6137   25.2158 H   0  0  0  0  0  0  0  0  0  0  0  0
   19.8995   17.5548   23.5294 H   0  0  0  0  0  0  0  0  0  0  0  0
   18.5644   19.2016   23.9930 C   0  0  0  0  0  0  0  0  0  0  0  0
   17.6581   18.6213   23.7746 H   0  0  0  0  0  0  0  0  0  0  0  0
   18.3252   19.8131   24.8732 H   0  0  0  0  0  0  0  0  0  0  0  0
   18.8692   20.1421   22.7963 C   0  0  0  0  0  0  0  0  0  0  0  0
   19.7360   20.7801   23.0141 H   0  0  0  0  0  0  0  0  0  0  0  0
   18.0185   20.8309   22.7005 H   0  0  0  0  0  0  0  0  0  0  0  0
   19.0530   19.4264   21.4322 C   0  0  0  0  0  0  0  0  0  0  0  0
   18.3715   18.5674   21.3625 H   0  0  0  0  0  0  0  0  0  0  0  0
   18.7444   20.1217   20.6392 H   0  0  0  0  0  0  0  0  0  0  0  0
   20.5068   18.9832   21.1385 C   0  0  0  0  0  0  0  0  0  0  0  0
   20.8472   18.2491   21.8773 H   0  0  0  0  0  0  0  0  0  0  0  0
   21.1804   19.8480   21.2157 H   0  0  0  0  0  0  0  0  0  0  0  0
   20.6367   18.3647   19.7304 C   0  0  0  0  0  0  0  0  0  0  0  0
   20.3485   19.0850   18.9537 H   0  0  0  0  0  0  0  0  0  0  0  0
   19.9974   17.4780   19.6285 H   0  0  0  0  0  0  0  0  0  0  0  0
   21.6724   18.0571   19.5361 H   0  0  0  0  0  0  0  0  0  0  0  0
  1  2  1  0  0  0  0
  1  3  1  0  0  0  0
  1  4  1  0  0  0  0
  1  5  1  0  0  0  0
  5  6  1  0  0  0  0
  5  7  1  0  0  0  0
  5  8  1  0  0  0  0
  8  9  1  0  0  0  0
  8 10  1  0  0  0  0
  8 11  1  0  0  0  0
 11 12  1  0  0  0  0
 11 13  1  0  0  0  0
 11 14  1  0  0  0  0
 14 15  1  0  0  0  0
 14 16  1  0  0  0  0
 14 17  1  0  0  0  0
 17 18  1  0  0  0  0
 17 19  1  0  0  0  0
 17 20  1  0  0  0  0
 20 21  1  0  0  0  0
 20 22  1  0  0  0  0
 20 23  1  0  0  0  0
M  END
> <VM2 Rank>
66

> <Conf_Id>
559

> <Probability>
0.02

> <Sum Probability>
99.85

> <Delta G>
3.854

> <G>
41.770

> <E>
13.750

> <-TS>
28.020

> <U+W>
-5.029

> <U>
51.112

> <W>
-56.141

> <W(PB)>
-58.236

> <W(SA)>
2.094

> <Valence>
4.455

> <Coulomb>
46.320

> <VdW>
0.337

> <VdW6>
-7.022

> <VdW12>
7.359

> <Bond>
0.222

> <Angle>
1.454

> <Pdih>
2.779

> <Idih>
0.000

> <Tether>
0.000

$$$$
VeraChem MOL file


 23 22  0  0  0  0  0  0  0  0999 V2000     
   20.3025   18.1967   25.6539 N   0  3  0  0  0  0  0  0  0  0  0  0
   20.9550   18.5635   26.3551 H   0  0  0  0  0  0  0  0  0  0  0  0
   20.7190   17.3380   25.2797 H   0  0  0  0  0  0  0  0  0  0  0  0
   19.4498   17.9255   26.1539 H   0  0  0  0  0  0  0  0  0  0  0  0
   20.0202   19.2102   24.5634 C   0  0  0  0  0  0  0  0  0  0  0  0
   20.9728   19.4747   24.0979 H   0  0  0  0  0  0  0  0  0  0  0  0
   19.6074   20.1062   25.0347 H   0  0  0  0  0  0  0  0  0  0  0  0
   19.0406   18.6894   23.4944 C   0  0  0  0  0  0  0  0  0  0  0  0
   19.4507   17.7841   23.0333 H   0  0  0  0  0  0  0  0  0  0  0  0
   18.1062   18.3899   23.9874 H   0  0  0  0  0  0  0  0  0  0  0  0
   18.7135   19.7535   22.4161 C   0  0  0  0  0  0  0  0  0  0  0  0
   18.3315   20.6485   22.9266 H   0  0  0  0  0  0  0  0  0  0  0  0
   17.8873   19.3988   21.7846 H   0  0  0  0  0  0  0  0  0  0  0  0
   19.9137   20.1669   21.5207 C   0  0  0  0  0  0  0  0  0  0  0  0
   19.7927   21.2276   21.2605 H   0  0  0  0  0  0  0  0  0  0  0  0
   20.8577   20.1085   22.0775 H   0  0  0  0  0  0  0  0  0  0  0  0
   20.0361   19.3765   20.1929 C   0  0  0  0  0  0  0  0  0  0  0  0
   20.8633   19.8041   19.6091 H   0  0  0  0  0  0  0  0  0  0  0  0
   19.1299   19.5256   19.5892 H   0  0  0  0  0  0  0  0  0  0  0  0
   20.2893   17.8639   20.3727 C   0  0  0  0  0  0  0  0  0  0  0  0
   20.5102   17.3947   19.4052 H   0  0  0  0  0  0  0  0  0  0  0  0
   19.4078   17.3590   20.7860 H   0  0  0  0  0  0  0  0  0  0  0  0
   21.1432   17.6807   21.0376 H   0  0  0  0  0  0  0  0  0  0  0  0
  1  2  1  0  0  0  0
  1  3  1  0  0  0  0
  1  4  1  0  0  0  0
  1  5  1  0  0  0  0
  5  6  1  0  0  0  0
  5  7  1  0  0  0  0
  5  8  1  0  0  0  0
  8  9  1  0  0  0  0
  8 10  1  0  0  0  0
  8 11  1  0  0  0  0
 11 12  1  0  0  0  0
 11 13  1  0  0  0  0
 11 14  1  0  0  0  0
 14 15  1  0  0  0  0
 14 16  1  0  0  0  0
 14 17  1  0  0  0  0
 17 18  1  0  0  0  0
 17 19  1  0  0  0  0
 17 20  1  0  0  0  0
 20 21  1  0  0  0  0
 20 22  1  0  0  0  0
 20 23  1  0  0  0  0
M  END
> <VM2 Rank>
67

> <Conf_Id>
857

> <Probability>
0.02

> <Sum Probability>
99.87

> <Delta G>
3.869

> <G>
41.785

> <E>
13.890

> <-TS>
27.895

> <U+W>
-4.889

> <U>
51.036

> <W>
-55.925

> <W(PB)>
-57.988

> <W(SA)>
2.063

> <Valence>
5.117

> <Coulomb>
45.321

> <VdW>
0.598

> <VdW6>
-6.707

> <VdW12>
7.305

> <Bond>
0.233

> <Angle>
1.409

> <Pdih>
3.475

> <Idih>
0.000

> <Tether>
0.000

$$$$
VeraChem MOL file


 23 22  0  0  0  0  0  0  0  0999 V2000     
   19.7362   17.9611   25.6280 N   0  3  0  0  0  0  0  0  0  0  0  0
   18.9641   17.7352   26.2643 H   0  0  0  0  0  0  0  0  0  0  0  0
   20.4879   18.3574   26.2013 H   0  0  0  0  0  0  0  0  0  0  0  0
   20.0809   17.0726   25.2505 H   0  0  0  0  0  0  0  0  0  0  0  0
   19.3014   18.9111   24.5306 C   0  0  0  0  0  0  0  0  0  0  0  0
   18.9202   19.8203   25.0033 H   0  0  0  0  0  0  0  0  0  0  0  0
   18.4816   18.4382   23.9843 H   0  0  0  0  0  0  0  0  0  0  0  0
   20.4407   19.2718   23.5583 C   0  0  0  0  0  0  0  0  0  0  0  0
   21.2703   19.7062   24.1317 H   0  0  0  0  0  0  0  0  0  0  0  0
   20.8296   18.3578   23.0961 H   0  0  0  0  0  0  0  0  0  0  0  0
   20.0006   20.2889   22.4747 C   0  0  0  0  0  0  0  0  0  0  0  0
   20.8806   20.6440   21.9211 H   0  0  0  0  0  0  0  0  0  0  0  0
   19.5954   21.1743   22.9842 H   0  0  0  0  0  0  0  0  0  0  0  0
   18.9349   19.7597   21.4761 C   0  0  0  0  0  0  0  0  0  0  0  0
   18.2704   19.0323   21.9595 H   0  0  0  0  0  0  0  0  0  0  0  0
   18.2891   20.6022   21.1919 H   0  0  0  0  0  0  0  0  0  0  0  0
   19.5116   19.1583   20.1690 C   0  0  0  0  0  0  0  0  0  0  0  0
   20.0892   19.9245   19.6330 H   0  0  0  0  0  0  0  0  0  0  0  0
   18.6736   18.8934   19.5092 H   0  0  0  0  0  0  0  0  0  0  0  0
   20.3907   17.9060   20.3773 C   0  0  0  0  0  0  0  0  0  0  0  0
   20.6428   17.4498   19.4113 H   0  0  0  0  0  0  0  0  0  0  0  0
   19.8692   17.1508   20.9796 H   0  0  0  0  0  0  0  0  0  0  0  0
   21.3348   18.1604   20.8740 H   0  0  0  0  0  0  0  0  0  0  0  0
  1  2  1  0  0  0  0
  1  3  1  0  0  0  0
  1  4  1  0  0  0  0
  1  5  1  0  0  0  0
  5  6  1  0  0  0  0
  5  7  1  0  0  0  0
  5  8  1  0  0  0  0
  8  9  1  0  0  0  0
  8 10  1  0  0  0  0
  8 11  1  0  0  0  0
 11 12  1  0  0  0  0
 11 13  1  0  0  0  0
 11 14  1  0  0  0  0
 14 15  1  0  0  0  0
 14 16  1  0  0  0  0
 14 17  1  0  0  0  0
 17 18  1  0  0  0  0
 17 19  1  0  0  0  0
 17 20  1  0  0  0  0
 20 21  1  0  0  0  0
 20 22  1  0  0  0  0
 20 23  1  0  0  0  0
M  END
> <VM2 Rank>
68

> <Conf_Id>
664

> <Probability>
0.02

> <Sum Probability>
99.89

> <Delta G>
3.874

> <G>
41.790

> <E>
13.895

> <-TS>
27.895

> <U+W>
-4.884

> <U>
51.036

> <W>
-55.920

> <W(PB)>
-57.979

> <W(SA)>
2.059

> <Valence>
5.117

> <Coulomb>
45.321

> <VdW>
0.598

> <VdW6>
-6.707

> <VdW12>
7.304

> <Bond>
0.233

> <Angle>
1.410

> <Pdih>
3.475

> <Idih>
0.000

> <Tether>
0.000

$$$$
VeraChem MOL file


 23 22  0  0  0  0  0  0  0  0999 V2000     
   18.8152   18.0098   24.6574 N   0  3  0  0  0  0  0  0  0  0  0  0
   18.7597   17.0079   24.8693 H   0  0  0  0  0  0  0  0  0  0  0  0
   18.2096   18.1832   23.8498 H   0  0  0  0  0  0  0  0  0  0  0  0
   18.4064   18.5068   25.4552 H   0  0  0  0  0  0  0  0  0  0  0  0
   20.2410   18.4519   24.3919 C   0  0  0  0  0  0  0  0  0  0  0  0
   20.6376   17.8616   23.5629 H   0  0  0  0  0  0  0  0  0  0  0  0
   20.8313   18.2175   25.2819 H   0  0  0  0  0  0  0  0  0  0  0  0
   20.3742   19.9539   24.0755 C   0  0  0  0  0  0  0  0  0  0  0  0
   20.0412   20.5263   24.9514 H   0  0  0  0  0  0  0  0  0  0  0  0
   21.4383   20.1926   23.9469 H   0  0  0  0  0  0  0  0  0  0  0  0
   19.5874   20.4406   22.8291 C   0  0  0  0  0  0  0  0  0  0  0  0
   19.7051   21.5319   22.7774 H   0  0  0  0  0  0  0  0  0  0  0  0
   18.5103   20.2706   22.9583 H   0  0  0  0  0  0  0  0  0  0  0  0
   20.0707   19.8494   21.4786 C   0  0  0  0  0  0  0  0  0  0  0  0
   19.8570   20.5841   20.6899 H   0  0  0  0  0  0  0  0  0  0  0  0
   21.1625   19.7274   21.4897 H   0  0  0  0  0  0  0  0  0  0  0  0
   19.3858   18.5174   21.0874 C   0  0  0  0  0  0  0  0  0  0  0  0
   18.2949   18.6488   21.0841 H   0  0  0  0  0  0  0  0  0  0  0  0
   19.6087   17.7345   21.8209 H   0  0  0  0  0  0  0  0  0  0  0  0
   19.8416   18.0341   19.6942 C   0  0  0  0  0  0  0  0  0  0  0  0
   19.5948   18.7716   18.9194 H   0  0  0  0  0  0  0  0  0  0  0  0
   19.3468   17.0905   19.4301 H   0  0  0  0  0  0  0  0  0  0  0  0
   20.9259   17.8638   19.6711 H   0  0  0  0  0  0  0  0  0  0  0  0
  1  2  1  0  0  0  0
  1  3  1  0  0  0  0
  1  4  1  0  0  0  0
  1  5  1  0  0  0  0
  5  6  1  0  0  0  0
  5  7  1  0  0  0  0
  5  8  1  0  0  0  0
  8  9  1  0  0  0  0
  8 10  1  0  0  0  0
  8 11  1  0  0  0  0
 11 12  1  0  0  0  0
 11 13  1  0  0  0  0
 11 14  1  0  0  0  0
 14 15  1  0  0  0  0
 14 16  1  0  0  0  0
 14 17  1  0  0  0  0
 17 18  1  0  0  0  0
 17 19  1  0  0  0  0
 17 20  1  0  0  0  0
 20 21  1  0  0  0  0
 20 22  1  0  0  0  0
 20 23  1  0  0  0  0
M  END
> <VM2 Rank>
69

> <Conf_Id>
726

> <Probability>
0.02

> <Sum Probability>
99.91

> <Delta G>
3.925

> <G>
41.841

> <E>
13.821

> <-TS>
28.020

> <U+W>
-4.958

> <U>
51.112

> <W>
-56.070

> <W(PB)>
-58.128

> <W(SA)>
2.058

> <Valence>
4.455

> <Coulomb>
46.320

> <VdW>
0.337

> <VdW6>
-7.022

> <VdW12>
7.359

> <Bond>
0.222

> <Angle>
1.454

> <Pdih>
2.779

> <Idih>
0.000

> <Tether>
0.000

$$$$
VeraChem MOL file


 23 22  0  0  0  0  0  0  0  0999 V2000     
   20.0558   17.7785   25.2513 N   0  3  0  0  0  0  0  0  0  0  0  0
   19.4578   17.0311   25.6196 H   0  0  0  0  0  0  0  0  0  0  0  0
   20.3397   18.3534   26.0511 H   0  0  0  0  0  0  0  0  0  0  0  0
   20.9024   17.3309   24.8862 H   0  0  0  0  0  0  0  0  0  0  0  0
   19.3457   18.5968   24.1922 C   0  0  0  0  0  0  0  0  0  0  0  0
   18.4430   19.0201   24.6409 H   0  0  0  0  0  0  0  0  0  0  0  0
   19.0446   17.9190   23.3893 H   0  0  0  0  0  0  0  0  0  0  0  0
   20.2177   19.7289   23.6175 C   0  0  0  0  0  0  0  0  0  0  0  0
   20.5329   20.3875   24.4376 H   0  0  0  0  0  0  0  0  0  0  0  0
   21.1389   19.3172   23.1876 H   0  0  0  0  0  0  0  0  0  0  0  0
   19.4737   20.5763   22.5581 C   0  0  0  0  0  0  0  0  0  0  0  0
   20.1444   21.3712   22.2039 H   0  0  0  0  0  0  0  0  0  0  0  0
   18.6351   21.0902   23.0481 H   0  0  0  0  0  0  0  0  0  0  0  0
   18.9231   19.7950   21.3342 C   0  0  0  0  0  0  0  0  0  0  0  0
   18.1750   19.0554   21.6493 H   0  0  0  0  0  0  0  0  0  0  0  0
   18.3736   20.5145   20.7115 H   0  0  0  0  0  0  0  0  0  0  0  0
   20.0026   19.1265   20.4436 C   0  0  0  0  0  0  0  0  0  0  0  0
   20.9293   19.7168   20.4583 H   0  0  0  0  0  0  0  0  0  0  0  0
   19.6509   19.1440   19.4025 H   0  0  0  0  0  0  0  0  0  0  0  0
   20.2973   17.6550   20.8171 C   0  0  0  0  0  0  0  0  0  0  0  0
   19.3822   17.0497   20.7848 H   0  0  0  0  0  0  0  0  0  0  0  0
   20.7322   17.5610   21.8174 H   0  0  0  0  0  0  0  0  0  0  0  0
   21.0105   17.2164   20.1072 H   0  0  0  0  0  0  0  0  0  0  0  0
  1  2  1  0  0  0  0
  1  3  1  0  0  0  0
  1  4  1  0  0  0  0
  1  5  1  0  0  0  0
  5  6  1  0  0  0  0
  5  7  1  0  0  0  0
  5  8  1  0  0  0  0
  8  9  1  0  0  0  0
  8 10  1  0  0  0  0
  8 11  1  0  0  0  0
 11 12  1  0  0  0  0
 11 13  1  0  0  0  0
 11 14  1  0  0  0  0
 14 15  1  0  0  0  0
 14 16  1  0  0  0  0
 14 17  1  0  0  0  0
 17 18  1  0  0  0  0
 17 19  1  0  0  0  0
 17 20  1  0  0  0  0
 20 21  1  0  0  0  0
 20 22  1  0  0  0  0
 20 23  1  0  0  0  0
M  END
> <VM2 Rank>
70

> <Conf_Id>
1083

> <Probability>
0.02

> <Sum Probability>
99.92

> <Delta G>
3.977

> <G>
41.893

> <E>
13.664

> <-TS>
28.229

> <U+W>
-5.115

> <U>
51.053

> <W>
-56.168

> <W(PB)>
-58.205

> <W(SA)>
2.037

> <Valence>
5.021

> <Coulomb>
45.787

> <VdW>
0.245

> <VdW6>
-7.353

> <VdW12>
7.597

> <Bond>
0.229

> <Angle>
1.631

> <Pdih>
3.162

> <Idih>
0.000

> <Tether>
0.000

$$$$
VeraChem MOL file


 23 22  0  0  0  0  0  0  0  0999 V2000     
   19.1251   18.9162   25.4648 N   0  3  0  0  0  0  0  0  0  0  0  0
   19.7542   19.4437   26.0784 H   0  0  0  0  0  0  0  0  0  0  0  0
   18.5744   18.2930   26.0649 H   0  0  0  0  0  0  0  0  0  0  0  0
   18.4722   19.5879   25.0499 H   0  0  0  0  0  0  0  0  0  0  0  0
   19.8869   18.1480   24.4029 C   0  0  0  0  0  0  0  0  0  0  0  0
   19.1636   17.5880   23.8053 H   0  0  0  0  0  0  0  0  0  0  0  0
   20.5317   17.4274   24.9134 H   0  0  0  0  0  0  0  0  0  0  0  0
   20.7477   19.0409   23.4852 C   0  0  0  0  0  0  0  0  0  0  0  0
   21.5042   19.5495   24.0973 H   0  0  0  0  0  0  0  0  0  0  0  0
   21.3058   18.3963   22.7978 H   0  0  0  0  0  0  0  0  0  0  0  0
   19.9425   20.1065   22.6924 C   0  0  0  0  0  0  0  0  0  0  0  0
   20.6362   20.7404   22.1234 H   0  0  0  0  0  0  0  0  0  0  0  0
   19.4595   20.7813   23.4116 H   0  0  0  0  0  0  0  0  0  0  0  0
   18.8546   19.5419   21.7374 C   0  0  0  0  0  0  0  0  0  0  0  0
   18.4040   18.6297   22.1479 H   0  0  0  0  0  0  0  0  0  0  0  0
   18.0364   20.2738   21.6894 H   0  0  0  0  0  0  0  0  0  0  0  0
   19.3281   19.2877   20.2834 C   0  0  0  0  0  0  0  0  0  0  0  0
   19.6774   20.2296   19.8378 H   0  0  0  0  0  0  0  0  0  0  0  0
   18.4598   18.9740   19.6871 H   0  0  0  0  0  0  0  0  0  0  0  0
   20.4311   18.2159   20.1477 C   0  0  0  0  0  0  0  0  0  0  0  0
   21.3866   18.5756   20.5478 H   0  0  0  0  0  0  0  0  0  0  0  0
   20.5945   17.9664   19.0914 H   0  0  0  0  0  0  0  0  0  0  0  0
   20.1547   17.2922   20.6724 H   0  0  0  0  0  0  0  0  0  0  0  0
  1  2  1  0  0  0  0
  1  3  1  0  0  0  0
  1  4  1  0  0  0  0
  1  5  1  0  0  0  0
  5  6  1  0  0  0  0
  5  7  1  0  0  0  0
  5  8  1  0  0  0  0
  8  9  1  0  0  0  0
  8 10  1  0  0  0  0
  8 11  1  0  0  0  0
 11 12  1  0  0  0  0
 11 13  1  0  0  0  0
 11 14  1  0  0  0  0
 14 15  1  0  0  0  0
 14 16  1  0  0  0  0
 14 17  1  0  0  0  0
 17 18  1  0  0  0  0
 17 19  1  0  0  0  0
 17 20  1  0  0  0  0
 20 21  1  0  0  0  0
 20 22  1  0  0  0  0
 20 23  1  0  0  0  0
M  END
> <VM2 Rank>
71

> <Conf_Id>
929

> <Probability>
0.01

> <Sum Probability>
99.93

> <Delta G>
4.131

> <G>
42.047

> <E>
14.152

> <-TS>
27.895

> <U+W>
-4.627

> <U>
51.455

> <W>
-56.082

> <W(PB)>
-58.109

> <W(SA)>
2.028

> <Valence>
5.238

> <Coulomb>
45.552

> <VdW>
0.665

> <VdW6>
-7.395

> <VdW12>
8.060

> <Bond>
0.274

> <Angle>
1.686

> <Pdih>
3.278

> <Idih>
0.000

> <Tether>
0.000

$$$$
VeraChem MOL file


 23 22  0  0  0  0  0  0  0  0999 V2000     
   20.0683   19.3080   25.5078 N   0  3  0  0  0  0  0  0  0  0  0  0
   20.0841   20.2575   25.1233 H   0  0  0  0  0  0  0  0  0  0  0  0
   20.8495   19.2380   26.1686 H   0  0  0  0  0  0  0  0  0  0  0  0
   19.2056   19.2157   26.0534 H   0  0  0  0  0  0  0  0  0  0  0  0
   20.1588   18.2609   24.4153 C   0  0  0  0  0  0  0  0  0  0  0  0
   20.1759   17.2795   24.8971 H   0  0  0  0  0  0  0  0  0  0  0  0
   21.1095   18.3964   23.8939 H   0  0  0  0  0  0  0  0  0  0  0  0
   18.9936   18.3121   23.4053 C   0  0  0  0  0  0  0  0  0  0  0  0
   19.1107   17.4844   22.6977 H   0  0  0  0  0  0  0  0  0  0  0  0
   18.0549   18.1165   23.9402 H   0  0  0  0  0  0  0  0  0  0  0  0
   18.8671   19.6598   22.6435 C   0  0  0  0  0  0  0  0  0  0  0  0
   18.6733   20.4547   23.3758 H   0  0  0  0  0  0  0  0  0  0  0  0
   17.9753   19.6351   22.0023 H   0  0  0  0  0  0  0  0  0  0  0  0
   20.1048   20.0614   21.7944 C   0  0  0  0  0  0  0  0  0  0  0  0
   20.1656   21.1585   21.7863 H   0  0  0  0  0  0  0  0  0  0  0  0
   21.0349   19.7229   22.2678 H   0  0  0  0  0  0  0  0  0  0  0  0
   20.0648   19.5937   20.3170 C   0  0  0  0  0  0  0  0  0  0  0  0
   20.9429   20.0057   19.8002 H   0  0  0  0  0  0  0  0  0  0  0  0
   19.1876   20.0259   19.8155 H   0  0  0  0  0  0  0  0  0  0  0  0
   20.0586   18.0610   20.1308 C   0  0  0  0  0  0  0  0  0  0  0  0
   19.1019   17.6262   20.4438 H   0  0  0  0  0  0  0  0  0  0  0  0
   20.8655   17.5875   20.7049 H   0  0  0  0  0  0  0  0  0  0  0  0
   20.2023   17.8032   19.0736 H   0  0  0  0  0  0  0  0  0  0  0  0
  1  2  1  0  0  0  0
  1  3  1  0  0  0  0
  1  4  1  0  0  0  0
  1  5  1  0  0  0  0
  5  6  1  0  0  0  0
  5  7  1  0  0  0  0
  5  8  1  0  0  0  0
  8  9  1  0  0  0  0
  8 10  1  0  0  0  0
  8 11  1  0  0  0  0
 11 12  1  0  0  0  0
 11 13  1  0  0  0  0
 11 14  1  0  0  0  0
 14 15  1  0  0  0  0
 14 16  1  0  0  0  0
 14 17  1  0  0  0  0
 17 18  1  0  0  0  0
 17 19  1  0  0  0  0
 17 20  1  0  0  0  0
 20 21  1  0  0  0  0
 20 22  1  0  0  0  0
 20 23  1  0  0  0  0
M  END
> <VM2 Rank>
72

> <Conf_Id>
511

> <Probability>
0.01

> <Sum Probability>
99.94

> <Delta G>
4.170

> <G>
42.087

> <E>
14.191

> <-TS>
27.895

> <U+W>
-4.588

> <U>
51.455

> <W>
-56.042

> <W(PB)>
-58.082

> <W(SA)>
2.040

> <Valence>
5.238

> <Coulomb>
45.552

> <VdW>
0.665

> <VdW6>
-7.395

> <VdW12>
8.060

> <Bond>
0.274

> <Angle>
1.687

> <Pdih>
3.277

> <Idih>
0.000

> <Tether>
0.000

$$$$
VeraChem MOL file


 23 22  0  0  0  0  0  0  0  0999 V2000     
   20.3751   18.5201   25.2077 N   0  3  0  0  0  0  0  0  0  0  0  0
   20.8655   17.7110   25.6035 H   0  0  0  0  0  0  0  0  0  0  0  0
   19.8647   18.9661   25.9765 H   0  0  0  0  0  0  0  0  0  0  0  0
   21.0909   19.1828   24.8947 H   0  0  0  0  0  0  0  0  0  0  0  0
   19.4501   18.1206   24.0752 C   0  0  0  0  0  0  0  0  0  0  0  0
   18.7345   17.3942   24.4699 H   0  0  0  0  0  0  0  0  0  0  0  0
   20.0496   17.6248   23.3074 H   0  0  0  0  0  0  0  0  0  0  0  0
   18.6862   19.3071   23.4533 C   0  0  0  0  0  0  0  0  0  0  0  0
   17.9790   18.9314   22.7040 H   0  0  0  0  0  0  0  0  0  0  0  0
   18.0705   19.7810   24.2292 H   0  0  0  0  0  0  0  0  0  0  0  0
   19.6039   20.3779   22.8109 C   0  0  0  0  0  0  0  0  0  0  0  0
   20.1805   20.8731   23.6037 H   0  0  0  0  0  0  0  0  0  0  0  0
   18.9751   21.1645   22.3719 H   0  0  0  0  0  0  0  0  0  0  0  0
   20.5931   19.8607   21.7313 C   0  0  0  0  0  0  0  0  0  0  0  0
   21.2222   20.7116   21.4354 H   0  0  0  0  0  0  0  0  0  0  0  0
   21.2860   19.1232   22.1575 H   0  0  0  0  0  0  0  0  0  0  0  0
   19.9280   19.2983   20.4481 C   0  0  0  0  0  0  0  0  0  0  0  0
   20.5906   19.5075   19.5965 H   0  0  0  0  0  0  0  0  0  0  0  0
   18.9906   19.8318   20.2383 H   0  0  0  0  0  0  0  0  0  0  0  0
   19.6796   17.7724   20.4875 C   0  0  0  0  0  0  0  0  0  0  0  0
   18.9510   17.4915   21.2548 H   0  0  0  0  0  0  0  0  0  0  0  0
   20.6113   17.2265   20.6843 H   0  0  0  0  0  0  0  0  0  0  0  0
   19.2887   17.4246   19.5225 H   0  0  0  0  0  0  0  0  0  0  0  0
  1  2  1  0  0  0  0
  1  3  1  0  0  0  0
  1  4  1  0  0  0  0
  1  5  1  0  0  0  0
  5  6  1  0  0  0  0
  5  7  1  0  0  0  0
  5  8  1  0  0  0  0
  8  9  1  0  0  0  0
  8 10  1  0  0  0  0
  8 11  1  0  0  0  0
 11 12  1  0  0  0  0
 11 13  1  0  0  0  0
 11 14  1  0  0  0  0
 14 15  1  0  0  0  0
 14 16  1  0  0  0  0
 14 17  1  0  0  0  0
 17 18  1  0  0  0  0
 17 19  1  0  0  0  0
 17 20  1  0  0  0  0
 20 21  1  0  0  0  0
 20 22  1  0  0  0  0
 20 23  1  0  0  0  0
M  END
> <VM2 Rank>
73

> <Conf_Id>
366

> <Probability>
0.01

> <Sum Probability>
99.95

> <Delta G>
4.280

> <G>
42.197

> <E>
13.815

> <-TS>
28.381

> <U+W>
-4.964

> <U>
51.195

> <W>
-56.159

> <W(PB)>
-58.177

> <W(SA)>
2.018

> <Valence>
5.115

> <Coulomb>
45.778

> <VdW>
0.302

> <VdW6>
-7.950

> <VdW12>
8.252

> <Bond>
0.252

> <Angle>
1.729

> <Pdih>
3.133

> <Idih>
0.000

> <Tether>
0.000

$$$$
VeraChem MOL file


 23 22  0  0  0  0  0  0  0  0999 V2000     
   19.4907   18.1525   25.1677 N   0  3  0  0  0  0  0  0  0  0  0  0
   19.6884   17.2217   25.5503 H   0  0  0  0  0  0  0  0  0  0  0  0
   18.5433   18.1236   24.7791 H   0  0  0  0  0  0  0  0  0  0  0  0
   19.4740   18.8038   25.9589 H   0  0  0  0  0  0  0  0  0  0  0  0
   20.5107   18.5615   24.1236 C   0  0  0  0  0  0  0  0  0  0  0  0
   20.4999   17.8120   23.3281 H   0  0  0  0  0  0  0  0  0  0  0  0
   21.4967   18.5426   24.5956 H   0  0  0  0  0  0  0  0  0  0  0  0
   20.2556   19.9596   23.5248 C   0  0  0  0  0  0  0  0  0  0  0  0
   20.2924   20.7048   24.3303 H   0  0  0  0  0  0  0  0  0  0  0  0
   21.0762   20.2190   22.8450 H   0  0  0  0  0  0  0  0  0  0  0  0
   18.9032   20.0864   22.7790 C   0  0  0  0  0  0  0  0  0  0  0  0
   18.8220   21.1008   22.3650 H   0  0  0  0  0  0  0  0  0  0  0  0
   18.0863   20.0022   23.5083 H   0  0  0  0  0  0  0  0  0  0  0  0
   18.6585   19.0563   21.6430 C   0  0  0  0  0  0  0  0  0  0  0  0
   18.6608   18.0316   22.0377 H   0  0  0  0  0  0  0  0  0  0  0  0
   17.6374   19.2210   21.2719 H   0  0  0  0  0  0  0  0  0  0  0  0
   19.6231   19.1716   20.4341 C   0  0  0  0  0  0  0  0  0  0  0  0
   19.9201   20.2184   20.2808 H   0  0  0  0  0  0  0  0  0  0  0  0
   19.0759   18.8780   19.5273 H   0  0  0  0  0  0  0  0  0  0  0  0
   20.8743   18.2692   20.5418 C   0  0  0  0  0  0  0  0  0  0  0  0
   21.5252   18.5616   21.3721 H   0  0  0  0  0  0  0  0  0  0  0  0
   21.4699   18.3315   19.6218 H   0  0  0  0  0  0  0  0  0  0  0  0
   20.5910   17.2181   20.6831 H   0  0  0  0  0  0  0  0  0  0  0  0
  1  2  1  0  0  0  0
  1  3  1  0  0  0  0
  1  4  1  0  0  0  0
  1  5  1  0  0  0  0
  5  6  1  0  0  0  0
  5  7  1  0  0  0  0
  5  8  1  0  0  0  0
  8  9  1  0  0  0  0
  8 10  1  0  0  0  0
  8 11  1  0  0  0  0
 11 12  1  0  0  0  0
 11 13  1  0  0  0  0
 11 14  1  0  0  0  0
 14 15  1  0  0  0  0
 14 16  1  0  0  0  0
 14 17  1  0  0  0  0
 17 18  1  0  0  0  0
 17 19  1  0  0  0  0
 17 20  1  0  0  0  0
 20 21  1  0  0  0  0
 20 22  1  0  0  0  0
 20 23  1  0  0  0  0
M  END
> <VM2 Rank>
74

> <Conf_Id>
175

> <Probability>
0.01

> <Sum Probability>
99.96

> <Delta G>
4.289

> <G>
42.206

> <E>
13.825

> <-TS>
28.381

> <U+W>
-4.955

> <U>
51.195

> <W>
-56.149

> <W(PB)>
-58.166

> <W(SA)>
2.017

> <Valence>
5.115

> <Coulomb>
45.778

> <VdW>
0.302

> <VdW6>
-7.949

> <VdW12>
8.251

> <Bond>
0.252

> <Angle>
1.729

> <Pdih>
3.134

> <Idih>
0.000

> <Tether>
0.000

$$$$
VeraChem MOL file


 23 22  0  0  0  0  0  0  0  0999 V2000     
   20.1345   17.6276   24.2542 N   0  3  0  0  0  0  0  0  0  0  0  0
   20.5897   17.6930   23.3391 H   0  0  0  0  0  0  0  0  0  0  0  0
   19.3078   17.0325   24.1406 H   0  0  0  0  0  0  0  0  0  0  0  0
   20.7764   17.1298   24.8805 H   0  0  0  0  0  0  0  0  0  0  0  0
   19.7693   18.9960   24.7955 C   0  0  0  0  0  0  0  0  0  0  0  0
   20.6915   19.5517   24.9854 H   0  0  0  0  0  0  0  0  0  0  0  0
   19.2667   18.8369   25.7534 H   0  0  0  0  0  0  0  0  0  0  0  0
   18.8465   19.8183   23.8719 C   0  0  0  0  0  0  0  0  0  0  0  0
   18.0464   19.1830   23.4713 H   0  0  0  0  0  0  0  0  0  0  0  0
   18.3418   20.5708   24.4922 H   0  0  0  0  0  0  0  0  0  0  0  0
   19.5848   20.5683   22.7305 C   0  0  0  0  0  0  0  0  0  0  0  0
   20.2991   21.2737   23.1772 H   0  0  0  0  0  0  0  0  0  0  0  0
   18.8552   21.1866   22.1896 H   0  0  0  0  0  0  0  0  0  0  0  0
   20.3402   19.6831   21.7066 C   0  0  0  0  0  0  0  0  0  0  0  0
   20.8244   20.3441   20.9744 H   0  0  0  0  0  0  0  0  0  0  0  0
   21.1583   19.1464   22.2023 H   0  0  0  0  0  0  0  0  0  0  0  0
   19.4251   18.6927   20.9478 C   0  0  0  0  0  0  0  0  0  0  0  0
   18.6238   19.2477   20.4401 H   0  0  0  0  0  0  0  0  0  0  0  0
   18.9346   18.0049   21.6480 H   0  0  0  0  0  0  0  0  0  0  0  0
   20.2156   17.8710   19.9076 C   0  0  0  0  0  0  0  0  0  0  0  0
   21.0063   17.2797   20.3871 H   0  0  0  0  0  0  0  0  0  0  0  0
   20.6840   18.5256   19.1609 H   0  0  0  0  0  0  0  0  0  0  0  0
   19.5514   17.1770   19.3763 H   0  0  0  0  0  0  0  0  0  0  0  0
  1  2  1  0  0  0  0
  1  3  1  0  0  0  0
  1  4  1  0  0  0  0
  1  5  1  0  0  0  0
  5  6  1  0  0  0  0
  5  7  1  0  0  0  0
  5  8  1  0  0  0  0
  8  9  1  0  0  0  0
  8 10  1  0  0  0  0
  8 11  1  0  0  0  0
 11 12  1  0  0  0  0
 11 13  1  0  0  0  0
 11 14  1  0  0  0  0
 14 15  1  0  0  0  0
 14 16  1  0  0  0  0
 14 17  1  0  0  0  0
 17 18  1  0  0  0  0
 17 19  1  0  0  0  0
 17 20  1  0  0  0  0
 20 21  1  0  0  0  0
 20 22  1  0  0  0  0
 20 23  1  0  0  0  0
M  END
> <VM2 Rank>
75

> <Conf_Id>
190

> <Probability>
0.01

> <Sum Probability>
99.97

> <Delta G>
4.457

> <G>
42.373

> <E>
14.097

> <-TS>
28.276

> <U+W>
-4.682

> <U>
50.877

> <W>
-55.558

> <W(PB)>
-57.617

> <W(SA)>
2.059

> <Valence>
3.812

> <Coulomb>
46.852

> <VdW>
0.213

> <VdW6>
-7.416

> <VdW12>
7.629

> <Bond>
0.215

> <Angle>
1.471

> <Pdih>
2.126

> <Idih>
0.000

> <Tether>
0.000

$$$$
VeraChem MOL file


 23 22  0  0  0  0  0  0  0  0999 V2000     
   20.3656   17.7238   24.2648 N   0  3  0  0  0  0  0  0  0  0  0  0
   20.0707   17.4771   23.3155 H   0  0  0  0  0  0  0  0  0  0  0  0
   20.2189   16.8979   24.8553 H   0  0  0  0  0  0  0  0  0  0  0  0
   21.3761   17.8928   24.2349 H   0  0  0  0  0  0  0  0  0  0  0  0
   19.6112   18.9302   24.7884 C   0  0  0  0  0  0  0  0  0  0  0  0
   20.0024   19.1430   25.7870 H   0  0  0  0  0  0  0  0  0  0  0  0
   18.5557   18.6633   24.8882 H   0  0  0  0  0  0  0  0  0  0  0  0
   19.7484   20.1935   23.9130 C   0  0  0  0  0  0  0  0  0  0  0  0
   19.5218   21.0617   24.5459 H   0  0  0  0  0  0  0  0  0  0  0  0
   20.7909   20.3246   23.5964 H   0  0  0  0  0  0  0  0  0  0  0  0
   18.7877   20.2366   22.6942 C   0  0  0  0  0  0  0  0  0  0  0  0
   18.9040   21.2069   22.1918 H   0  0  0  0  0  0  0  0  0  0  0  0
   17.7522   20.2141   23.0612 H   0  0  0  0  0  0  0  0  0  0  0  0
   18.9636   19.1104   21.6439 C   0  0  0  0  0  0  0  0  0  0  0  0
   18.7310   18.1365   22.0917 H   0  0  0  0  0  0  0  0  0  0  0  0
   18.2124   19.2574   20.8555 H   0  0  0  0  0  0  0  0  0  0  0  0
   20.3660   19.0841   20.9905 C   0  0  0  0  0  0  0  0  0  0  0  0
   21.1430   18.9238   21.7485 H   0  0  0  0  0  0  0  0  0  0  0  0
   20.5747   20.0594   20.5288 H   0  0  0  0  0  0  0  0  0  0  0  0
   20.4735   17.9784   19.9192 C   0  0  0  0  0  0  0  0  0  0  0  0
   21.4723   17.9763   19.4636 H   0  0  0  0  0  0  0  0  0  0  0  0
   19.7391   18.1324   19.1179 H   0  0  0  0  0  0  0  0  0  0  0  0
   20.3003   16.9859   20.3550 H   0  0  0  0  0  0  0  0  0  0  0  0
  1  2  1  0  0  0  0
  1  3  1  0  0  0  0
  1  4  1  0  0  0  0
  1  5  1  0  0  0  0
  5  6  1  0  0  0  0
  5  7  1  0  0  0  0
  5  8  1  0  0  0  0
  8  9  1  0  0  0  0
  8 10  1  0  0  0  0
  8 11  1  0  0  0  0
 11 12  1  0  0  0  0
 11 13  1  0  0  0  0
 11 14  1  0  0  0  0
 14 15  1  0  0  0  0
 14 16  1  0  0  0  0
 14 17  1  0  0  0  0
 17 18  1  0  0  0  0
 17 19  1  0  0  0  0
 17 20  1  0  0  0  0
 20 21  1  0  0  0  0
 20 22  1  0  0  0  0
 20 23  1  0  0  0  0
M  END
> <VM2 Rank>
76

> <Conf_Id>
1101

> <Probability>
0.01

> <Sum Probability>
99.97

> <Delta G>
4.547

> <G>
42.463

> <E>
14.187

> <-TS>
28.276

> <U+W>
-4.592

> <U>
50.876

> <W>
-55.468

> <W(PB)>
-57.490

> <W(SA)>
2.022

> <Valence>
3.812

> <Coulomb>
46.852

> <VdW>
0.213

> <VdW6>
-7.415

> <VdW12>
7.628

> <Bond>
0.215

> <Angle>
1.471

> <Pdih>
2.126

> <Idih>
0.000

> <Tether>
0.000

$$$$
VeraChem MOL file


 23 22  0  0  0  0  0  0  0  0999 V2000     
   19.4989   17.6997   24.7627 N   0  3  0  0  0  0  0  0  0  0  0  0
   18.7834   16.9950   24.9706 H   0  0  0  0  0  0  0  0  0  0  0  0
   19.9786   17.9063   25.6447 H   0  0  0  0  0  0  0  0  0  0  0  0
   20.1845   17.2598   24.1421 H   0  0  0  0  0  0  0  0  0  0  0  0
   18.8974   18.9475   24.1453 C   0  0  0  0  0  0  0  0  0  0  0  0
   18.1656   19.3437   24.8545 H   0  0  0  0  0  0  0  0  0  0  0  0
   18.3650   18.6536   23.2389 H   0  0  0  0  0  0  0  0  0  0  0  0
   19.9373   20.0410   23.8248 C   0  0  0  0  0  0  0  0  0  0  0  0
   19.4173   20.9711   23.5600 H   0  0  0  0  0  0  0  0  0  0  0  0
   20.4961   20.2615   24.7440 H   0  0  0  0  0  0  0  0  0  0  0  0
   20.9402   19.6667   22.7006 C   0  0  0  0  0  0  0  0  0  0  0  0
   21.2417   18.6148   22.7787 H   0  0  0  0  0  0  0  0  0  0  0  0
   21.8602   20.2433   22.8687 H   0  0  0  0  0  0  0  0  0  0  0  0
   20.4541   19.9894   21.2615 C   0  0  0  0  0  0  0  0  0  0  0  0
   20.2585   21.0680   21.1867 H   0  0  0  0  0  0  0  0  0  0  0  0
   21.2780   19.7891   20.5627 H   0  0  0  0  0  0  0  0  0  0  0  0
   19.1992   19.2231   20.7750 C   0  0  0  0  0  0  0  0  0  0  0  0
   18.9569   19.5650   19.7591 H   0  0  0  0  0  0  0  0  0  0  0  0
   18.3294   19.4872   21.3896 H   0  0  0  0  0  0  0  0  0  0  0  0
   19.3889   17.6895   20.7442 C   0  0  0  0  0  0  0  0  0  0  0  0
   18.5004   17.2008   20.3240 H   0  0  0  0  0  0  0  0  0  0  0  0
   19.5479   17.2796   21.7479 H   0  0  0  0  0  0  0  0  0  0  0  0
   20.2495   17.4126   20.1217 H   0  0  0  0  0  0  0  0  0  0  0  0
  1  2  1  0  0  0  0
  1  3  1  0  0  0  0
  1  4  1  0  0  0  0
  1  5  1  0  0  0  0
  5  6  1  0  0  0  0
  5  7  1  0  0  0  0
  5  8  1  0  0  0  0
  8  9  1  0  0  0  0
  8 10  1  0  0  0  0
  8 11  1  0  0  0  0
 11 12  1  0  0  0  0
 11 13  1  0  0  0  0
 11 14  1  0  0  0  0
 14 15  1  0  0  0  0
 14 16  1  0  0  0  0
 14 17  1  0  0  0  0
 17 18  1  0  0  0  0
 17 19  1  0  0  0  0
 17 20  1  0  0  0  0
 20 21  1  0  0  0  0
 20 22  1  0  0  0  0
 20 23  1  0  0  0  0
M  END
> <VM2 Rank>
77

> <Conf_Id>
1104

> <Probability>
0.01

> <Sum Probability>
99.98

> <Delta G>
4.550

> <G>
42.466

> <E>
13.890

> <-TS>
28.576

> <U+W>
-4.889

> <U>
51.403

> <W>
-56.291

> <W(PB)>
-58.317

> <W(SA)>
2.025

> <Valence>
4.890

> <Coulomb>
46.339

> <VdW>
0.174

> <VdW6>
-8.061

> <VdW12>
8.235

> <Bond>
0.255

> <Angle>
1.788

> <Pdih>
2.848

> <Idih>
0.000

> <Tether>
0.000

$$$$
VeraChem MOL file


 23 22  0  0  0  0  0  0  0  0999 V2000     
   20.7213   18.2082   24.8183 N   0  3  0  0  0  0  0  0  0  0  0  0
   21.7064   18.2110   25.1037 H   0  0  0  0  0  0  0  0  0  0  0  0
   20.5997   17.4325   24.1609 H   0  0  0  0  0  0  0  0  0  0  0  0
   20.1701   17.9859   25.6534 H   0  0  0  0  0  0  0  0  0  0  0  0
   20.3080   19.5343   24.2096 C   0  0  0  0  0  0  0  0  0  0  0  0
   20.9601   19.7332   23.3572 H   0  0  0  0  0  0  0  0  0  0  0  0
   20.4861   20.3090   24.9602 H   0  0  0  0  0  0  0  0  0  0  0  0
   18.8287   19.5798   23.7743 C   0  0  0  0  0  0  0  0  0  0  0  0
   18.2090   19.3099   24.6398 H   0  0  0  0  0  0  0  0  0  0  0  0
   18.5557   20.6127   23.5208 H   0  0  0  0  0  0  0  0  0  0  0  0
   18.4769   18.6420   22.5883 C   0  0  0  0  0  0  0  0  0  0  0  0
   17.4098   18.3920   22.6658 H   0  0  0  0  0  0  0  0  0  0  0  0
   19.0039   17.6839   22.6766 H   0  0  0  0  0  0  0  0  0  0  0  0
   18.7012   19.2603   21.1816 C   0  0  0  0  0  0  0  0  0  0  0  0
   18.3189   18.5582   20.4278 H   0  0  0  0  0  0  0  0  0  0  0  0
   18.0808   20.1621   21.0875 H   0  0  0  0  0  0  0  0  0  0  0  0
   20.1624   19.6238   20.8189 C   0  0  0  0  0  0  0  0  0  0  0  0
   20.5383   20.4061   21.4902 H   0  0  0  0  0  0  0  0  0  0  0  0
   20.1693   20.0693   19.8143 H   0  0  0  0  0  0  0  0  0  0  0  0
   21.1175   18.4086   20.8230 C   0  0  0  0  0  0  0  0  0  0  0  0
   22.1197   18.7064   20.4889 H   0  0  0  0  0  0  0  0  0  0  0  0
   20.7577   17.6239   20.1451 H   0  0  0  0  0  0  0  0  0  0  0  0
   21.2183   17.9746   21.8242 H   0  0  0  0  0  0  0  0  0  0  0  0
  1  2  1  0  0  0  0
  1  3  1  0  0  0  0
  1  4  1  0  0  0  0
  1  5  1  0  0  0  0
  5  6  1  0  0  0  0
  5  7  1  0  0  0  0
  5  8  1  0  0  0  0
  8  9  1  0  0  0  0
  8 10  1  0  0  0  0
  8 11  1  0  0  0  0
 11 12  1  0  0  0  0
 11 13  1  0  0  0  0
 11 14  1  0  0  0  0
 14 15  1  0  0  0  0
 14 16  1  0  0  0  0
 14 17  1  0  0  0  0
 17 18  1  0  0  0  0
 17 19  1  0  0  0  0
 17 20  1  0  0  0  0
 20 21  1  0  0  0  0
 20 22  1  0  0  0  0
 20 23  1  0  0  0  0
M  END
> <VM2 Rank>
78

> <Conf_Id>
172

> <Probability>
0.01

> <Sum Probability>
99.99

> <Delta G>
4.562

> <G>
42.479

> <E>
13.903

> <-TS>
28.576

> <U+W>
-4.877

> <U>
51.403

> <W>
-56.279

> <W(PB)>
-58.290

> <W(SA)>
2.011

> <Valence>
4.890

> <Coulomb>
46.339

> <VdW>
0.174

> <VdW6>
-8.062

> <VdW12>
8.235

> <Bond>
0.255

> <Angle>
1.788

> <Pdih>
2.848

> <Idih>
0.000

> <Tether>
0.000

$$$$
VeraChem MOL file


 23 22  0  0  0  0  0  0  0  0999 V2000     
   19.3637   17.7796   24.5918 N   0  3  0  0  0  0  0  0  0  0  0  0
   18.7178   17.7195   23.7998 H   0  0  0  0  0  0  0  0  0  0  0  0
   18.8667   17.4285   25.4175 H   0  0  0  0  0  0  0  0  0  0  0  0
   20.1333   17.1284   24.4077 H   0  0  0  0  0  0  0  0  0  0  0  0
   19.8646   19.1953   24.7981 C   0  0  0  0  0  0  0  0  0  0  0  0
   20.5520   19.1700   25.6480 H   0  0  0  0  0  0  0  0  0  0  0  0
   19.0147   19.8271   25.0694 H   0  0  0  0  0  0  0  0  0  0  0  0
   20.5936   19.7988   23.5793 C   0  0  0  0  0  0  0  0  0  0  0  0
   21.2085   20.6326   23.9431 H   0  0  0  0  0  0  0  0  0  0  0  0
   21.3008   19.0722   23.1596 H   0  0  0  0  0  0  0  0  0  0  0  0
   19.6501   20.3559   22.4798 C   0  0  0  0  0  0  0  0  0  0  0  0
   20.2552   20.8972   21.7404 H   0  0  0  0  0  0  0  0  0  0  0  0
   18.9939   21.1140   22.9291 H   0  0  0  0  0  0  0  0  0  0  0  0
   18.7684   19.3132   21.7421 C   0  0  0  0  0  0  0  0  0  0  0  0
   18.0317   18.8946   22.4386 H   0  0  0  0  0  0  0  0  0  0  0  0
   18.1762   19.8391   20.9805 H   0  0  0  0  0  0  0  0  0  0  0  0
   19.5443   18.1614   21.0528 C   0  0  0  0  0  0  0  0  0  0  0  0
   18.8192   17.4802   20.5860 H   0  0  0  0  0  0  0  0  0  0  0  0
   20.0859   17.5626   21.7960 H   0  0  0  0  0  0  0  0  0  0  0  0
   20.5312   18.6529   19.9700 C   0  0  0  0  0  0  0  0  0  0  0  0
   20.0185   19.2663   19.2178 H   0  0  0  0  0  0  0  0  0  0  0  0
   20.9901   17.8007   19.4524 H   0  0  0  0  0  0  0  0  0  0  0  0
   21.3417   19.2499   20.4063 H   0  0  0  0  0  0  0  0  0  0  0  0
  1  2  1  0  0  0  0
  1  3  1  0  0  0  0
  1  4  1  0  0  0  0
  1  5  1  0  0  0  0
  5  6  1  0  0  0  0
  5  7  1  0  0  0  0
  5  8  1  0  0  0  0
  8  9  1  0  0  0  0
  8 10  1  0  0  0  0
  8 11  1  0  0  0  0
 11 12  1  0  0  0  0
 11 13  1  0  0  0  0
 11 14  1  0  0  0  0
 14 15  1  0  0  0  0
 14 16  1  0  0  0  0
 14 17  1  0  0  0  0
 17 18  1  0  0  0  0
 17 19  1  0  0  0  0
 17 20  1  0  0  0  0
 20 21  1  0  0  0  0
 20 22  1  0  0  0  0
 20 23  1  0  0  0  0
M  END
> <VM2 Rank>
79

> <Conf_Id>
684

> <Probability>
0.00

> <Sum Probability>
99.99

> <Delta G>
4.664

> <G>
42.580

> <E>
14.117

> <-TS>
28.464

> <U+W>
-4.662

> <U>
51.397

> <W>
-56.058

> <W(PB)>
-58.084

> <W(SA)>
2.026

> <Valence>
4.231

> <Coulomb>
46.940

> <VdW>
0.225

> <VdW6>
-8.093

> <VdW12>
8.319

> <Bond>
0.258

> <Angle>
1.779

> <Pdih>
2.194

> <Idih>
0.000

> <Tether>
0.000

$$$$
VeraChem MOL file


 23 22  0  0  0  0  0  0  0  0999 V2000     
   20.7730   18.3662   24.6562 N   0  3  0  0  0  0  0  0  0  0  0  0
   20.7084   17.3677   24.4341 H   0  0  0  0  0  0  0  0  0  0  0  0
   21.3064   18.4439   25.5288 H   0  0  0  0  0  0  0  0  0  0  0  0
   21.3303   18.8067   23.9190 H   0  0  0  0  0  0  0  0  0  0  0  0
   19.4029   19.0032   24.7771 C   0  0  0  0  0  0  0  0  0  0  0  0
   19.5309   20.0419   25.0930 H   0  0  0  0  0  0  0  0  0  0  0  0
   18.8725   18.4712   25.5715 H   0  0  0  0  0  0  0  0  0  0  0  0
   18.5586   18.9519   23.4865 C   0  0  0  0  0  0  0  0  0  0  0  0
   18.6095   17.9521   23.0369 H   0  0  0  0  0  0  0  0  0  0  0  0
   17.5084   19.0927   23.7744 H   0  0  0  0  0  0  0  0  0  0  0  0
   18.9115   20.0485   22.4462 C   0  0  0  0  0  0  0  0  0  0  0  0
   18.8003   21.0334   22.9203 H   0  0  0  0  0  0  0  0  0  0  0  0
   18.1608   20.0257   21.6450 H   0  0  0  0  0  0  0  0  0  0  0  0
   20.3258   19.9612   21.8131 C   0  0  0  0  0  0  0  0  0  0  0  0
   20.4280   20.7762   21.0832 H   0  0  0  0  0  0  0  0  0  0  0  0
   21.0853   20.1653   22.5777 H   0  0  0  0  0  0  0  0  0  0  0  0
   20.6504   18.6217   21.1032 C   0  0  0  0  0  0  0  0  0  0  0  0
   20.6368   17.7918   21.8211 H   0  0  0  0  0  0  0  0  0  0  0  0
   21.6779   18.6699   20.7161 H   0  0  0  0  0  0  0  0  0  0  0  0
   19.6937   18.3044   19.9318 C   0  0  0  0  0  0  0  0  0  0  0  0
   20.0153   17.3951   19.4078 H   0  0  0  0  0  0  0  0  0  0  0  0
   19.6773   19.1244   19.2023 H   0  0  0  0  0  0  0  0  0  0  0  0
   18.6683   18.1373   20.2845 H   0  0  0  0  0  0  0  0  0  0  0  0
  1  2  1  0  0  0  0
  1  3  1  0  0  0  0
  1  4  1  0  0  0  0
  1  5  1  0  0  0  0
  5  6  1  0  0  0  0
  5  7  1  0  0  0  0
  5  8  1  0  0  0  0
  8  9  1  0  0  0  0
  8 10  1  0  0  0  0
  8 11  1  0  0  0  0
 11 12  1  0  0  0  0
 11 13  1  0  0  0  0
 11 14  1  0  0  0  0
 14 15  1  0  0  0  0
 14 16  1  0  0  0  0
 14 17  1  0  0  0  0
 17 18  1  0  0  0  0
 17 19  1  0  0  0  0
 17 20  1  0  0  0  0
 20 21  1  0  0  0  0
 20 22  1  0  0  0  0
 20 23  1  0  0  0  0
M  END
> <VM2 Rank>
80

> <Conf_Id>
1084

> <Probability>
0.00

> <Sum Probability>
99.99

> <Delta G>
4.718

> <G>
42.634

> <E>
14.171

> <-TS>
28.463

> <U+W>
-4.608

> <U>
51.396

> <W>
-56.004

> <W(PB)>
-58.024

> <W(SA)>
2.020

> <Valence>
4.231

> <Coulomb>
46.940

> <VdW>
0.225

> <VdW6>
-8.093

> <VdW12>
8.318

> <Bond>
0.258

> <Angle>
1.779

> <Pdih>
2.195

> <Idih>
0.000

> <Tether>
0.000

$$$$
VeraChem MOL file


 23 22  0  0  0  0  0  0  0  0999 V2000     
   19.2365   17.6403   24.2850 N   0  3  0  0  0  0  0  0  0  0  0  0
   19.5066   17.3532   23.3395 H   0  0  0  0  0  0  0  0  0  0  0  0
   18.3729   17.1396   24.5208 H   0  0  0  0  0  0  0  0  0  0  0  0
   19.9622   17.3048   24.9265 H   0  0  0  0  0  0  0  0  0  0  0  0
   19.0588   19.1429   24.3750 C   0  0  0  0  0  0  0  0  0  0  0  0
   18.7364   19.3789   25.3928 H   0  0  0  0  0  0  0  0  0  0  0  0
   18.2567   19.4363   23.6944 H   0  0  0  0  0  0  0  0  0  0  0  0
   20.3371   19.9390   24.0498 C   0  0  0  0  0  0  0  0  0  0  0  0
   20.1166   21.0104   24.1462 H   0  0  0  0  0  0  0  0  0  0  0  0
   21.0903   19.7170   24.8174 H   0  0  0  0  0  0  0  0  0  0  0  0
   20.9548   19.6677   22.6515 C   0  0  0  0  0  0  0  0  0  0  0  0
   21.2719   18.6218   22.5661 H   0  0  0  0  0  0  0  0  0  0  0  0
   21.8843   20.2508   22.5934 H   0  0  0  0  0  0  0  0  0  0  0  0
   20.0677   20.0851   21.4460 C   0  0  0  0  0  0  0  0  0  0  0  0
   19.5620   21.0323   21.6786 H   0  0  0  0  0  0  0  0  0  0  0  0
   20.7261   20.3063   20.5947 H   0  0  0  0  0  0  0  0  0  0  0  0
   19.0184   19.0442   20.9746 C   0  0  0  0  0  0  0  0  0  0  0  0
   18.4218   19.4996   20.1717 H   0  0  0  0  0  0  0  0  0  0  0  0
   18.3051   18.8124   21.7728 H   0  0  0  0  0  0  0  0  0  0  0  0
   19.6428   17.7378   20.4321 C   0  0  0  0  0  0  0  0  0  0  0  0
   20.3558   17.9492   19.6246 H   0  0  0  0  0  0  0  0  0  0  0  0
   18.8632   17.0813   20.0242 H   0  0  0  0  0  0  0  0  0  0  0  0
   20.1690   17.1772   21.2128 H   0  0  0  0  0  0  0  0  0  0  0  0
  1  2  1  0  0  0  0
  1  3  1  0  0  0  0
  1  4  1  0  0  0  0
  1  5  1  0  0  0  0
  5  6  1  0  0  0  0
  5  7  1  0  0  0  0
  5  8  1  0  0  0  0
  8  9  1  0  0  0  0
  8 10  1  0  0  0  0
  8 11  1  0  0  0  0
 11 12  1  0  0  0  0
 11 13  1  0  0  0  0
 11 14  1  0  0  0  0
 14 15  1  0  0  0  0
 14 16  1  0  0  0  0
 14 17  1  0  0  0  0
 17 18  1  0  0  0  0
 17 19  1  0  0  0  0
 17 20  1  0  0  0  0
 20 21  1  0  0  0  0
 20 22  1  0  0  0  0
 20 23  1  0  0  0  0
M  END
> <VM2 Rank>
81

> <Conf_Id>
176

> <Probability>
0.00

> <Sum Probability>
100.00

> <Delta G>
5.388

> <G>
43.304

> <E>
14.888

> <-TS>
28.416

> <U+W>
-3.891

> <U>
51.834

> <W>
-55.725

> <W(PB)>
-57.738

> <W(SA)>
2.013

> <Valence>
5.094

> <Coulomb>
46.450

> <VdW>
0.290

> <VdW6>
-8.010

> <VdW12>
8.300

> <Bond>
0.281

> <Angle>
2.109

> <Pdih>
2.704

> <Idih>
0.000

> <Tether>
0.000

$$$$
VeraChem MOL file


 23 22  0  0  0  0  0  0  0  0999 V2000     
   20.9848   18.3678   24.3647 N   0  3  0  0  0  0  0  0  0  0  0  0
   21.9270   18.6186   24.6829 H   0  0  0  0  0  0  0  0  0  0  0  0
   21.0718   18.0045   23.4109 H   0  0  0  0  0  0  0  0  0  0  0  0
   20.6633   17.5965   24.9586 H   0  0  0  0  0  0  0  0  0  0  0  0
   20.0384   19.5505   24.4198 C   0  0  0  0  0  0  0  0  0  0  0  0
   20.4463   20.3473   23.7942 H   0  0  0  0  0  0  0  0  0  0  0  0
   20.0185   19.9125   25.4513 H   0  0  0  0  0  0  0  0  0  0  0  0
   18.6027   19.2173   23.9708 C   0  0  0  0  0  0  0  0  0  0  0  0
   18.1718   18.5024   24.6843 H   0  0  0  0  0  0  0  0  0  0  0  0
   17.9913   20.1259   24.0495 H   0  0  0  0  0  0  0  0  0  0  0  0
   18.4698   18.6338   22.5382 C   0  0  0  0  0  0  0  0  0  0  0  0
   17.4091   18.3888   22.3893 H   0  0  0  0  0  0  0  0  0  0  0  0
   18.9946   17.6743   22.4622 H   0  0  0  0  0  0  0  0  0  0  0  0
   18.8906   19.5954   21.3925 C   0  0  0  0  0  0  0  0  0  0  0  0
   18.3377   19.3130   20.4859 H   0  0  0  0  0  0  0  0  0  0  0  0
   18.5568   20.6141   21.6330 H   0  0  0  0  0  0  0  0  0  0  0  0
   20.4006   19.6192   21.0377 C   0  0  0  0  0  0  0  0  0  0  0  0
   21.0035   19.9346   21.8959 H   0  0  0  0  0  0  0  0  0  0  0  0
   20.5592   20.3889   20.2694 H   0  0  0  0  0  0  0  0  0  0  0  0
   20.9292   18.2731   20.4903 C   0  0  0  0  0  0  0  0  0  0  0  0
   20.8961   17.4795   21.2454 H   0  0  0  0  0  0  0  0  0  0  0  0
   21.9729   18.3751   20.1656 H   0  0  0  0  0  0  0  0  0  0  0  0
   20.3416   17.9438   19.6235 H   0  0  0  0  0  0  0  0  0  0  0  0
  1  2  1  0  0  0  0
  1  3  1  0  0  0  0
  1  4  1  0  0  0  0
  1  5  1  0  0  0  0
  5  6  1  0  0  0  0
  5  7  1  0  0  0  0
  5  8  1  0  0  0  0
  8  9  1  0  0  0  0
  8 10  1  0  0  0  0
  8 11  1  0  0  0  0
 11 12  1  0  0  0  0
 11 13  1  0  0  0  0
 11 14  1  0  0  0  0
 14 15  1  0  0  0  0
 14 16  1  0  0  0  0
 14 17  1  0  0  0  0
 17 18  1  0  0  0  0
 17 19  1  0  0  0  0
 17 20  1  0  0  0  0
 20 21  1  0  0  0  0
 20 22  1  0  0  0  0
 20 23  1  0  0  0  0
M  END
> <VM2 Rank>
82

> <Conf_Id>
683

> <Probability>
0.00

> <Sum Probability>
100.00

> <Delta G>
5.429

> <G>
43.345

> <E>
14.929

> <-TS>
28.416

> <U+W>
-3.850

> <U>
51.834

> <W>
-55.683

> <W(PB)>
-57.700

> <W(SA)>
2.017

> <Valence>
5.094

> <Coulomb>
46.449

> <VdW>
0.291

> <VdW6>
-8.009

> <VdW12>
8.300

> <Bond>
0.281

> <Angle>
2.108

> <Pdih>
2.705

> <Idih>
0.000

> <Tether>
0.000

$$$$
VeraChem MOL file


 23 22  0  0  0  0  0  0  0  0999 V2000     
   20.8536   18.5096   25.2447 N   0  3  0  0  0  0  0  0  0  0  0  0
   21.7183   18.9444   25.5841 H   0  0  0  0  0  0  0  0  0  0  0  0
   21.0978   17.5652   24.9301 H   0  0  0  0  0  0  0  0  0  0  0  0
   20.2347   18.4066   26.0553 H   0  0  0  0  0  0  0  0  0  0  0  0
   20.2087   19.3249   24.1424 C   0  0  0  0  0  0  0  0  0  0  0  0
   20.9334   19.4246   23.3319 H   0  0  0  0  0  0  0  0  0  0  0  0
   20.0016   20.3225   24.5389 H   0  0  0  0  0  0  0  0  0  0  0  0
   18.9035   18.6990   23.6136 C   0  0  0  0  0  0  0  0  0  0  0  0
   19.0810   17.6745   23.2611 H   0  0  0  0  0  0  0  0  0  0  0  0
   18.2009   18.6187   24.4537 H   0  0  0  0  0  0  0  0  0  0  0  0
   18.2393   19.5396   22.4951 C   0  0  0  0  0  0  0  0  0  0  0  0
   18.3429   20.6102   22.7199 H   0  0  0  0  0  0  0  0  0  0  0  0
   17.1594   19.3375   22.5176 H   0  0  0  0  0  0  0  0  0  0  0  0
   18.7346   19.2497   21.0522 C   0  0  0  0  0  0  0  0  0  0  0  0
   18.5240   18.2048   20.7856 H   0  0  0  0  0  0  0  0  0  0  0  0
   18.1212   19.8539   20.3695 H   0  0  0  0  0  0  0  0  0  0  0  0
   20.2225   19.5818   20.7737 C   0  0  0  0  0  0  0  0  0  0  0  0
   20.5641   20.3943   21.4290 H   0  0  0  0  0  0  0  0  0  0  0  0
   20.3082   19.9705   19.7492 H   0  0  0  0  0  0  0  0  0  0  0  0
   21.1537   18.3525   20.8924 C   0  0  0  0  0  0  0  0  0  0  0  0
   22.1971   18.6404   20.7099 H   0  0  0  0  0  0  0  0  0  0  0  0
   20.8854   17.5878   20.1519 H   0  0  0  0  0  0  0  0  0  0  0  0
   21.1027   17.8888   21.8834 H   0  0  0  0  0  0  0  0  0  0  0  0
  1  2  1  0  0  0  0
  1  3  1  0  0  0  0
  1  4  1  0  0  0  0
  1  5  1  0  0  0  0
  5  6  1  0  0  0  0
  5  7  1  0  0  0  0
  5  8  1  0  0  0  0
  8  9  1  0  0  0  0
  8 10  1  0  0  0  0
  8 11  1  0  0  0  0
 11 12  1  0  0  0  0
 11 13  1  0  0  0  0
 11 14  1  0  0  0  0
 14 15  1  0  0  0  0
 14 16  1  0  0  0  0
 14 17  1  0  0  0  0
 17 18  1  0  0  0  0
 17 19  1  0  0  0  0
 17 20  1  0  0  0  0
 20 21  1  0  0  0  0
 20 22  1  0  0  0  0
 20 23  1  0  0  0  0
M  END
> <VM2 Rank>
83

> <Conf_Id>
864

> <Probability>
0.00

> <Sum Probability>
100.00

> <Delta G>
5.840

> <G>
43.756

> <E>
15.363

> <-TS>
28.393

> <U+W>
-3.416

> <U>
52.784

> <W>
-56.200

> <W(PB)>
-58.238

> <W(SA)>
2.038

> <Valence>
6.630

> <Coulomb>
45.868

> <VdW>
0.285

> <VdW6>
-7.559

> <VdW12>
7.844

> <Bond>
0.231

> <Angle>
1.767

> <Pdih>
4.633

> <Idih>
0.000

> <Tether>
0.000

$$$$
VeraChem MOL file


 23 22  0  0  0  0  0  0  0  0999 V2000     
   19.1595   17.8049   25.1674 N   0  3  0  0  0  0  0  0  0  0  0  0
   18.2183   17.4886   25.4245 H   0  0  0  0  0  0  0  0  0  0  0  0
   19.6041   18.1441   26.0265 H   0  0  0  0  0  0  0  0  0  0  0  0
   19.6809   16.9759   24.8654 H   0  0  0  0  0  0  0  0  0  0  0  0
   19.1206   18.8723   24.0928 C   0  0  0  0  0  0  0  0  0  0  0  0
   18.5290   19.7100   24.4719 H   0  0  0  0  0  0  0  0  0  0  0  0
   18.6040   18.4559   23.2258 H   0  0  0  0  0  0  0  0  0  0  0  0
   20.5209   19.3717   23.6872 C   0  0  0  0  0  0  0  0  0  0  0  0
   21.0059   19.7854   24.5815 H   0  0  0  0  0  0  0  0  0  0  0  0
   21.1489   18.5347   23.3552 H   0  0  0  0  0  0  0  0  0  0  0  0
   20.4789   20.4711   22.5972 C   0  0  0  0  0  0  0  0  0  0  0  0
   21.3782   21.0923   22.7098 H   0  0  0  0  0  0  0  0  0  0  0  0
   19.6307   21.1459   22.7786 H   0  0  0  0  0  0  0  0  0  0  0  0
   20.4483   19.9625   21.1303 C   0  0  0  0  0  0  0  0  0  0  0  0
   20.5040   20.8451   20.4781 H   0  0  0  0  0  0  0  0  0  0  0  0
   21.3566   19.3831   20.9146 H   0  0  0  0  0  0  0  0  0  0  0  0
   19.1902   19.1524   20.7266 C   0  0  0  0  0  0  0  0  0  0  0  0
   18.9344   19.3989   19.6866 H   0  0  0  0  0  0  0  0  0  0  0  0
   18.3244   19.4627   21.3270 H   0  0  0  0  0  0  0  0  0  0  0  0
   19.3977   17.6221   20.8125 C   0  0  0  0  0  0  0  0  0  0  0  0
   20.1848   17.2964   20.1201 H   0  0  0  0  0  0  0  0  0  0  0  0
   18.4756   17.0924   20.5404 H   0  0  0  0  0  0  0  0  0  0  0  0
   19.6849   17.2991   21.8189 H   0  0  0  0  0  0  0  0  0  0  0  0
  1  2  1  0  0  0  0
  1  3  1  0  0  0  0
  1  4  1  0  0  0  0
  1  5  1  0  0  0  0
  5  6  1  0  0  0  0
  5  7  1  0  0  0  0
  5  8  1  0  0  0  0
  8  9  1  0  0  0  0
  8 10  1  0  0  0  0
  8 11  1  0  0  0  0
 11 12  1  0  0  0  0
 11 13  1  0  0  0  0
 11 14  1  0  0  0  0
 14 15  1  0  0  0  0
 14 16  1  0  0  0  0
 14 17  1  0  0  0  0
 17 18  1  0  0  0  0
 17 19  1  0  0  0  0
 17 20  1  0  0  0  0
 20 21  1  0  0  0  0
 20 22  1  0  0  0  0
 20 23  1  0  0  0  0
M  END
> <VM2 Rank>
84

> <Conf_Id>
1115

> <Probability>
0.00

> <Sum Probability>
100.00

> <Delta G>
5.873

> <G>
43.789

> <E>
15.396

> <-TS>
28.393

> <U+W>
-3.383

> <U>
52.784

> <W>
-56.167

> <W(PB)>
-58.215

> <W(SA)>
2.048

> <Valence>
6.630

> <Coulomb>
45.869

> <VdW>
0.285

> <VdW6>
-7.559

> <VdW12>
7.844

> <Bond>
0.231

> <Angle>
1.767

> <Pdih>
4.632

> <Idih>
0.000

> <Tether>
0.000

$$$$
VeraChem MOL file


 23 22  0  0  0  0  0  0  0  0999 V2000     
   20.4657   19.6209   25.1049 N   0  3  0  0  0  0  0  0  0  0  0  0
   21.4107   19.8286   25.4449 H   0  0  0  0  0  0  0  0  0  0  0  0
   19.9041   19.3642   25.9230 H   0  0  0  0  0  0  0  0  0  0  0  0
   20.0806   20.4954   24.7361 H   0  0  0  0  0  0  0  0  0  0  0  0
   20.4721   18.5226   24.0594 C   0  0  0  0  0  0  0  0  0  0  0  0
   20.9279   17.6388   24.5141 H   0  0  0  0  0  0  0  0  0  0  0  0
   21.1108   18.8460   23.2353 H   0  0  0  0  0  0  0  0  0  0  0  0
   19.0683   18.1561   23.5336 C   0  0  0  0  0  0  0  0  0  0  0  0
   19.1334   17.2600   22.9027 H   0  0  0  0  0  0  0  0  0  0  0  0
   18.4464   17.8723   24.3930 H   0  0  0  0  0  0  0  0  0  0  0  0
   18.3576   19.2929   22.7526 C   0  0  0  0  0  0  0  0  0  0  0  0
   18.5254   20.2606   23.2427 H   0  0  0  0  0  0  0  0  0  0  0  0
   17.2749   19.1176   22.8200 H   0  0  0  0  0  0  0  0  0  0  0  0
   18.7131   19.3965   21.2447 C   0  0  0  0  0  0  0  0  0  0  0  0
   18.4271   18.4705   20.7271 H   0  0  0  0  0  0  0  0  0  0  0  0
   18.0757   20.1803   20.8123 H   0  0  0  0  0  0  0  0  0  0  0  0
   20.1870   19.7530   20.9260 C   0  0  0  0  0  0  0  0  0  0  0  0
   20.6305   20.3283   21.7497 H   0  0  0  0  0  0  0  0  0  0  0  0
   20.2054   20.4210   20.0535 H   0  0  0  0  0  0  0  0  0  0  0  0
   21.0522   18.5150   20.5929 C   0  0  0  0  0  0  0  0  0  0  0  0
   22.0927   18.8106   20.4058 H   0  0  0  0  0  0  0  0  0  0  0  0
   20.6817   18.0129   19.6897 H   0  0  0  0  0  0  0  0  0  0  0  0
   21.0527   17.7802   21.4054 H   0  0  0  0  0  0  0  0  0  0  0  0
  1  2  1  0  0  0  0
  1  3  1  0  0  0  0
  1  4  1  0  0  0  0
  1  5  1  0  0  0  0
  5  6  1  0  0  0  0
  5  7  1  0  0  0  0
  5  8  1  0  0  0  0
  8  9  1  0  0  0  0
  8 10  1  0  0  0  0
  8 11  1  0  0  0  0
 11 12  1  0  0  0  0
 11 13  1  0  0  0  0
 11 14  1  0  0  0  0
 14 15  1  0  0  0  0
 14 16  1  0  0  0  0
 14 17  1  0  0  0  0
 17 18  1  0  0  0  0
 17 19  1  0  0  0  0
 17 20  1  0  0  0  0
 20 21  1  0  0  0  0
 20 22  1  0  0  0  0
 20 23  1  0  0  0  0
M  END
> <VM2 Rank>
85

> <Conf_Id>
920

> <Probability>
0.00

> <Sum Probability>
100.00

> <Delta G>
6.253

> <G>
44.169

> <E>
15.698

> <-TS>
28.471

> <U+W>
-3.081

> <U>
53.200

> <W>
-56.281

> <W(PB)>
-58.315

> <W(SA)>
2.034

> <Valence>
6.810

> <Coulomb>
45.999

> <VdW>
0.390

> <VdW6>
-8.050

> <VdW12>
8.440

> <Bond>
0.260

> <Angle>
1.891

> <Pdih>
4.660

> <Idih>
0.000

> <Tether>
0.000

$$$$
VeraChem MOL file


 23 22  0  0  0  0  0  0  0  0999 V2000     
   18.6558   18.8686   25.0223 N   0  3  0  0  0  0  0  0  0  0  0  0
   19.1683   19.0584   25.8894 H   0  0  0  0  0  0  0  0  0  0  0  0
   17.8187   18.3356   25.2810 H   0  0  0  0  0  0  0  0  0  0  0  0
   18.3361   19.7703   24.6564 H   0  0  0  0  0  0  0  0  0  0  0  0
   19.5097   18.1225   24.0156 C   0  0  0  0  0  0  0  0  0  0  0  0
   18.8963   17.9253   23.1343 H   0  0  0  0  0  0  0  0  0  0  0  0
   19.7797   17.1616   24.4619 H   0  0  0  0  0  0  0  0  0  0  0  0
   20.7957   18.8742   23.6124 C   0  0  0  0  0  0  0  0  0  0  0  0
   21.3666   19.0863   24.5261 H   0  0  0  0  0  0  0  0  0  0  0  0
   21.4331   18.2160   23.0077 H   0  0  0  0  0  0  0  0  0  0  0  0
   20.5511   20.2047   22.8525 C   0  0  0  0  0  0  0  0  0  0  0  0
   21.4302   20.8449   23.0093 H   0  0  0  0  0  0  0  0  0  0  0  0
   19.7104   20.7531   23.2966 H   0  0  0  0  0  0  0  0  0  0  0  0
   20.3450   20.0748   21.3190 C   0  0  0  0  0  0  0  0  0  0  0  0
   20.2717   21.0930   20.9124 H   0  0  0  0  0  0  0  0  0  0  0  0
   21.2413   19.6401   20.8554 H   0  0  0  0  0  0  0  0  0  0  0  0
   19.0823   19.2938   20.8757 C   0  0  0  0  0  0  0  0  0  0  0  0
   18.6643   19.7805   19.9833 H   0  0  0  0  0  0  0  0  0  0  0  0
   18.2998   19.3595   21.6435 H   0  0  0  0  0  0  0  0  0  0  0  0
   19.3764   17.8184   20.5165 C   0  0  0  0  0  0  0  0  0  0  0  0
   19.8330   17.2732   21.3498 H   0  0  0  0  0  0  0  0  0  0  0  0
   20.0620   17.7553   19.6614 H   0  0  0  0  0  0  0  0  0  0  0  0
   18.4510   17.2969   20.2400 H   0  0  0  0  0  0  0  0  0  0  0  0
  1  2  1  0  0  0  0
  1  3  1  0  0  0  0
  1  4  1  0  0  0  0
  1  5  1  0  0  0  0
  5  6  1  0  0  0  0
  5  7  1  0  0  0  0
  5  8  1  0  0  0  0
  8  9  1  0  0  0  0
  8 10  1  0  0  0  0
  8 11  1  0  0  0  0
 11 12  1  0  0  0  0
 11 13  1  0  0  0  0
 11 14  1  0  0  0  0
 14 15  1  0  0  0  0
 14 16  1  0  0  0  0
 14 17  1  0  0  0  0
 17 18  1  0  0  0  0
 17 19  1  0  0  0  0
 17 20  1  0  0  0  0
 20 21  1  0  0  0  0
 20 22  1  0  0  0  0
 20 23  1  0  0  0  0
M  END
> <VM2 Rank>
86

> <Conf_Id>
532

> <Probability>
0.00

> <Sum Probability>
100.00

> <Delta G>
6.344

> <G>
44.260

> <E>
15.790

> <-TS>
28.471

> <U+W>
-2.989

> <U>
53.200

> <W>
-56.190

> <W(PB)>
-58.232

> <W(SA)>
2.042

> <Valence>
6.810

> <Coulomb>
46.000

> <VdW>
0.390

> <VdW6>
-8.050

> <VdW12>
8.440

> <Bond>
0.260

> <Angle>
1.891

> <Pdih>
4.660

> <Idih>
0.000

> <Tether>
0.000

$$$$
VeraChem MOL file


 23 22  0  0  0  0  0  0  0  0999 V2000     
   19.2697   17.5935   24.0687 N   0  3  0  0  0  0  0  0  0  0  0  0
   18.4344   17.0316   24.2656 H   0  0  0  0  0  0  0  0  0  0  0  0
   20.0527   17.1450   24.5554 H   0  0  0  0  0  0  0  0  0  0  0  0
   19.4555   17.5257   23.0629 H   0  0  0  0  0  0  0  0  0  0  0  0
   19.0927   19.0361   24.5013 C   0  0  0  0  0  0  0  0  0  0  0  0
   18.9012   19.0254   25.5777 H   0  0  0  0  0  0  0  0  0  0  0  0
   18.2094   19.4452   24.0037 H   0  0  0  0  0  0  0  0  0  0  0  0
   20.3163   19.9309   24.2166 C   0  0  0  0  0  0  0  0  0  0  0  0
   20.2623   20.7948   24.8923 H   0  0  0  0  0  0  0  0  0  0  0  0
   21.2371   19.3974   24.4874 H   0  0  0  0  0  0  0  0  0  0  0  0
   20.4185   20.4709   22.7647 C   0  0  0  0  0  0  0  0  0  0  0  0
   21.2960   21.1308   22.7209 H   0  0  0  0  0  0  0  0  0  0  0  0
   19.5561   21.1146   22.5424 H   0  0  0  0  0  0  0  0  0  0  0  0
   20.5757   19.3899   21.6646 C   0  0  0  0  0  0  0  0  0  0  0  0
   21.2437   19.7808   20.8844 H   0  0  0  0  0  0  0  0  0  0  0  0
   21.0833   18.5055   22.0719 H   0  0  0  0  0  0  0  0  0  0  0  0
   19.2351   19.0047   20.9927 C   0  0  0  0  0  0  0  0  0  0  0  0
   18.8376   19.8753   20.4522 H   0  0  0  0  0  0  0  0  0  0  0  0
   18.4781   18.7432   21.7417 H   0  0  0  0  0  0  0  0  0  0  0  0
   19.4081   17.8311   20.0055 C   0  0  0  0  0  0  0  0  0  0  0  0
   20.1227   18.0863   19.2120 H   0  0  0  0  0  0  0  0  0  0  0  0
   18.4513   17.5821   19.5281 H   0  0  0  0  0  0  0  0  0  0  0  0
   19.7736   16.9310   20.5163 H   0  0  0  0  0  0  0  0  0  0  0  0
  1  2  1  0  0  0  0
  1  3  1  0  0  0  0
  1  4  1  0  0  0  0
  1  5  1  0  0  0  0
  5  6  1  0  0  0  0
  5  7  1  0  0  0  0
  5  8  1  0  0  0  0
  8  9  1  0  0  0  0
  8 10  1  0  0  0  0
  8 11  1  0  0  0  0
 11 12  1  0  0  0  0
 11 13  1  0  0  0  0
 11 14  1  0  0  0  0
 14 15  1  0  0  0  0
 14 16  1  0  0  0  0
 14 17  1  0  0  0  0
 17 18  1  0  0  0  0
 17 19  1  0  0  0  0
 17 20  1  0  0  0  0
 20 21  1  0  0  0  0
 20 22  1  0  0  0  0
 20 23  1  0  0  0  0
M  END
> <VM2 Rank>
87

> <Conf_Id>
180

> <Probability>
0.00

> <Sum Probability>
100.00

> <Delta G>
6.772

> <G>
44.688

> <E>
16.390

> <-TS>
28.298

> <U+W>
-2.389

> <U>
52.836

> <W>
-55.224

> <W(PB)>
-57.261

> <W(SA)>
2.037

> <Valence>
5.785

> <Coulomb>
46.744

> <VdW>
0.307

> <VdW6>
-7.671

> <VdW12>
7.978

> <Bond>
0.217

> <Angle>
1.470

> <Pdih>
4.098

> <Idih>
0.000

> <Tether>
0.000

$$$$
VeraChem MOL file


 23 22  0  0  0  0  0  0  0  0999 V2000     
   21.0113   18.3179   24.1479 N   0  3  0  0  0  0  0  0  0  0  0  0
   21.9801   18.5067   24.4272 H   0  0  0  0  0  0  0  0  0  0  0  0
   21.0069   18.1713   23.1335 H   0  0  0  0  0  0  0  0  0  0  0  0
   20.7414   17.4315   24.5865 H   0  0  0  0  0  0  0  0  0  0  0  0
   20.0805   19.4469   24.5464 C   0  0  0  0  0  0  0  0  0  0  0  0
   20.4494   20.3771   24.1061 H   0  0  0  0  0  0  0  0  0  0  0  0
   20.1389   19.5401   25.6342 H   0  0  0  0  0  0  0  0  0  0  0  0
   18.6102   19.2211   24.1388 C   0  0  0  0  0  0  0  0  0  0  0  0
   18.3205   18.1841   24.3543 H   0  0  0  0  0  0  0  0  0  0  0  0
   17.9840   19.8469   24.7885 H   0  0  0  0  0  0  0  0  0  0  0  0
   18.2689   19.5767   22.6667 C   0  0  0  0  0  0  0  0  0  0  0  0
   18.4358   20.6486   22.4914 H   0  0  0  0  0  0  0  0  0  0  0  0
   17.1890   19.4225   22.5337 H   0  0  0  0  0  0  0  0  0  0  0  0
   19.0091   18.7383   21.5932 C   0  0  0  0  0  0  0  0  0  0  0  0
   19.2473   17.7418   21.9881 H   0  0  0  0  0  0  0  0  0  0  0  0
   18.3240   18.5664   20.7513 H   0  0  0  0  0  0  0  0  0  0  0  0
   20.2750   19.4373   21.0401 C   0  0  0  0  0  0  0  0  0  0  0  0
   20.9334   19.7645   21.8536 H   0  0  0  0  0  0  0  0  0  0  0  0
   19.9796   20.3504   20.5042 H   0  0  0  0  0  0  0  0  0  0  0  0
   21.0610   18.5187   20.0808 C   0  0  0  0  0  0  0  0  0  0  0  0
   21.4020   17.6084   20.5906 H   0  0  0  0  0  0  0  0  0  0  0  0
   21.9459   19.0357   19.6874 H   0  0  0  0  0  0  0  0  0  0  0  0
   20.4403   18.2184   19.2265 H   0  0  0  0  0  0  0  0  0  0  0  0
  1  2  1  0  0  0  0
  1  3  1  0  0  0  0
  1  4  1  0  0  0  0
  1  5  1  0  0  0  0
  5  6  1  0  0  0  0
  5  7  1  0  0  0  0
  5  8  1  0  0  0  0
  8  9  1  0  0  0  0
  8 10  1  0  0  0  0
  8 11  1  0  0  0  0
 11 12  1  0  0  0  0
 11 13  1  0  0  0  0
 11 14  1  0  0  0  0
 14 15  1  0  0  0  0
 14 16  1  0  0  0  0
 14 17  1  0  0  0  0
 17 18  1  0  0  0  0
 17 19  1  0  0  0  0
 17 20  1  0  0  0  0
 20 21  1  0  0  0  0
 20 22  1  0  0  0  0
 20 23  1  0  0  0  0
M  END
> <VM2 Rank>
88

> <Conf_Id>
588

> <Probability>
0.00

> <Sum Probability>
100.00

> <Delta G>
6.865

> <G>
44.781

> <E>
16.484

> <-TS>
28.298

> <U+W>
-2.295

> <U>
52.836

> <W>
-55.131

> <W(PB)>
-57.202

> <W(SA)>
2.071

> <Valence>
5.785

> <Coulomb>
46.744

> <VdW>
0.307

> <VdW6>
-7.671

> <VdW12>
7.978

> <Bond>
0.217

> <Angle>
1.470

> <Pdih>
4.098

> <Idih>
0.000

> <Tether>
0.000

$$$$
VeraChem MOL file


 23 22  0  0  0  0  0  0  0  0999 V2000     
   19.0229   17.8557   24.4794 N   0  3  0  0  0  0  0  0  0  0  0  0
   19.6908   17.4741   25.1571 H   0  0  0  0  0  0  0  0  0  0  0  0
   19.2549   17.4562   23.5652 H   0  0  0  0  0  0  0  0  0  0  0  0
   18.0964   17.5028   24.7426 H   0  0  0  0  0  0  0  0  0  0  0  0
   19.0602   19.3712   24.4481 C   0  0  0  0  0  0  0  0  0  0  0  0
   18.8093   19.7173   25.4545 H   0  0  0  0  0  0  0  0  0  0  0  0
   18.2854   19.7271   23.7639 H   0  0  0  0  0  0  0  0  0  0  0  0
   20.4278   19.9559   24.0410 C   0  0  0  0  0  0  0  0  0  0  0  0
   20.4883   20.9750   24.4456 H   0  0  0  0  0  0  0  0  0  0  0  0
   21.2344   19.3927   24.5290 H   0  0  0  0  0  0  0  0  0  0  0  0
   20.6798   20.0385   22.5118 C   0  0  0  0  0  0  0  0  0  0  0  0
   21.6527   20.5277   22.3659 H   0  0  0  0  0  0  0  0  0  0  0  0
   19.9439   20.7111   22.0532 H   0  0  0  0  0  0  0  0  0  0  0  0
   20.7143   18.6754   21.7699 C   0  0  0  0  0  0  0  0  0  0  0  0
   21.4793   18.7211   20.9823 H   0  0  0  0  0  0  0  0  0  0  0  0
   21.0564   17.8892   22.4559 H   0  0  0  0  0  0  0  0  0  0  0  0
   19.3698   18.2665   21.1138 C   0  0  0  0  0  0  0  0  0  0  0  0
   18.5421   18.3571   21.8275 H   0  0  0  0  0  0  0  0  0  0  0  0
   19.4223   17.2057   20.8310 H   0  0  0  0  0  0  0  0  0  0  0  0
   19.0412   19.0938   19.8499 C   0  0  0  0  0  0  0  0  0  0  0  0
   18.1124   18.7358   19.3871 H   0  0  0  0  0  0  0  0  0  0  0  0
   19.8410   19.0081   19.1029 H   0  0  0  0  0  0  0  0  0  0  0  0
   18.9056   20.1568   20.0837 H   0  0  0  0  0  0  0  0  0  0  0  0
  1  2  1  0  0  0  0
  1  3  1  0  0  0  0
  1  4  1  0  0  0  0
  1  5  1  0  0  0  0
  5  6  1  0  0  0  0
  5  7  1  0  0  0  0
  5  8  1  0  0  0  0
  8  9  1  0  0  0  0
  8 10  1  0  0  0  0
  8 11  1  0  0  0  0
 11 12  1  0  0  0  0
 11 13  1  0  0  0  0
 11 14  1  0  0  0  0
 14 15  1  0  0  0  0
 14 16  1  0  0  0  0
 14 17  1  0  0  0  0
 17 18  1  0  0  0  0
 17 19  1  0  0  0  0
 17 20  1  0  0  0  0
 20 21  1  0  0  0  0
 20 22  1  0  0  0  0
 20 23  1  0  0  0  0
M  END
> <VM2 Rank>
89

> <Conf_Id>
487

> <Probability>
0.00

> <Sum Probability>
100.00

> <Delta G>
6.934

> <G>
44.850

> <E>
16.564

> <-TS>
28.286

> <U+W>
-2.215

> <U>
53.835

> <W>
-56.051

> <W(PB)>
-58.080

> <W(SA)>
2.029

> <Valence>
6.519

> <Coulomb>
46.847

> <VdW>
0.469

> <VdW6>
-7.907

> <VdW12>
8.376

> <Bond>
0.262

> <Angle>
1.644

> <Pdih>
4.614

> <Idih>
0.000

> <Tether>
0.000

$$$$
VeraChem MOL file


 23 22  0  0  0  0  0  0  0  0999 V2000     
   20.9671   18.6649   24.5680 N   0  3  0  0  0  0  0  0  0  0  0  0
   21.1581   18.2483   23.6520 H   0  0  0  0  0  0  0  0  0  0  0  0
   20.7162   17.9009   25.2039 H   0  0  0  0  0  0  0  0  0  0  0  0
   21.8468   19.0638   24.9134 H   0  0  0  0  0  0  0  0  0  0  0  0
   19.8700   19.7083   24.4850 C   0  0  0  0  0  0  0  0  0  0  0  0
   20.2146   20.5301   23.8518 H   0  0  0  0  0  0  0  0  0  0  0  0
   19.7228   20.0975   25.4961 H   0  0  0  0  0  0  0  0  0  0  0  0
   18.5279   19.1651   23.9545 C   0  0  0  0  0  0  0  0  0  0  0  0
   18.3230   18.1809   24.3963 H   0  0  0  0  0  0  0  0  0  0  0  0
   17.7322   19.8277   24.3200 H   0  0  0  0  0  0  0  0  0  0  0  0
   18.4111   19.0943   22.4084 C   0  0  0  0  0  0  0  0  0  0  0  0
   18.4867   20.1046   21.9868 H   0  0  0  0  0  0  0  0  0  0  0  0
   17.3932   18.7549   22.1718 H   0  0  0  0  0  0  0  0  0  0  0  0
   19.4098   18.1324   21.7104 C   0  0  0  0  0  0  0  0  0  0  0  0
   19.6733   17.3135   22.3927 H   0  0  0  0  0  0  0  0  0  0  0  0
   18.9017   17.6483   20.8647 H   0  0  0  0  0  0  0  0  0  0  0  0
   20.6937   18.8174   21.1741 C   0  0  0  0  0  0  0  0  0  0  0  0
   21.4301   18.0413   20.9224 H   0  0  0  0  0  0  0  0  0  0  0  0
   21.1551   19.4444   21.9466 H   0  0  0  0  0  0  0  0  0  0  0  0
   20.4365   19.6746   19.9136 C   0  0  0  0  0  0  0  0  0  0  0  0
   21.3777   20.0948   19.5360 H   0  0  0  0  0  0  0  0  0  0  0  0
   19.7608   20.5128   20.1229 H   0  0  0  0  0  0  0  0  0  0  0  0
   19.9938   19.0719   19.1099 H   0  0  0  0  0  0  0  0  0  0  0  0
  1  2  1  0  0  0  0
  1  3  1  0  0  0  0
  1  4  1  0  0  0  0
  1  5  1  0  0  0  0
  5  6  1  0  0  0  0
  5  7  1  0  0  0  0
  5  8  1  0  0  0  0
  8  9  1  0  0  0  0
  8 10  1  0  0  0  0
  8 11  1  0  0  0  0
 11 12  1  0  0  0  0
 11 13  1  0  0  0  0
 11 14  1  0  0  0  0
 14 15  1  0  0  0  0
 14 16  1  0  0  0  0
 14 17  1  0  0  0  0
 17 18  1  0  0  0  0
 17 19  1  0  0  0  0
 17 20  1  0  0  0  0
 20 21  1  0  0  0  0
 20 22  1  0  0  0  0
 20 23  1  0  0  0  0
M  END
> <VM2 Rank>
90

> <Conf_Id>
537

> <Probability>
0.00

> <Sum Probability>
100.00

> <Delta G>
7.089

> <G>
45.005

> <E>
16.718

> <-TS>
28.286

> <U+W>
-2.061

> <U>
53.835

> <W>
-55.896

> <W(PB)>
-57.909

> <W(SA)>
2.013

> <Valence>
6.520

> <Coulomb>
46.847

> <VdW>
0.468

> <VdW6>
-7.907

> <VdW12>
8.375

> <Bond>
0.262

> <Angle>
1.644

> <Pdih>
4.614

> <Idih>
0.000

> <Tether>
0.000

$$$$
