@<TRIPOS>MOLECULE
guest-s10_vm2.mol2 : vm2 ligand conformer 1
          20          19           1
SMALL
USER_CHARGES
 
@<TRIPOS>ATOM
       1    N1      20.391203   20.173136   24.127944 N.4        1 MOL1        -0.5937
       2    H1      20.006962   20.937992   23.567642 H          1 MOL1         0.3684
       3    H2      21.389534   20.106959   23.914636 H          1 MOL1         0.3684
       4    H3      20.306587   20.444601   25.111205 H          1 MOL1         0.3684
       5    C1      19.681082   18.875236   23.851804 C.3        1 MOL1         0.1270
       6    H4      18.627124   19.033878   24.100588 H          1 MOL1         0.0960
       7    C2      20.226141   17.758229   24.756889 C.3        1 MOL1        -0.2382
       8    H5      20.131921   18.034286   25.814329 H          1 MOL1         0.1009
       9    H6      21.284814   17.559066   24.548705 H          1 MOL1         0.1009
      10    H7      19.667286   16.826266   24.606012 H          1 MOL1         0.1009
      11    C3      19.768773   18.454700   22.368024 C.3        1 MOL1        -0.1392
      12    H8      20.820323   18.311644   22.085725 H          1 MOL1         0.0998
      13    H9      19.276986   17.480312   22.246440 H          1 MOL1         0.0998
      14    C4      19.103647   19.471995   21.409778 C.3        1 MOL1        -0.1302
      15    H10     19.614889   20.442183   21.471371 H          1 MOL1         0.0998
      16    H11     18.061348   19.641418   21.714984 H          1 MOL1         0.0998
      17    C5      19.134153   18.980704   19.946561 C.3        1 MOL1        -0.2317
      18    H12     18.595782   18.030241   19.836975 H          1 MOL1         0.1009
      19    H13     20.165593   18.830947   19.601652 H          1 MOL1         0.1009
      20    H14     18.660108   19.714093   19.281350 H          1 MOL1         0.1009
@<TRIPOS>BOND
    1     1     2    1
    2     1     3    1
    3     1     4    1
    4     1     5    1
    5     5     6    1
    6     5     7    1
    7     7     8    1
    8     7     9    1
    9     7    10    1
   10     5    11    1
   11    11    12    1
   12    11    13    1
   13    11    14    1
   14    14    15    1
   15    14    16    1
   16    14    17    1
   17    17    18    1
   18    17    19    1
   19    17    20    1
@<TRIPOS>SUBSTRUCTURE
       1 MOL1            1 RESIDUE      1      MOL     
@<SCITEGIC>MOL_PROPERTY
VM2 Rank
SciTegic.value.IntegerValue
1

@<SCITEGIC>MOL_PROPERTY
Conf_Id
SciTegic.value.IntegerValue
154

@<SCITEGIC>MOL_PROPERTY
Probability
SciTegic.value.DoubleValue
40.79

@<SCITEGIC>MOL_PROPERTY
Sum Probability
SciTegic.value.DoubleValue
40.79

@<SCITEGIC>MOL_PROPERTY
Delta G
SciTegic.value.DoubleValue
0.000

@<SCITEGIC>MOL_PROPERTY
G
SciTegic.value.DoubleValue
2.706

@<SCITEGIC>MOL_PROPERTY
E
SciTegic.value.DoubleValue
-20.181

@<SCITEGIC>MOL_PROPERTY
-TS
SciTegic.value.DoubleValue
22.887

@<SCITEGIC>MOL_PROPERTY
U+W
SciTegic.value.DoubleValue
-36.277

@<SCITEGIC>MOL_PROPERTY
U
SciTegic.value.DoubleValue
22.080

@<SCITEGIC>MOL_PROPERTY
W
SciTegic.value.DoubleValue
-58.356

@<SCITEGIC>MOL_PROPERTY
W(PB)
SciTegic.value.DoubleValue
-60.289

@<SCITEGIC>MOL_PROPERTY
W(SA)
SciTegic.value.DoubleValue
1.932

@<SCITEGIC>MOL_PROPERTY
Valence
SciTegic.value.DoubleValue
1.884

@<SCITEGIC>MOL_PROPERTY
Coulomb
SciTegic.value.DoubleValue
19.559

@<SCITEGIC>MOL_PROPERTY
VdW
SciTegic.value.DoubleValue
0.637

@<SCITEGIC>MOL_PROPERTY
VdW6
SciTegic.value.DoubleValue
-4.482

@<SCITEGIC>MOL_PROPERTY
VdW12
SciTegic.value.DoubleValue
5.119

@<SCITEGIC>MOL_PROPERTY
Bond
SciTegic.value.DoubleValue
0.136

@<SCITEGIC>MOL_PROPERTY
Angle
SciTegic.value.DoubleValue
0.867

@<SCITEGIC>MOL_PROPERTY
Pdih
SciTegic.value.DoubleValue
0.882

@<SCITEGIC>MOL_PROPERTY
Idih
SciTegic.value.DoubleValue
0.000

@<SCITEGIC>MOL_PROPERTY
Tether
SciTegic.value.DoubleValue
0.000

@<TRIPOS>MOLECULE
guest-s10_vm2.mol2 : vm2 ligand conformer 2
          20          19           1
SMALL
USER_CHARGES
 
@<TRIPOS>ATOM
       1    N1      20.672935   20.059373   24.612517 N.4        1 MOL1        -0.5937
       2    H1      20.558355   21.041688   24.348341 H          1 MOL1         0.3684
       3    H2      21.653619   19.812740   24.457088 H          1 MOL1         0.3684
       4    H3      20.499034   19.995042   25.619144 H          1 MOL1         0.3684
       5    C1      19.747819   19.163418   23.835410 C.3        1 MOL1         0.1270
       6    H4      18.731036   19.497446   24.064410 H          1 MOL1         0.0960
       7    C2      19.897693   17.704816   24.305326 C.3        1 MOL1        -0.2382
       8    H5      20.883108   17.301562   24.040902 H          1 MOL1         0.1009
       9    H6      19.131455   17.060735   23.858938 H          1 MOL1         0.1009
      10    H7      19.783505   17.636039   25.394111 H          1 MOL1         0.1009
      11    C3      19.973940   19.311563   22.312776 C.3        1 MOL1        -0.1392
      12    H8      19.961422   20.380525   22.062125 H          1 MOL1         0.0998
      13    H9      20.974289   18.942729   22.049889 H          1 MOL1         0.0998
      14    C4      18.909061   18.592030   21.449368 C.3        1 MOL1        -0.1302
      15    H10     17.903921   18.914535   21.755564 H          1 MOL1         0.0998
      16    H11     18.958159   17.506760   21.609610 H          1 MOL1         0.0998
      17    C5      19.103551   18.882799   19.945602 C.3        1 MOL1        -0.2317
      18    H12     18.343275   18.362528   19.348622 H          1 MOL1         0.1009
      19    H13     20.090109   18.544831   19.602468 H          1 MOL1         0.1009
      20    H14     19.018261   19.957016   19.735788 H          1 MOL1         0.1009
@<TRIPOS>BOND
    1     1     2    1
    2     1     3    1
    3     1     4    1
    4     1     5    1
    5     5     6    1
    6     5     7    1
    7     7     8    1
    8     7     9    1
    9     7    10    1
   10     5    11    1
   11    11    12    1
   12    11    13    1
   13    11    14    1
   14    14    15    1
   15    14    16    1
   16    14    17    1
   17    17    18    1
   18    17    19    1
   19    17    20    1
@<TRIPOS>SUBSTRUCTURE
       1 MOL1            1 RESIDUE      1      MOL     
@<SCITEGIC>MOL_PROPERTY
VM2 Rank
SciTegic.value.IntegerValue
2

@<SCITEGIC>MOL_PROPERTY
Conf_Id
SciTegic.value.IntegerValue
308

@<SCITEGIC>MOL_PROPERTY
Probability
SciTegic.value.DoubleValue
18.36

@<SCITEGIC>MOL_PROPERTY
Sum Probability
SciTegic.value.DoubleValue
59.14

@<SCITEGIC>MOL_PROPERTY
Delta G
SciTegic.value.DoubleValue
0.476

@<SCITEGIC>MOL_PROPERTY
G
SciTegic.value.DoubleValue
3.182

@<SCITEGIC>MOL_PROPERTY
E
SciTegic.value.DoubleValue
-19.721

@<SCITEGIC>MOL_PROPERTY
-TS
SciTegic.value.DoubleValue
22.903

@<SCITEGIC>MOL_PROPERTY
U+W
SciTegic.value.DoubleValue
-35.817

@<SCITEGIC>MOL_PROPERTY
U
SciTegic.value.DoubleValue
22.495

@<SCITEGIC>MOL_PROPERTY
W
SciTegic.value.DoubleValue
-58.311

@<SCITEGIC>MOL_PROPERTY
W(PB)
SciTegic.value.DoubleValue
-60.259

@<SCITEGIC>MOL_PROPERTY
W(SA)
SciTegic.value.DoubleValue
1.948

@<SCITEGIC>MOL_PROPERTY
Valence
SciTegic.value.DoubleValue
2.419

@<SCITEGIC>MOL_PROPERTY
Coulomb
SciTegic.value.DoubleValue
19.304

@<SCITEGIC>MOL_PROPERTY
VdW
SciTegic.value.DoubleValue
0.772

@<SCITEGIC>MOL_PROPERTY
VdW6
SciTegic.value.DoubleValue
-4.635

@<SCITEGIC>MOL_PROPERTY
VdW12
SciTegic.value.DoubleValue
5.407

@<SCITEGIC>MOL_PROPERTY
Bond
SciTegic.value.DoubleValue
0.149

@<SCITEGIC>MOL_PROPERTY
Angle
SciTegic.value.DoubleValue
1.142

@<SCITEGIC>MOL_PROPERTY
Pdih
SciTegic.value.DoubleValue
1.129

@<SCITEGIC>MOL_PROPERTY
Idih
SciTegic.value.DoubleValue
0.000

@<SCITEGIC>MOL_PROPERTY
Tether
SciTegic.value.DoubleValue
0.000

@<TRIPOS>MOLECULE
guest-s10_vm2.mol2 : vm2 ligand conformer 3
          20          19           1
SMALL
USER_CHARGES
 
@<TRIPOS>ATOM
       1    N1      20.298429   20.232595   24.227333 N.4        1 MOL1        -0.5937
       2    H1      21.073157   20.363239   23.572984 H          1 MOL1         0.3684
       3    H2      20.686544   20.277658   25.173372 H          1 MOL1         0.3684
       4    H3      19.666917   21.030938   24.119842 H          1 MOL1         0.3684
       5    C1      19.587851   18.928629   23.985190 C.3        1 MOL1         0.1270
       6    H4      18.794663   18.871997   24.737299 H          1 MOL1         0.0960
       7    C2      20.530736   17.734066   24.215029 C.3        1 MOL1        -0.2382
       8    H5      20.891364   17.723975   25.250852 H          1 MOL1         0.1009
       9    H6      21.406373   17.775119   23.556534 H          1 MOL1         0.1009
      10    H7      20.009525   16.785540   24.035837 H          1 MOL1         0.1009
      11    C3      18.906769   18.873526   22.596614 C.3        1 MOL1        -0.1392
      12    H8      18.334640   17.939347   22.521025 H          1 MOL1         0.0998
      13    H9      18.168346   19.684034   22.539925 H          1 MOL1         0.0998
      14    C4      19.873198   18.980773   21.388782 C.3        1 MOL1        -0.1302
      15    H10     20.588560   18.147610   21.399198 H          1 MOL1         0.0998
      16    H11     20.460637   19.906419   21.454034 H          1 MOL1         0.0998
      17    C5      19.108018   18.964412   20.048052 C.3        1 MOL1        -0.2317
      18    H12     18.408102   19.807594   19.981848 H          1 MOL1         0.1009
      19    H13     18.535499   18.035019   19.931120 H          1 MOL1         0.1009
      20    H14     19.804751   19.038768   19.203009 H          1 MOL1         0.1009
@<TRIPOS>BOND
    1     1     2    1
    2     1     3    1
    3     1     4    1
    4     1     5    1
    5     5     6    1
    6     5     7    1
    7     7     8    1
    8     7     9    1
    9     7    10    1
   10     5    11    1
   11    11    12    1
   12    11    13    1
   13    11    14    1
   14    14    15    1
   15    14    16    1
   16    14    17    1
   17    17    18    1
   18    17    19    1
   19    17    20    1
@<TRIPOS>SUBSTRUCTURE
       1 MOL1            1 RESIDUE      1      MOL     
@<SCITEGIC>MOL_PROPERTY
VM2 Rank
SciTegic.value.IntegerValue
3

@<SCITEGIC>MOL_PROPERTY
Conf_Id
SciTegic.value.IntegerValue
61

@<SCITEGIC>MOL_PROPERTY
Probability
SciTegic.value.DoubleValue
15.88

@<SCITEGIC>MOL_PROPERTY
Sum Probability
SciTegic.value.DoubleValue
75.03

@<SCITEGIC>MOL_PROPERTY
Delta G
SciTegic.value.DoubleValue
0.562

@<SCITEGIC>MOL_PROPERTY
G
SciTegic.value.DoubleValue
3.268

@<SCITEGIC>MOL_PROPERTY
E
SciTegic.value.DoubleValue
-19.761

@<SCITEGIC>MOL_PROPERTY
-TS
SciTegic.value.DoubleValue
23.029

@<SCITEGIC>MOL_PROPERTY
U+W
SciTegic.value.DoubleValue
-35.858

@<SCITEGIC>MOL_PROPERTY
U
SciTegic.value.DoubleValue
22.625

@<SCITEGIC>MOL_PROPERTY
W
SciTegic.value.DoubleValue
-58.482

@<SCITEGIC>MOL_PROPERTY
W(PB)
SciTegic.value.DoubleValue
-60.401

@<SCITEGIC>MOL_PROPERTY
W(SA)
SciTegic.value.DoubleValue
1.919

@<SCITEGIC>MOL_PROPERTY
Valence
SciTegic.value.DoubleValue
2.404

@<SCITEGIC>MOL_PROPERTY
Coulomb
SciTegic.value.DoubleValue
19.464

@<SCITEGIC>MOL_PROPERTY
VdW
SciTegic.value.DoubleValue
0.757

@<SCITEGIC>MOL_PROPERTY
VdW6
SciTegic.value.DoubleValue
-5.074

@<SCITEGIC>MOL_PROPERTY
VdW12
SciTegic.value.DoubleValue
5.831

@<SCITEGIC>MOL_PROPERTY
Bond
SciTegic.value.DoubleValue
0.172

@<SCITEGIC>MOL_PROPERTY
Angle
SciTegic.value.DoubleValue
1.207

@<SCITEGIC>MOL_PROPERTY
Pdih
SciTegic.value.DoubleValue
1.025

@<SCITEGIC>MOL_PROPERTY
Idih
SciTegic.value.DoubleValue
0.000

@<SCITEGIC>MOL_PROPERTY
Tether
SciTegic.value.DoubleValue
0.000

@<TRIPOS>MOLECULE
guest-s10_vm2.mol2 : vm2 ligand conformer 4
          20          19           1
SMALL
USER_CHARGES
 
@<TRIPOS>ATOM
       1    N1      20.048549   20.219802   23.972553 N.4        1 MOL1        -0.5937
       2    H1      21.058533   20.289216   24.119305 H          1 MOL1         0.3684
       3    H2      19.592058   20.533544   24.833205 H          1 MOL1         0.3684
       4    H3      19.798146   20.882805   23.234583 H          1 MOL1         0.3684
       5    C1      19.639302   18.817920   23.610032 C.3        1 MOL1         0.1270
       6    H4      18.553633   18.832004   23.474921 H          1 MOL1         0.0960
       7    C2      19.966206   17.843846   24.753635 C.3        1 MOL1        -0.2382
       8    H5      21.046868   17.793406   24.936333 H          1 MOL1         0.1009
       9    H6      19.612187   16.832654   24.517452 H          1 MOL1         0.1009
      10    H7      19.476853   18.158431   25.683585 H          1 MOL1         0.1009
      11    C3      20.285530   18.335852   22.291328 C.3        1 MOL1        -0.1392
      12    H8      21.376331   18.299151   22.412324 H          1 MOL1         0.0998
      13    H9      19.964447   17.304735   22.092249 H          1 MOL1         0.0998
      14    C4      19.941465   19.210037   21.058721 C.3        1 MOL1        -0.1302
      15    H10     20.447860   18.791780   20.177513 H          1 MOL1         0.0998
      16    H11     20.346216   20.223173   21.186385 H          1 MOL1         0.0998
      17    C5      18.423947   19.286543   20.774731 C.3        1 MOL1        -0.2317
      18    H12     17.884039   19.785253   21.589400 H          1 MOL1         0.1009
      19    H13     17.996236   18.284088   20.643096 H          1 MOL1         0.1009
      20    H14     18.233057   19.854865   19.855145 H          1 MOL1         0.1009
@<TRIPOS>BOND
    1     1     2    1
    2     1     3    1
    3     1     4    1
    4     1     5    1
    5     5     6    1
    6     5     7    1
    7     7     8    1
    8     7     9    1
    9     7    10    1
   10     5    11    1
   11    11    12    1
   12    11    13    1
   13    11    14    1
   14    14    15    1
   15    14    16    1
   16    14    17    1
   17    17    18    1
   18    17    19    1
   19    17    20    1
@<TRIPOS>SUBSTRUCTURE
       1 MOL1            1 RESIDUE      1      MOL     
@<SCITEGIC>MOL_PROPERTY
VM2 Rank
SciTegic.value.IntegerValue
4

@<SCITEGIC>MOL_PROPERTY
Conf_Id
SciTegic.value.IntegerValue
104

@<SCITEGIC>MOL_PROPERTY
Probability
SciTegic.value.DoubleValue
13.52

@<SCITEGIC>MOL_PROPERTY
Sum Probability
SciTegic.value.DoubleValue
88.55

@<SCITEGIC>MOL_PROPERTY
Delta G
SciTegic.value.DoubleValue
0.658

@<SCITEGIC>MOL_PROPERTY
G
SciTegic.value.DoubleValue
3.364

@<SCITEGIC>MOL_PROPERTY
E
SciTegic.value.DoubleValue
-19.711

@<SCITEGIC>MOL_PROPERTY
-TS
SciTegic.value.DoubleValue
23.075

@<SCITEGIC>MOL_PROPERTY
U+W
SciTegic.value.DoubleValue
-35.807

@<SCITEGIC>MOL_PROPERTY
U
SciTegic.value.DoubleValue
22.369

@<SCITEGIC>MOL_PROPERTY
W
SciTegic.value.DoubleValue
-58.177

@<SCITEGIC>MOL_PROPERTY
W(PB)
SciTegic.value.DoubleValue
-60.100

@<SCITEGIC>MOL_PROPERTY
W(SA)
SciTegic.value.DoubleValue
1.923

@<SCITEGIC>MOL_PROPERTY
Valence
SciTegic.value.DoubleValue
2.168

@<SCITEGIC>MOL_PROPERTY
Coulomb
SciTegic.value.DoubleValue
19.636

@<SCITEGIC>MOL_PROPERTY
VdW
SciTegic.value.DoubleValue
0.566

@<SCITEGIC>MOL_PROPERTY
VdW6
SciTegic.value.DoubleValue
-5.263

@<SCITEGIC>MOL_PROPERTY
VdW12
SciTegic.value.DoubleValue
5.829

@<SCITEGIC>MOL_PROPERTY
Bond
SciTegic.value.DoubleValue
0.162

@<SCITEGIC>MOL_PROPERTY
Angle
SciTegic.value.DoubleValue
1.066

@<SCITEGIC>MOL_PROPERTY
Pdih
SciTegic.value.DoubleValue
0.939

@<SCITEGIC>MOL_PROPERTY
Idih
SciTegic.value.DoubleValue
0.000

@<SCITEGIC>MOL_PROPERTY
Tether
SciTegic.value.DoubleValue
0.000

@<TRIPOS>MOLECULE
guest-s10_vm2.mol2 : vm2 ligand conformer 5
          20          19           1
SMALL
USER_CHARGES
 
@<TRIPOS>ATOM
       1    N1      20.312897   20.092378   24.625101 N.4        1 MOL1        -0.5937
       2    H1      19.791505   20.063201   25.505404 H          1 MOL1         0.3684
       3    H2      20.318909   21.066100   24.309413 H          1 MOL1         0.3684
       4    H3      21.279774   19.832721   24.835839 H          1 MOL1         0.3684
       5    C1      19.707152   19.178433   23.595459 C.3        1 MOL1         0.1270
       6    H4      18.682247   19.528415   23.439970 H          1 MOL1         0.0960
       7    C2      19.652467   17.734613   24.126960 C.3        1 MOL1        -0.2382
       8    H5      19.089561   17.082405   23.449247 H          1 MOL1         0.1009
       9    H6      19.150574   17.700067   25.101663 H          1 MOL1         0.1009
      10    H7      20.659888   17.317530   24.247921 H          1 MOL1         0.1009
      11    C3      20.462797   19.273519   22.248468 C.3        1 MOL1        -0.1392
      12    H8      20.539042   20.330789   21.962301 H          1 MOL1         0.0998
      13    H9      21.493464   18.919944   22.384273 H          1 MOL1         0.0998
      14    C4      19.811557   18.496819   21.075552 C.3        1 MOL1        -0.1302
      15    H10     19.839850   17.416394   21.270879 H          1 MOL1         0.0998
      16    H11     20.415810   18.653892   20.171094 H          1 MOL1         0.0998
      17    C5      18.358131   18.938239   20.789460 C.3        1 MOL1        -0.2317
      18    H12     17.693615   18.708359   21.631859 H          1 MOL1         0.1009
      19    H13     17.964816   18.417669   19.906664 H          1 MOL1         0.1009
      20    H14     18.304276   20.017091   20.593670 H          1 MOL1         0.1009
@<TRIPOS>BOND
    1     1     2    1
    2     1     3    1
    3     1     4    1
    4     1     5    1
    5     5     6    1
    6     5     7    1
    7     7     8    1
    8     7     9    1
    9     7    10    1
   10     5    11    1
   11    11    12    1
   12    11    13    1
   13    11    14    1
   14    14    15    1
   15    14    16    1
   16    14    17    1
   17    17    18    1
   18    17    19    1
   19    17    20    1
@<TRIPOS>SUBSTRUCTURE
       1 MOL1            1 RESIDUE      1      MOL     
@<SCITEGIC>MOL_PROPERTY
VM2 Rank
SciTegic.value.IntegerValue
5

@<SCITEGIC>MOL_PROPERTY
Conf_Id
SciTegic.value.IntegerValue
303

@<SCITEGIC>MOL_PROPERTY
Probability
SciTegic.value.DoubleValue
10.33

@<SCITEGIC>MOL_PROPERTY
Sum Probability
SciTegic.value.DoubleValue
98.88

@<SCITEGIC>MOL_PROPERTY
Delta G
SciTegic.value.DoubleValue
0.819

@<SCITEGIC>MOL_PROPERTY
G
SciTegic.value.DoubleValue
3.525

@<SCITEGIC>MOL_PROPERTY
E
SciTegic.value.DoubleValue
-19.636

@<SCITEGIC>MOL_PROPERTY
-TS
SciTegic.value.DoubleValue
23.161

@<SCITEGIC>MOL_PROPERTY
U+W
SciTegic.value.DoubleValue
-35.732

@<SCITEGIC>MOL_PROPERTY
U
SciTegic.value.DoubleValue
22.800

@<SCITEGIC>MOL_PROPERTY
W
SciTegic.value.DoubleValue
-58.532

@<SCITEGIC>MOL_PROPERTY
W(PB)
SciTegic.value.DoubleValue
-60.437

@<SCITEGIC>MOL_PROPERTY
W(SA)
SciTegic.value.DoubleValue
1.905

@<SCITEGIC>MOL_PROPERTY
Valence
SciTegic.value.DoubleValue
2.662

@<SCITEGIC>MOL_PROPERTY
Coulomb
SciTegic.value.DoubleValue
19.485

@<SCITEGIC>MOL_PROPERTY
VdW
SciTegic.value.DoubleValue
0.653

@<SCITEGIC>MOL_PROPERTY
VdW6
SciTegic.value.DoubleValue
-5.459

@<SCITEGIC>MOL_PROPERTY
VdW12
SciTegic.value.DoubleValue
6.112

@<SCITEGIC>MOL_PROPERTY
Bond
SciTegic.value.DoubleValue
0.174

@<SCITEGIC>MOL_PROPERTY
Angle
SciTegic.value.DoubleValue
1.379

@<SCITEGIC>MOL_PROPERTY
Pdih
SciTegic.value.DoubleValue
1.109

@<SCITEGIC>MOL_PROPERTY
Idih
SciTegic.value.DoubleValue
0.000

@<SCITEGIC>MOL_PROPERTY
Tether
SciTegic.value.DoubleValue
0.000

@<TRIPOS>MOLECULE
guest-s10_vm2.mol2 : vm2 ligand conformer 6
          20          19           1
SMALL
USER_CHARGES
 
@<TRIPOS>ATOM
       1    N1      20.441681   20.173837   23.644944 N.4        1 MOL1        -0.5937
       2    H1      20.292949   20.728225   24.492398 H          1 MOL1         0.3684
       3    H2      20.163330   20.748722   22.846818 H          1 MOL1         0.3684
       4    H3      21.446998   20.003297   23.563514 H          1 MOL1         0.3684
       5    C1      19.668074   18.884208   23.685362 C.3        1 MOL1         0.1270
       6    H4      18.613914   19.144942   23.821380 H          1 MOL1         0.0960
       7    C2      20.115704   18.045238   24.894293 C.3        1 MOL1        -0.2382
       8    H5      21.166086   17.742348   24.800410 H          1 MOL1         0.1009
       9    H6      19.505521   17.138357   24.988570 H          1 MOL1         0.1009
      10    H7      20.006108   18.615260   25.825099 H          1 MOL1         0.1009
      11    C3      19.801301   18.063652   22.380304 C.3        1 MOL1        -0.1392
      12    H8      20.856083   18.004659   22.081092 H          1 MOL1         0.0998
      13    H9      19.489207   17.030445   22.583194 H          1 MOL1         0.0998
      14    C4      18.938476   18.577701   21.197980 C.3        1 MOL1        -0.1302
      15    H10     17.879033   18.589248   21.490354 H          1 MOL1         0.0998
      16    H11     19.017243   17.852130   20.376171 H          1 MOL1         0.0998
      17    C5      19.339764   19.969364   20.658117 C.3        1 MOL1        -0.2317
      18    H12     18.825274   20.170343   19.709332 H          1 MOL1         0.1009
      19    H13     20.419614   20.028514   20.469062 H          1 MOL1         0.1009
      20    H14     19.054726   20.769464   21.350955 H          1 MOL1         0.1009
@<TRIPOS>BOND
    1     1     2    1
    2     1     3    1
    3     1     4    1
    4     1     5    1
    5     5     6    1
    6     5     7    1
    7     7     8    1
    8     7     9    1
    9     7    10    1
   10     5    11    1
   11    11    12    1
   12    11    13    1
   13    11    14    1
   14    14    15    1
   15    14    16    1
   16    14    17    1
   17    17    18    1
   18    17    19    1
   19    17    20    1
@<TRIPOS>SUBSTRUCTURE
       1 MOL1            1 RESIDUE      1      MOL     
@<SCITEGIC>MOL_PROPERTY
VM2 Rank
SciTegic.value.IntegerValue
6

@<SCITEGIC>MOL_PROPERTY
Conf_Id
SciTegic.value.IntegerValue
306

@<SCITEGIC>MOL_PROPERTY
Probability
SciTegic.value.DoubleValue
0.39

@<SCITEGIC>MOL_PROPERTY
Sum Probability
SciTegic.value.DoubleValue
99.27

@<SCITEGIC>MOL_PROPERTY
Delta G
SciTegic.value.DoubleValue
2.765

@<SCITEGIC>MOL_PROPERTY
G
SciTegic.value.DoubleValue
5.471

@<SCITEGIC>MOL_PROPERTY
E
SciTegic.value.DoubleValue
-17.433

@<SCITEGIC>MOL_PROPERTY
-TS
SciTegic.value.DoubleValue
22.905

@<SCITEGIC>MOL_PROPERTY
U+W
SciTegic.value.DoubleValue
-33.530

@<SCITEGIC>MOL_PROPERTY
U
SciTegic.value.DoubleValue
24.337

@<SCITEGIC>MOL_PROPERTY
W
SciTegic.value.DoubleValue
-57.867

@<SCITEGIC>MOL_PROPERTY
W(PB)
SciTegic.value.DoubleValue
-59.768

@<SCITEGIC>MOL_PROPERTY
W(SA)
SciTegic.value.DoubleValue
1.901

@<SCITEGIC>MOL_PROPERTY
Valence
SciTegic.value.DoubleValue
3.593

@<SCITEGIC>MOL_PROPERTY
Coulomb
SciTegic.value.DoubleValue
20.067

@<SCITEGIC>MOL_PROPERTY
VdW
SciTegic.value.DoubleValue
0.677

@<SCITEGIC>MOL_PROPERTY
VdW6
SciTegic.value.DoubleValue
-5.466

@<SCITEGIC>MOL_PROPERTY
VdW12
SciTegic.value.DoubleValue
6.143

@<SCITEGIC>MOL_PROPERTY
Bond
SciTegic.value.DoubleValue
0.191

@<SCITEGIC>MOL_PROPERTY
Angle
SciTegic.value.DoubleValue
1.557

@<SCITEGIC>MOL_PROPERTY
Pdih
SciTegic.value.DoubleValue
1.845

@<SCITEGIC>MOL_PROPERTY
Idih
SciTegic.value.DoubleValue
0.000

@<SCITEGIC>MOL_PROPERTY
Tether
SciTegic.value.DoubleValue
0.000

@<TRIPOS>MOLECULE
guest-s10_vm2.mol2 : vm2 ligand conformer 7
          20          19           1
SMALL
USER_CHARGES
 
@<TRIPOS>ATOM
       1    N1      20.312735   19.950045   24.719730 N.4        1 MOL1        -0.5937
       2    H1      20.246604   20.949256   24.507123 H          1 MOL1         0.3684
       3    H2      21.300986   19.733104   24.871950 H          1 MOL1         0.3684
       4    H3      19.827453   19.797347   25.607941 H          1 MOL1         0.3684
       5    C1      19.725079   19.108389   23.619343 C.3        1 MOL1         0.1270
       6    H4      18.677492   19.412201   23.529785 H          1 MOL1         0.0960
       7    C2      19.775702   17.619640   24.010527 C.3        1 MOL1        -0.2382
       8    H5      19.228032   17.447029   24.945080 H          1 MOL1         0.1009
       9    H6      20.810026   17.284532   24.157306 H          1 MOL1         0.1009
      10    H7      19.322847   16.985211   23.240974 H          1 MOL1         0.1009
      11    C3      20.419709   19.367269   22.259675 C.3        1 MOL1        -0.1392
      12    H8      20.976099   20.312306   22.314503 H          1 MOL1         0.0998
      13    H9      21.172119   18.592749   22.059640 H          1 MOL1         0.0998
      14    C4      19.438751   19.478446   21.065048 C.3        1 MOL1        -0.1302
      15    H10     20.011527   19.738707   20.163868 H          1 MOL1         0.0998
      16    H11     18.744228   20.312909   21.236483 H          1 MOL1         0.0998
      17    C5      18.633023   18.190212   20.786677 C.3        1 MOL1        -0.2317
      18    H12     17.935231   17.969245   21.603922 H          1 MOL1         0.1009
      19    H13     19.298562   17.327546   20.652903 H          1 MOL1         0.1009
      20    H14     18.039399   18.299988   19.869834 H          1 MOL1         0.1009
@<TRIPOS>BOND
    1     1     2    1
    2     1     3    1
    3     1     4    1
    4     1     5    1
    5     5     6    1
    6     5     7    1
    7     7     8    1
    8     7     9    1
    9     7    10    1
   10     5    11    1
   11    11    12    1
   12    11    13    1
   13    11    14    1
   14    14    15    1
   15    14    16    1
   16    14    17    1
   17    17    18    1
   18    17    19    1
   19    17    20    1
@<TRIPOS>SUBSTRUCTURE
       1 MOL1            1 RESIDUE      1      MOL     
@<SCITEGIC>MOL_PROPERTY
VM2 Rank
SciTegic.value.IntegerValue
7

@<SCITEGIC>MOL_PROPERTY
Conf_Id
SciTegic.value.IntegerValue
273

@<SCITEGIC>MOL_PROPERTY
Probability
SciTegic.value.DoubleValue
0.18

@<SCITEGIC>MOL_PROPERTY
Sum Probability
SciTegic.value.DoubleValue
99.45

@<SCITEGIC>MOL_PROPERTY
Delta G
SciTegic.value.DoubleValue
3.225

@<SCITEGIC>MOL_PROPERTY
G
SciTegic.value.DoubleValue
5.931

@<SCITEGIC>MOL_PROPERTY
E
SciTegic.value.DoubleValue
-17.087

@<SCITEGIC>MOL_PROPERTY
-TS
SciTegic.value.DoubleValue
23.018

@<SCITEGIC>MOL_PROPERTY
U+W
SciTegic.value.DoubleValue
-33.184

@<SCITEGIC>MOL_PROPERTY
U
SciTegic.value.DoubleValue
25.256

@<SCITEGIC>MOL_PROPERTY
W
SciTegic.value.DoubleValue
-58.439

@<SCITEGIC>MOL_PROPERTY
W(PB)
SciTegic.value.DoubleValue
-60.337

@<SCITEGIC>MOL_PROPERTY
W(SA)
SciTegic.value.DoubleValue
1.898

@<SCITEGIC>MOL_PROPERTY
Valence
SciTegic.value.DoubleValue
4.963

@<SCITEGIC>MOL_PROPERTY
Coulomb
SciTegic.value.DoubleValue
19.511

@<SCITEGIC>MOL_PROPERTY
VdW
SciTegic.value.DoubleValue
0.782

@<SCITEGIC>MOL_PROPERTY
VdW6
SciTegic.value.DoubleValue
-5.429

@<SCITEGIC>MOL_PROPERTY
VdW12
SciTegic.value.DoubleValue
6.211

@<SCITEGIC>MOL_PROPERTY
Bond
SciTegic.value.DoubleValue
0.174

@<SCITEGIC>MOL_PROPERTY
Angle
SciTegic.value.DoubleValue
1.376

@<SCITEGIC>MOL_PROPERTY
Pdih
SciTegic.value.DoubleValue
3.413

@<SCITEGIC>MOL_PROPERTY
Idih
SciTegic.value.DoubleValue
0.000

@<SCITEGIC>MOL_PROPERTY
Tether
SciTegic.value.DoubleValue
0.000

@<TRIPOS>MOLECULE
guest-s10_vm2.mol2 : vm2 ligand conformer 8
          20          19           1
SMALL
USER_CHARGES
 
@<TRIPOS>ATOM
       1    N1      20.649485   19.840452   24.741285 N.4        1 MOL1        -0.5937
       2    H1      20.550216   19.472258   25.691123 H          1 MOL1         0.3684
       3    H2      20.466718   20.846615   24.786531 H          1 MOL1         0.3684
       4    H3      21.628052   19.718650   24.468782 H          1 MOL1         0.3684
       5    C1      19.719213   19.148932   23.782564 C.3        1 MOL1         0.1270
       6    H4      18.706150   19.328046   24.155953 H          1 MOL1         0.0960
       7    C2      19.972294   17.631691   23.796165 C.3        1 MOL1        -0.2382
       8    H5      20.937258   17.384764   23.336462 H          1 MOL1         0.1009
       9    H6      19.181697   17.096997   23.257590 H          1 MOL1         0.1009
      10    H7      19.976440   17.248737   24.824013 H          1 MOL1         0.1009
      11    C3      19.824213   19.763675   22.365381 C.3        1 MOL1        -0.1392
      12    H8      19.666274   20.845868   22.463392 H          1 MOL1         0.0998
      13    H9      20.843670   19.645221   21.974990 H          1 MOL1         0.0998
      14    C4      18.790943   19.226920   21.339762 C.3        1 MOL1        -0.1302
      15    H10     18.477400   20.057122   20.691245 H          1 MOL1         0.0998
      16    H11     17.881344   18.888027   21.855267 H          1 MOL1         0.0998
      17    C5      19.348852   18.102328   20.435844 C.3        1 MOL1        -0.2317
      18    H12     19.664574   17.226211   21.013147 H          1 MOL1         0.1009
      19    H13     20.213540   18.455725   19.859179 H          1 MOL1         0.1009
      20    H14     18.585538   17.770854   19.719980 H          1 MOL1         0.1009
@<TRIPOS>BOND
    1     1     2    1
    2     1     3    1
    3     1     4    1
    4     1     5    1
    5     5     6    1
    6     5     7    1
    7     7     8    1
    8     7     9    1
    9     7    10    1
   10     5    11    1
   11    11    12    1
   12    11    13    1
   13    11    14    1
   14    14    15    1
   15    14    16    1
   16    14    17    1
   17    17    18    1
   18    17    19    1
   19    17    20    1
@<TRIPOS>SUBSTRUCTURE
       1 MOL1            1 RESIDUE      1      MOL     
@<SCITEGIC>MOL_PROPERTY
VM2 Rank
SciTegic.value.IntegerValue
8

@<SCITEGIC>MOL_PROPERTY
Conf_Id
SciTegic.value.IntegerValue
220

@<SCITEGIC>MOL_PROPERTY
Probability
SciTegic.value.DoubleValue
0.18

@<SCITEGIC>MOL_PROPERTY
Sum Probability
SciTegic.value.DoubleValue
99.63

@<SCITEGIC>MOL_PROPERTY
Delta G
SciTegic.value.DoubleValue
3.242

@<SCITEGIC>MOL_PROPERTY
G
SciTegic.value.DoubleValue
5.948

@<SCITEGIC>MOL_PROPERTY
E
SciTegic.value.DoubleValue
-17.185

@<SCITEGIC>MOL_PROPERTY
-TS
SciTegic.value.DoubleValue
23.133

@<SCITEGIC>MOL_PROPERTY
U+W
SciTegic.value.DoubleValue
-33.282

@<SCITEGIC>MOL_PROPERTY
U
SciTegic.value.DoubleValue
25.224

@<SCITEGIC>MOL_PROPERTY
W
SciTegic.value.DoubleValue
-58.506

@<SCITEGIC>MOL_PROPERTY
W(PB)
SciTegic.value.DoubleValue
-60.411

@<SCITEGIC>MOL_PROPERTY
W(SA)
SciTegic.value.DoubleValue
1.905

@<SCITEGIC>MOL_PROPERTY
Valence
SciTegic.value.DoubleValue
4.945

@<SCITEGIC>MOL_PROPERTY
Coulomb
SciTegic.value.DoubleValue
19.467

@<SCITEGIC>MOL_PROPERTY
VdW
SciTegic.value.DoubleValue
0.813

@<SCITEGIC>MOL_PROPERTY
VdW6
SciTegic.value.DoubleValue
-5.458

@<SCITEGIC>MOL_PROPERTY
VdW12
SciTegic.value.DoubleValue
6.270

@<SCITEGIC>MOL_PROPERTY
Bond
SciTegic.value.DoubleValue
0.200

@<SCITEGIC>MOL_PROPERTY
Angle
SciTegic.value.DoubleValue
1.675

@<SCITEGIC>MOL_PROPERTY
Pdih
SciTegic.value.DoubleValue
3.070

@<SCITEGIC>MOL_PROPERTY
Idih
SciTegic.value.DoubleValue
0.000

@<SCITEGIC>MOL_PROPERTY
Tether
SciTegic.value.DoubleValue
0.000

@<TRIPOS>MOLECULE
guest-s10_vm2.mol2 : vm2 ligand conformer 9
          20          19           1
SMALL
USER_CHARGES
 
@<TRIPOS>ATOM
       1    N1      20.411948   20.113395   24.324885 N.4        1 MOL1        -0.5937
       2    H1      21.051067   20.413342   23.585405 H          1 MOL1         0.3684
       3    H2      20.974389   19.935189   25.161255 H          1 MOL1         0.3684
       4    H3      19.795035   20.902260   24.536473 H          1 MOL1         0.3684
       5    C1      19.630813   18.893513   23.916787 C.3        1 MOL1         0.1270
       6    H4      18.991521   18.648148   24.770640 H          1 MOL1         0.0960
       7    C2      20.566462   17.695853   23.684643 C.3        1 MOL1        -0.2382
       8    H5      21.087096   17.431311   24.613044 H          1 MOL1         0.1009
       9    H6      21.327795   17.921677   22.928944 H          1 MOL1         0.1009
      10    H7      20.000231   16.814814   23.358314 H          1 MOL1         0.1009
      11    C3      18.692559   19.169222   22.714869 C.3        1 MOL1        -0.1392
      12    H8      18.024447   18.310106   22.569820 H          1 MOL1         0.0998
      13    H9      18.034251   20.001393   22.997009 H          1 MOL1         0.0998
      14    C4      19.385246   19.530626   21.371441 C.3        1 MOL1        -0.1302
      15    H10     20.332358   20.057082   21.548085 H          1 MOL1         0.0998
      16    H11     18.744031   20.241821   20.831973 H          1 MOL1         0.0998
      17    C5      19.617972   18.311392   20.448373 C.3        1 MOL1        -0.2317
      18    H12     18.670196   17.809870   20.213344 H          1 MOL1         0.1009
      19    H13     20.288419   17.572324   20.900317 H          1 MOL1         0.1009
      20    H14     20.068903   18.629703   19.499530 H          1 MOL1         0.1009
@<TRIPOS>BOND
    1     1     2    1
    2     1     3    1
    3     1     4    1
    4     1     5    1
    5     5     6    1
    6     5     7    1
    7     7     8    1
    8     7     9    1
    9     7    10    1
   10     5    11    1
   11    11    12    1
   12    11    13    1
   13    11    14    1
   14    14    15    1
   15    14    16    1
   16    14    17    1
   17    17    18    1
   18    17    19    1
   19    17    20    1
@<TRIPOS>SUBSTRUCTURE
       1 MOL1            1 RESIDUE      1      MOL     
@<SCITEGIC>MOL_PROPERTY
VM2 Rank
SciTegic.value.IntegerValue
9

@<SCITEGIC>MOL_PROPERTY
Conf_Id
SciTegic.value.IntegerValue
283

@<SCITEGIC>MOL_PROPERTY
Probability
SciTegic.value.DoubleValue
0.16

@<SCITEGIC>MOL_PROPERTY
Sum Probability
SciTegic.value.DoubleValue
99.79

@<SCITEGIC>MOL_PROPERTY
Delta G
SciTegic.value.DoubleValue
3.294

@<SCITEGIC>MOL_PROPERTY
G
SciTegic.value.DoubleValue
6.000

@<SCITEGIC>MOL_PROPERTY
E
SciTegic.value.DoubleValue
-17.180

@<SCITEGIC>MOL_PROPERTY
-TS
SciTegic.value.DoubleValue
23.180

@<SCITEGIC>MOL_PROPERTY
U+W
SciTegic.value.DoubleValue
-33.276

@<SCITEGIC>MOL_PROPERTY
U
SciTegic.value.DoubleValue
25.367

@<SCITEGIC>MOL_PROPERTY
W
SciTegic.value.DoubleValue
-58.644

@<SCITEGIC>MOL_PROPERTY
W(PB)
SciTegic.value.DoubleValue
-60.517

@<SCITEGIC>MOL_PROPERTY
W(SA)
SciTegic.value.DoubleValue
1.873

@<SCITEGIC>MOL_PROPERTY
Valence
SciTegic.value.DoubleValue
4.942

@<SCITEGIC>MOL_PROPERTY
Coulomb
SciTegic.value.DoubleValue
19.661

@<SCITEGIC>MOL_PROPERTY
VdW
SciTegic.value.DoubleValue
0.764

@<SCITEGIC>MOL_PROPERTY
VdW6
SciTegic.value.DoubleValue
-5.872

@<SCITEGIC>MOL_PROPERTY
VdW12
SciTegic.value.DoubleValue
6.636

@<SCITEGIC>MOL_PROPERTY
Bond
SciTegic.value.DoubleValue
0.230

@<SCITEGIC>MOL_PROPERTY
Angle
SciTegic.value.DoubleValue
1.857

@<SCITEGIC>MOL_PROPERTY
Pdih
SciTegic.value.DoubleValue
2.855

@<SCITEGIC>MOL_PROPERTY
Idih
SciTegic.value.DoubleValue
0.000

@<SCITEGIC>MOL_PROPERTY
Tether
SciTegic.value.DoubleValue
0.000

@<TRIPOS>MOLECULE
guest-s10_vm2.mol2 : vm2 ligand conformer 10
          20          19           1
SMALL
USER_CHARGES
 
@<TRIPOS>ATOM
       1    N1      20.552683   20.223461   23.720388 N.4        1 MOL1        -0.5937
       2    H1      21.054129   20.198738   22.830480 H          1 MOL1         0.3684
       3    H2      21.249232   20.286540   24.467678 H          1 MOL1         0.3684
       4    H3      20.005732   21.088355   23.740003 H          1 MOL1         0.3684
       5    C1      19.675052   19.012981   23.884585 C.3        1 MOL1         0.1270
       6    H4      19.169955   19.150221   24.845818 H          1 MOL1         0.0960
       7    C2      20.509644   17.723892   23.985660 C.3        1 MOL1        -0.2382
       8    H5      21.121089   17.566041   23.089271 H          1 MOL1         0.1009
       9    H6      19.860350   16.849647   24.118059 H          1 MOL1         0.1009
      10    H7      21.185141   17.770139   24.848523 H          1 MOL1         0.1009
      11    C3      18.566226   18.915976   22.805508 C.3        1 MOL1        -0.1392
      12    H8      17.806297   18.213413   23.172188 H          1 MOL1         0.0998
      13    H9      18.055228   19.884903   22.732853 H          1 MOL1         0.0998
      14    C4      18.993191   18.453972   21.383942 C.3        1 MOL1        -0.1302
      15    H10     18.089889   18.395943   20.760643 H          1 MOL1         0.0998
      16    H11     19.392254   17.431177   21.419607 H          1 MOL1         0.0998
      17    C5      20.008203   19.383718   20.680917 C.3        1 MOL1        -0.2317
      18    H12     21.001530   19.317089   21.139316 H          1 MOL1         0.1009
      19    H13     19.674557   20.429272   20.706156 H          1 MOL1         0.1009
      20    H14     20.120327   19.095988   19.627442 H          1 MOL1         0.1009
@<TRIPOS>BOND
    1     1     2    1
    2     1     3    1
    3     1     4    1
    4     1     5    1
    5     5     6    1
    6     5     7    1
    7     7     8    1
    8     7     9    1
    9     7    10    1
   10     5    11    1
   11    11    12    1
   12    11    13    1
   13    11    14    1
   14    14    15    1
   15    14    16    1
   16    14    17    1
   17    17    18    1
   18    17    19    1
   19    17    20    1
@<TRIPOS>SUBSTRUCTURE
       1 MOL1            1 RESIDUE      1      MOL     
@<SCITEGIC>MOL_PROPERTY
VM2 Rank
SciTegic.value.IntegerValue
10

@<SCITEGIC>MOL_PROPERTY
Conf_Id
SciTegic.value.IntegerValue
250

@<SCITEGIC>MOL_PROPERTY
Probability
SciTegic.value.DoubleValue
0.15

@<SCITEGIC>MOL_PROPERTY
Sum Probability
SciTegic.value.DoubleValue
99.95

@<SCITEGIC>MOL_PROPERTY
Delta G
SciTegic.value.DoubleValue
3.323

@<SCITEGIC>MOL_PROPERTY
G
SciTegic.value.DoubleValue
6.029

@<SCITEGIC>MOL_PROPERTY
E
SciTegic.value.DoubleValue
-17.416

@<SCITEGIC>MOL_PROPERTY
-TS
SciTegic.value.DoubleValue
23.444

@<SCITEGIC>MOL_PROPERTY
U+W
SciTegic.value.DoubleValue
-33.512

@<SCITEGIC>MOL_PROPERTY
U
SciTegic.value.DoubleValue
24.552

@<SCITEGIC>MOL_PROPERTY
W
SciTegic.value.DoubleValue
-58.064

@<SCITEGIC>MOL_PROPERTY
W(PB)
SciTegic.value.DoubleValue
-59.933

@<SCITEGIC>MOL_PROPERTY
W(SA)
SciTegic.value.DoubleValue
1.869

@<SCITEGIC>MOL_PROPERTY
Valence
SciTegic.value.DoubleValue
3.726

@<SCITEGIC>MOL_PROPERTY
Coulomb
SciTegic.value.DoubleValue
20.219

@<SCITEGIC>MOL_PROPERTY
VdW
SciTegic.value.DoubleValue
0.606

@<SCITEGIC>MOL_PROPERTY
VdW6
SciTegic.value.DoubleValue
-6.395

@<SCITEGIC>MOL_PROPERTY
VdW12
SciTegic.value.DoubleValue
7.002

@<SCITEGIC>MOL_PROPERTY
Bond
SciTegic.value.DoubleValue
0.241

@<SCITEGIC>MOL_PROPERTY
Angle
SciTegic.value.DoubleValue
2.098

@<SCITEGIC>MOL_PROPERTY
Pdih
SciTegic.value.DoubleValue
1.387

@<SCITEGIC>MOL_PROPERTY
Idih
SciTegic.value.DoubleValue
0.000

@<SCITEGIC>MOL_PROPERTY
Tether
SciTegic.value.DoubleValue
0.000

@<TRIPOS>MOLECULE
guest-s10_vm2.mol2 : vm2 ligand conformer 11
          20          19           1
SMALL
USER_CHARGES
 
@<TRIPOS>ATOM
       1    N1      20.470261   20.180348   23.870094 N.4        1 MOL1        -0.5937
       2    H1      20.977487   20.290259   22.989008 H          1 MOL1         0.3684
       3    H2      21.156847   20.208460   24.628628 H          1 MOL1         0.3684
       4    H3      19.861512   20.995932   23.978793 H          1 MOL1         0.3684
       5    C1      19.681688   18.899054   23.885205 C.3        1 MOL1         0.1270
       6    H4      19.171731   18.876091   24.853385 H          1 MOL1         0.0960
       7    C2      20.602669   17.664980   23.852008 C.3        1 MOL1        -0.2382
       8    H5      21.213372   17.623399   22.945394 H          1 MOL1         0.1009
       9    H6      20.015868   16.740008   23.909623 H          1 MOL1         0.1009
      10    H7      21.284261   17.674748   24.711267 H          1 MOL1         0.1009
      11    C3      18.573922   18.848761   22.800491 C.3        1 MOL1        -0.1392
      12    H8      18.211209   17.817885   22.694364 H          1 MOL1         0.0998
      13    H9      17.716846   19.416579   23.185558 H          1 MOL1         0.0998
      14    C4      18.919079   19.426525   21.398704 C.3        1 MOL1        -0.1302
      15    H10     19.156584   20.496254   21.475680 H          1 MOL1         0.0998
      16    H11     18.013291   19.371122   20.778713 H          1 MOL1         0.0998
      17    C5      20.057381   18.694332   20.654499 C.3        1 MOL1        -0.2317
      18    H12     21.033475   18.897029   21.109750 H          1 MOL1         0.1009
      19    H13     20.111092   19.033204   19.611737 H          1 MOL1         0.1009
      20    H14     19.892182   17.609137   20.644683 H          1 MOL1         0.1009
@<TRIPOS>BOND
    1     1     2    1
    2     1     3    1
    3     1     4    1
    4     1     5    1
    5     5     6    1
    6     5     7    1
    7     7     8    1
    8     7     9    1
    9     7    10    1
   10     5    11    1
   11    11    12    1
   12    11    13    1
   13    11    14    1
   14    14    15    1
   15    14    16    1
   16    14    17    1
   17    17    18    1
   18    17    19    1
   19    17    20    1
@<TRIPOS>SUBSTRUCTURE
       1 MOL1            1 RESIDUE      1      MOL     
@<SCITEGIC>MOL_PROPERTY
VM2 Rank
SciTegic.value.IntegerValue
11

@<SCITEGIC>MOL_PROPERTY
Conf_Id
SciTegic.value.IntegerValue
231

@<SCITEGIC>MOL_PROPERTY
Probability
SciTegic.value.DoubleValue
0.05

@<SCITEGIC>MOL_PROPERTY
Sum Probability
SciTegic.value.DoubleValue
100.00

@<SCITEGIC>MOL_PROPERTY
Delta G
SciTegic.value.DoubleValue
3.987

@<SCITEGIC>MOL_PROPERTY
G
SciTegic.value.DoubleValue
6.693

@<SCITEGIC>MOL_PROPERTY
E
SciTegic.value.DoubleValue
-16.651

@<SCITEGIC>MOL_PROPERTY
-TS
SciTegic.value.DoubleValue
23.344

@<SCITEGIC>MOL_PROPERTY
U+W
SciTegic.value.DoubleValue
-32.747

@<SCITEGIC>MOL_PROPERTY
U
SciTegic.value.DoubleValue
25.522

@<SCITEGIC>MOL_PROPERTY
W
SciTegic.value.DoubleValue
-58.269

@<SCITEGIC>MOL_PROPERTY
W(PB)
SciTegic.value.DoubleValue
-60.153

@<SCITEGIC>MOL_PROPERTY
W(SA)
SciTegic.value.DoubleValue
1.885

@<SCITEGIC>MOL_PROPERTY
Valence
SciTegic.value.DoubleValue
4.930

@<SCITEGIC>MOL_PROPERTY
Coulomb
SciTegic.value.DoubleValue
19.829

@<SCITEGIC>MOL_PROPERTY
VdW
SciTegic.value.DoubleValue
0.763

@<SCITEGIC>MOL_PROPERTY
VdW6
SciTegic.value.DoubleValue
-6.201

@<SCITEGIC>MOL_PROPERTY
VdW12
SciTegic.value.DoubleValue
6.963

@<SCITEGIC>MOL_PROPERTY
Bond
SciTegic.value.DoubleValue
0.247

@<SCITEGIC>MOL_PROPERTY
Angle
SciTegic.value.DoubleValue
2.332

@<SCITEGIC>MOL_PROPERTY
Pdih
SciTegic.value.DoubleValue
2.352

@<SCITEGIC>MOL_PROPERTY
Idih
SciTegic.value.DoubleValue
0.000

@<SCITEGIC>MOL_PROPERTY
Tether
SciTegic.value.DoubleValue
0.000

