VeraChem MOL file


 20 19  0  0  0  0  0  0  0  0999 V2000     
   20.3912   20.1731   24.1279 N   0  3  0  0  0  0  0  0  0  0  0  0
   20.0070   20.9380   23.5676 H   0  0  0  0  0  0  0  0  0  0  0  0
   21.3895   20.1070   23.9146 H   0  0  0  0  0  0  0  0  0  0  0  0
   20.3066   20.4446   25.1112 H   0  0  0  0  0  0  0  0  0  0  0  0
   19.6811   18.8752   23.8518 C   0  0  2  0  0  0  0  0  0  0  0  0
   18.6271   19.0339   24.1006 H   0  0  0  0  0  0  0  0  0  0  0  0
   20.2261   17.7582   24.7569 C   0  0  0  0  0  0  0  0  0  0  0  0
   20.1319   18.0343   25.8143 H   0  0  0  0  0  0  0  0  0  0  0  0
   21.2848   17.5591   24.5487 H   0  0  0  0  0  0  0  0  0  0  0  0
   19.6673   16.8263   24.6060 H   0  0  0  0  0  0  0  0  0  0  0  0
   19.7688   18.4547   22.3680 C   0  0  0  0  0  0  0  0  0  0  0  0
   20.8203   18.3116   22.0857 H   0  0  0  0  0  0  0  0  0  0  0  0
   19.2770   17.4803   22.2464 H   0  0  0  0  0  0  0  0  0  0  0  0
   19.1036   19.4720   21.4098 C   0  0  0  0  0  0  0  0  0  0  0  0
   19.6149   20.4422   21.4714 H   0  0  0  0  0  0  0  0  0  0  0  0
   18.0613   19.6414   21.7150 H   0  0  0  0  0  0  0  0  0  0  0  0
   19.1342   18.9807   19.9466 C   0  0  0  0  0  0  0  0  0  0  0  0
   18.5958   18.0302   19.8370 H   0  0  0  0  0  0  0  0  0  0  0  0
   20.1656   18.8309   19.6017 H   0  0  0  0  0  0  0  0  0  0  0  0
   18.6601   19.7141   19.2814 H   0  0  0  0  0  0  0  0  0  0  0  0
  1  2  1  0  0  0  0
  1  3  1  0  0  0  0
  1  4  1  0  0  0  0
  1  5  1  0  0  0  0
  5  6  1  0  0  0  0
  5  7  1  0  0  0  0
  7  8  1  0  0  0  0
  7  9  1  0  0  0  0
  7 10  1  0  0  0  0
  5 11  1  0  0  0  0
 11 12  1  0  0  0  0
 11 13  1  0  0  0  0
 11 14  1  0  0  0  0
 14 15  1  0  0  0  0
 14 16  1  0  0  0  0
 14 17  1  0  0  0  0
 17 18  1  0  0  0  0
 17 19  1  0  0  0  0
 17 20  1  0  0  0  0
M  END
> <VM2 Rank>
1

> <Conf_Id>
154

> <Probability>
40.79

> <Sum Probability>
40.79

> <Delta G>
0.000

> <G>
2.706

> <E>
-20.181

> <-TS>
22.887

> <U+W>
-36.277

> <U>
22.080

> <W>
-58.356

> <W(PB)>
-60.289

> <W(SA)>
1.932

> <Valence>
1.884

> <Coulomb>
19.559

> <VdW>
0.637

> <VdW6>
-4.482

> <VdW12>
5.119

> <Bond>
0.136

> <Angle>
0.867

> <Pdih>
0.882

> <Idih>
0.000

> <Tether>
0.000

$$$$
VeraChem MOL file


 20 19  0  0  0  0  0  0  0  0999 V2000     
   20.6729   20.0594   24.6125 N   0  3  0  0  0  0  0  0  0  0  0  0
   20.5584   21.0417   24.3483 H   0  0  0  0  0  0  0  0  0  0  0  0
   21.6536   19.8127   24.4571 H   0  0  0  0  0  0  0  0  0  0  0  0
   20.4990   19.9950   25.6191 H   0  0  0  0  0  0  0  0  0  0  0  0
   19.7478   19.1634   23.8354 C   0  0  2  0  0  0  0  0  0  0  0  0
   18.7310   19.4974   24.0644 H   0  0  0  0  0  0  0  0  0  0  0  0
   19.8977   17.7048   24.3053 C   0  0  0  0  0  0  0  0  0  0  0  0
   20.8831   17.3016   24.0409 H   0  0  0  0  0  0  0  0  0  0  0  0
   19.1315   17.0607   23.8589 H   0  0  0  0  0  0  0  0  0  0  0  0
   19.7835   17.6360   25.3941 H   0  0  0  0  0  0  0  0  0  0  0  0
   19.9739   19.3116   22.3128 C   0  0  0  0  0  0  0  0  0  0  0  0
   19.9614   20.3805   22.0621 H   0  0  0  0  0  0  0  0  0  0  0  0
   20.9743   18.9427   22.0499 H   0  0  0  0  0  0  0  0  0  0  0  0
   18.9091   18.5920   21.4494 C   0  0  0  0  0  0  0  0  0  0  0  0
   17.9039   18.9145   21.7556 H   0  0  0  0  0  0  0  0  0  0  0  0
   18.9582   17.5068   21.6096 H   0  0  0  0  0  0  0  0  0  0  0  0
   19.1036   18.8828   19.9456 C   0  0  0  0  0  0  0  0  0  0  0  0
   18.3433   18.3625   19.3486 H   0  0  0  0  0  0  0  0  0  0  0  0
   20.0901   18.5448   19.6025 H   0  0  0  0  0  0  0  0  0  0  0  0
   19.0183   19.9570   19.7358 H   0  0  0  0  0  0  0  0  0  0  0  0
  1  2  1  0  0  0  0
  1  3  1  0  0  0  0
  1  4  1  0  0  0  0
  1  5  1  0  0  0  0
  5  6  1  0  0  0  0
  5  7  1  0  0  0  0
  7  8  1  0  0  0  0
  7  9  1  0  0  0  0
  7 10  1  0  0  0  0
  5 11  1  0  0  0  0
 11 12  1  0  0  0  0
 11 13  1  0  0  0  0
 11 14  1  0  0  0  0
 14 15  1  0  0  0  0
 14 16  1  0  0  0  0
 14 17  1  0  0  0  0
 17 18  1  0  0  0  0
 17 19  1  0  0  0  0
 17 20  1  0  0  0  0
M  END
> <VM2 Rank>
2

> <Conf_Id>
308

> <Probability>
18.36

> <Sum Probability>
59.14

> <Delta G>
0.476

> <G>
3.182

> <E>
-19.721

> <-TS>
22.903

> <U+W>
-35.817

> <U>
22.495

> <W>
-58.311

> <W(PB)>
-60.259

> <W(SA)>
1.948

> <Valence>
2.419

> <Coulomb>
19.304

> <VdW>
0.772

> <VdW6>
-4.635

> <VdW12>
5.407

> <Bond>
0.149

> <Angle>
1.142

> <Pdih>
1.129

> <Idih>
0.000

> <Tether>
0.000

$$$$
VeraChem MOL file


 20 19  0  0  0  0  0  0  0  0999 V2000     
   20.2984   20.2326   24.2273 N   0  3  0  0  0  0  0  0  0  0  0  0
   21.0732   20.3632   23.5730 H   0  0  0  0  0  0  0  0  0  0  0  0
   20.6865   20.2777   25.1734 H   0  0  0  0  0  0  0  0  0  0  0  0
   19.6669   21.0309   24.1198 H   0  0  0  0  0  0  0  0  0  0  0  0
   19.5879   18.9286   23.9852 C   0  0  2  0  0  0  0  0  0  0  0  0
   18.7947   18.8720   24.7373 H   0  0  0  0  0  0  0  0  0  0  0  0
   20.5307   17.7341   24.2150 C   0  0  0  0  0  0  0  0  0  0  0  0
   20.8914   17.7240   25.2509 H   0  0  0  0  0  0  0  0  0  0  0  0
   21.4064   17.7751   23.5565 H   0  0  0  0  0  0  0  0  0  0  0  0
   20.0095   16.7855   24.0358 H   0  0  0  0  0  0  0  0  0  0  0  0
   18.9068   18.8735   22.5966 C   0  0  0  0  0  0  0  0  0  0  0  0
   18.3346   17.9393   22.5210 H   0  0  0  0  0  0  0  0  0  0  0  0
   18.1683   19.6840   22.5399 H   0  0  0  0  0  0  0  0  0  0  0  0
   19.8732   18.9808   21.3888 C   0  0  0  0  0  0  0  0  0  0  0  0
   20.5886   18.1476   21.3992 H   0  0  0  0  0  0  0  0  0  0  0  0
   20.4606   19.9064   21.4540 H   0  0  0  0  0  0  0  0  0  0  0  0
   19.1080   18.9644   20.0481 C   0  0  0  0  0  0  0  0  0  0  0  0
   18.4081   19.8076   19.9818 H   0  0  0  0  0  0  0  0  0  0  0  0
   18.5355   18.0350   19.9311 H   0  0  0  0  0  0  0  0  0  0  0  0
   19.8048   19.0388   19.2030 H   0  0  0  0  0  0  0  0  0  0  0  0
  1  2  1  0  0  0  0
  1  3  1  0  0  0  0
  1  4  1  0  0  0  0
  1  5  1  0  0  0  0
  5  6  1  0  0  0  0
  5  7  1  0  0  0  0
  7  8  1  0  0  0  0
  7  9  1  0  0  0  0
  7 10  1  0  0  0  0
  5 11  1  0  0  0  0
 11 12  1  0  0  0  0
 11 13  1  0  0  0  0
 11 14  1  0  0  0  0
 14 15  1  0  0  0  0
 14 16  1  0  0  0  0
 14 17  1  0  0  0  0
 17 18  1  0  0  0  0
 17 19  1  0  0  0  0
 17 20  1  0  0  0  0
M  END
> <VM2 Rank>
3

> <Conf_Id>
61

> <Probability>
15.88

> <Sum Probability>
75.03

> <Delta G>
0.562

> <G>
3.268

> <E>
-19.761

> <-TS>
23.029

> <U+W>
-35.858

> <U>
22.625

> <W>
-58.482

> <W(PB)>
-60.401

> <W(SA)>
1.919

> <Valence>
2.404

> <Coulomb>
19.464

> <VdW>
0.757

> <VdW6>
-5.074

> <VdW12>
5.831

> <Bond>
0.172

> <Angle>
1.207

> <Pdih>
1.025

> <Idih>
0.000

> <Tether>
0.000

$$$$
VeraChem MOL file


 20 19  0  0  0  0  0  0  0  0999 V2000     
   20.0485   20.2198   23.9726 N   0  3  0  0  0  0  0  0  0  0  0  0
   21.0585   20.2892   24.1193 H   0  0  0  0  0  0  0  0  0  0  0  0
   19.5921   20.5335   24.8332 H   0  0  0  0  0  0  0  0  0  0  0  0
   19.7981   20.8828   23.2346 H   0  0  0  0  0  0  0  0  0  0  0  0
   19.6393   18.8179   23.6100 C   0  0  2  0  0  0  0  0  0  0  0  0
   18.5536   18.8320   23.4749 H   0  0  0  0  0  0  0  0  0  0  0  0
   19.9662   17.8438   24.7536 C   0  0  0  0  0  0  0  0  0  0  0  0
   21.0469   17.7934   24.9363 H   0  0  0  0  0  0  0  0  0  0  0  0
   19.6122   16.8327   24.5175 H   0  0  0  0  0  0  0  0  0  0  0  0
   19.4769   18.1584   25.6836 H   0  0  0  0  0  0  0  0  0  0  0  0
   20.2855   18.3359   22.2913 C   0  0  0  0  0  0  0  0  0  0  0  0
   21.3763   18.2992   22.4123 H   0  0  0  0  0  0  0  0  0  0  0  0
   19.9644   17.3047   22.0922 H   0  0  0  0  0  0  0  0  0  0  0  0
   19.9415   19.2100   21.0587 C   0  0  0  0  0  0  0  0  0  0  0  0
   20.4479   18.7918   20.1775 H   0  0  0  0  0  0  0  0  0  0  0  0
   20.3462   20.2232   21.1864 H   0  0  0  0  0  0  0  0  0  0  0  0
   18.4239   19.2865   20.7747 C   0  0  0  0  0  0  0  0  0  0  0  0
   17.8840   19.7853   21.5894 H   0  0  0  0  0  0  0  0  0  0  0  0
   17.9962   18.2841   20.6431 H   0  0  0  0  0  0  0  0  0  0  0  0
   18.2331   19.8549   19.8551 H   0  0  0  0  0  0  0  0  0  0  0  0
  1  2  1  0  0  0  0
  1  3  1  0  0  0  0
  1  4  1  0  0  0  0
  1  5  1  0  0  0  0
  5  6  1  0  0  0  0
  5  7  1  0  0  0  0
  7  8  1  0  0  0  0
  7  9  1  0  0  0  0
  7 10  1  0  0  0  0
  5 11  1  0  0  0  0
 11 12  1  0  0  0  0
 11 13  1  0  0  0  0
 11 14  1  0  0  0  0
 14 15  1  0  0  0  0
 14 16  1  0  0  0  0
 14 17  1  0  0  0  0
 17 18  1  0  0  0  0
 17 19  1  0  0  0  0
 17 20  1  0  0  0  0
M  END
> <VM2 Rank>
4

> <Conf_Id>
104

> <Probability>
13.52

> <Sum Probability>
88.55

> <Delta G>
0.658

> <G>
3.364

> <E>
-19.711

> <-TS>
23.075

> <U+W>
-35.807

> <U>
22.369

> <W>
-58.177

> <W(PB)>
-60.100

> <W(SA)>
1.923

> <Valence>
2.168

> <Coulomb>
19.636

> <VdW>
0.566

> <VdW6>
-5.263

> <VdW12>
5.829

> <Bond>
0.162

> <Angle>
1.066

> <Pdih>
0.939

> <Idih>
0.000

> <Tether>
0.000

$$$$
VeraChem MOL file


 20 19  0  0  0  0  0  0  0  0999 V2000     
   20.3129   20.0924   24.6251 N   0  3  0  0  0  0  0  0  0  0  0  0
   19.7915   20.0632   25.5054 H   0  0  0  0  0  0  0  0  0  0  0  0
   20.3189   21.0661   24.3094 H   0  0  0  0  0  0  0  0  0  0  0  0
   21.2798   19.8327   24.8358 H   0  0  0  0  0  0  0  0  0  0  0  0
   19.7072   19.1784   23.5955 C   0  0  2  0  0  0  0  0  0  0  0  0
   18.6822   19.5284   23.4400 H   0  0  0  0  0  0  0  0  0  0  0  0
   19.6525   17.7346   24.1270 C   0  0  0  0  0  0  0  0  0  0  0  0
   19.0896   17.0824   23.4492 H   0  0  0  0  0  0  0  0  0  0  0  0
   19.1506   17.7001   25.1017 H   0  0  0  0  0  0  0  0  0  0  0  0
   20.6599   17.3175   24.2479 H   0  0  0  0  0  0  0  0  0  0  0  0
   20.4628   19.2735   22.2485 C   0  0  0  0  0  0  0  0  0  0  0  0
   20.5390   20.3308   21.9623 H   0  0  0  0  0  0  0  0  0  0  0  0
   21.4935   18.9199   22.3843 H   0  0  0  0  0  0  0  0  0  0  0  0
   19.8116   18.4968   21.0756 C   0  0  0  0  0  0  0  0  0  0  0  0
   19.8399   17.4164   21.2709 H   0  0  0  0  0  0  0  0  0  0  0  0
   20.4158   18.6539   20.1711 H   0  0  0  0  0  0  0  0  0  0  0  0
   18.3581   18.9382   20.7895 C   0  0  0  0  0  0  0  0  0  0  0  0
   17.6936   18.7084   21.6319 H   0  0  0  0  0  0  0  0  0  0  0  0
   17.9648   18.4177   19.9067 H   0  0  0  0  0  0  0  0  0  0  0  0
   18.3043   20.0171   20.5937 H   0  0  0  0  0  0  0  0  0  0  0  0
  1  2  1  0  0  0  0
  1  3  1  0  0  0  0
  1  4  1  0  0  0  0
  1  5  1  0  0  0  0
  5  6  1  0  0  0  0
  5  7  1  0  0  0  0
  7  8  1  0  0  0  0
  7  9  1  0  0  0  0
  7 10  1  0  0  0  0
  5 11  1  0  0  0  0
 11 12  1  0  0  0  0
 11 13  1  0  0  0  0
 11 14  1  0  0  0  0
 14 15  1  0  0  0  0
 14 16  1  0  0  0  0
 14 17  1  0  0  0  0
 17 18  1  0  0  0  0
 17 19  1  0  0  0  0
 17 20  1  0  0  0  0
M  END
> <VM2 Rank>
5

> <Conf_Id>
303

> <Probability>
10.33

> <Sum Probability>
98.88

> <Delta G>
0.819

> <G>
3.525

> <E>
-19.636

> <-TS>
23.161

> <U+W>
-35.732

> <U>
22.800

> <W>
-58.532

> <W(PB)>
-60.437

> <W(SA)>
1.905

> <Valence>
2.662

> <Coulomb>
19.485

> <VdW>
0.653

> <VdW6>
-5.459

> <VdW12>
6.112

> <Bond>
0.174

> <Angle>
1.379

> <Pdih>
1.109

> <Idih>
0.000

> <Tether>
0.000

$$$$
VeraChem MOL file


 20 19  0  0  0  0  0  0  0  0999 V2000     
   20.4417   20.1738   23.6449 N   0  3  0  0  0  0  0  0  0  0  0  0
   20.2929   20.7282   24.4924 H   0  0  0  0  0  0  0  0  0  0  0  0
   20.1633   20.7487   22.8468 H   0  0  0  0  0  0  0  0  0  0  0  0
   21.4470   20.0033   23.5635 H   0  0  0  0  0  0  0  0  0  0  0  0
   19.6681   18.8842   23.6854 C   0  0  2  0  0  0  0  0  0  0  0  0
   18.6139   19.1449   23.8214 H   0  0  0  0  0  0  0  0  0  0  0  0
   20.1157   18.0452   24.8943 C   0  0  0  0  0  0  0  0  0  0  0  0
   21.1661   17.7423   24.8004 H   0  0  0  0  0  0  0  0  0  0  0  0
   19.5055   17.1384   24.9886 H   0  0  0  0  0  0  0  0  0  0  0  0
   20.0061   18.6153   25.8251 H   0  0  0  0  0  0  0  0  0  0  0  0
   19.8013   18.0637   22.3803 C   0  0  0  0  0  0  0  0  0  0  0  0
   20.8561   18.0047   22.0811 H   0  0  0  0  0  0  0  0  0  0  0  0
   19.4892   17.0304   22.5832 H   0  0  0  0  0  0  0  0  0  0  0  0
   18.9385   18.5777   21.1980 C   0  0  0  0  0  0  0  0  0  0  0  0
   17.8790   18.5892   21.4904 H   0  0  0  0  0  0  0  0  0  0  0  0
   19.0172   17.8521   20.3762 H   0  0  0  0  0  0  0  0  0  0  0  0
   19.3398   19.9694   20.6581 C   0  0  0  0  0  0  0  0  0  0  0  0
   18.8253   20.1703   19.7093 H   0  0  0  0  0  0  0  0  0  0  0  0
   20.4196   20.0285   20.4691 H   0  0  0  0  0  0  0  0  0  0  0  0
   19.0547   20.7695   21.3510 H   0  0  0  0  0  0  0  0  0  0  0  0
  1  2  1  0  0  0  0
  1  3  1  0  0  0  0
  1  4  1  0  0  0  0
  1  5  1  0  0  0  0
  5  6  1  0  0  0  0
  5  7  1  0  0  0  0
  7  8  1  0  0  0  0
  7  9  1  0  0  0  0
  7 10  1  0  0  0  0
  5 11  1  0  0  0  0
 11 12  1  0  0  0  0
 11 13  1  0  0  0  0
 11 14  1  0  0  0  0
 14 15  1  0  0  0  0
 14 16  1  0  0  0  0
 14 17  1  0  0  0  0
 17 18  1  0  0  0  0
 17 19  1  0  0  0  0
 17 20  1  0  0  0  0
M  END
> <VM2 Rank>
6

> <Conf_Id>
306

> <Probability>
0.39

> <Sum Probability>
99.27

> <Delta G>
2.765

> <G>
5.471

> <E>
-17.433

> <-TS>
22.905

> <U+W>
-33.530

> <U>
24.337

> <W>
-57.867

> <W(PB)>
-59.768

> <W(SA)>
1.901

> <Valence>
3.593

> <Coulomb>
20.067

> <VdW>
0.677

> <VdW6>
-5.466

> <VdW12>
6.143

> <Bond>
0.191

> <Angle>
1.557

> <Pdih>
1.845

> <Idih>
0.000

> <Tether>
0.000

$$$$
VeraChem MOL file


 20 19  0  0  0  0  0  0  0  0999 V2000     
   20.3127   19.9500   24.7197 N   0  3  0  0  0  0  0  0  0  0  0  0
   20.2466   20.9493   24.5071 H   0  0  0  0  0  0  0  0  0  0  0  0
   21.3010   19.7331   24.8720 H   0  0  0  0  0  0  0  0  0  0  0  0
   19.8275   19.7973   25.6079 H   0  0  0  0  0  0  0  0  0  0  0  0
   19.7251   19.1084   23.6193 C   0  0  2  0  0  0  0  0  0  0  0  0
   18.6775   19.4122   23.5298 H   0  0  0  0  0  0  0  0  0  0  0  0
   19.7757   17.6196   24.0105 C   0  0  0  0  0  0  0  0  0  0  0  0
   19.2280   17.4470   24.9451 H   0  0  0  0  0  0  0  0  0  0  0  0
   20.8100   17.2845   24.1573 H   0  0  0  0  0  0  0  0  0  0  0  0
   19.3228   16.9852   23.2410 H   0  0  0  0  0  0  0  0  0  0  0  0
   20.4197   19.3673   22.2597 C   0  0  0  0  0  0  0  0  0  0  0  0
   20.9761   20.3123   22.3145 H   0  0  0  0  0  0  0  0  0  0  0  0
   21.1721   18.5927   22.0596 H   0  0  0  0  0  0  0  0  0  0  0  0
   19.4388   19.4784   21.0650 C   0  0  0  0  0  0  0  0  0  0  0  0
   20.0115   19.7387   20.1639 H   0  0  0  0  0  0  0  0  0  0  0  0
   18.7442   20.3129   21.2365 H   0  0  0  0  0  0  0  0  0  0  0  0
   18.6330   18.1902   20.7867 C   0  0  0  0  0  0  0  0  0  0  0  0
   17.9352   17.9692   21.6039 H   0  0  0  0  0  0  0  0  0  0  0  0
   19.2986   17.3275   20.6529 H   0  0  0  0  0  0  0  0  0  0  0  0
   18.0394   18.3000   19.8698 H   0  0  0  0  0  0  0  0  0  0  0  0
  1  2  1  0  0  0  0
  1  3  1  0  0  0  0
  1  4  1  0  0  0  0
  1  5  1  0  0  0  0
  5  6  1  0  0  0  0
  5  7  1  0  0  0  0
  7  8  1  0  0  0  0
  7  9  1  0  0  0  0
  7 10  1  0  0  0  0
  5 11  1  0  0  0  0
 11 12  1  0  0  0  0
 11 13  1  0  0  0  0
 11 14  1  0  0  0  0
 14 15  1  0  0  0  0
 14 16  1  0  0  0  0
 14 17  1  0  0  0  0
 17 18  1  0  0  0  0
 17 19  1  0  0  0  0
 17 20  1  0  0  0  0
M  END
> <VM2 Rank>
7

> <Conf_Id>
273

> <Probability>
0.18

> <Sum Probability>
99.45

> <Delta G>
3.225

> <G>
5.931

> <E>
-17.087

> <-TS>
23.018

> <U+W>
-33.184

> <U>
25.256

> <W>
-58.439

> <W(PB)>
-60.337

> <W(SA)>
1.898

> <Valence>
4.963

> <Coulomb>
19.511

> <VdW>
0.782

> <VdW6>
-5.429

> <VdW12>
6.211

> <Bond>
0.174

> <Angle>
1.376

> <Pdih>
3.413

> <Idih>
0.000

> <Tether>
0.000

$$$$
VeraChem MOL file


 20 19  0  0  0  0  0  0  0  0999 V2000     
   20.6495   19.8405   24.7413 N   0  3  0  0  0  0  0  0  0  0  0  0
   20.5502   19.4723   25.6911 H   0  0  0  0  0  0  0  0  0  0  0  0
   20.4667   20.8466   24.7865 H   0  0  0  0  0  0  0  0  0  0  0  0
   21.6281   19.7187   24.4688 H   0  0  0  0  0  0  0  0  0  0  0  0
   19.7192   19.1489   23.7826 C   0  0  2  0  0  0  0  0  0  0  0  0
   18.7062   19.3280   24.1560 H   0  0  0  0  0  0  0  0  0  0  0  0
   19.9723   17.6317   23.7962 C   0  0  0  0  0  0  0  0  0  0  0  0
   20.9373   17.3848   23.3365 H   0  0  0  0  0  0  0  0  0  0  0  0
   19.1817   17.0970   23.2576 H   0  0  0  0  0  0  0  0  0  0  0  0
   19.9764   17.2487   24.8240 H   0  0  0  0  0  0  0  0  0  0  0  0
   19.8242   19.7637   22.3654 C   0  0  0  0  0  0  0  0  0  0  0  0
   19.6663   20.8459   22.4634 H   0  0  0  0  0  0  0  0  0  0  0  0
   20.8437   19.6452   21.9750 H   0  0  0  0  0  0  0  0  0  0  0  0
   18.7909   19.2269   21.3398 C   0  0  0  0  0  0  0  0  0  0  0  0
   18.4774   20.0571   20.6912 H   0  0  0  0  0  0  0  0  0  0  0  0
   17.8813   18.8880   21.8553 H   0  0  0  0  0  0  0  0  0  0  0  0
   19.3489   18.1023   20.4358 C   0  0  0  0  0  0  0  0  0  0  0  0
   19.6646   17.2262   21.0131 H   0  0  0  0  0  0  0  0  0  0  0  0
   20.2135   18.4557   19.8592 H   0  0  0  0  0  0  0  0  0  0  0  0
   18.5855   17.7709   19.7200 H   0  0  0  0  0  0  0  0  0  0  0  0
  1  2  1  0  0  0  0
  1  3  1  0  0  0  0
  1  4  1  0  0  0  0
  1  5  1  0  0  0  0
  5  6  1  0  0  0  0
  5  7  1  0  0  0  0
  7  8  1  0  0  0  0
  7  9  1  0  0  0  0
  7 10  1  0  0  0  0
  5 11  1  0  0  0  0
 11 12  1  0  0  0  0
 11 13  1  0  0  0  0
 11 14  1  0  0  0  0
 14 15  1  0  0  0  0
 14 16  1  0  0  0  0
 14 17  1  0  0  0  0
 17 18  1  0  0  0  0
 17 19  1  0  0  0  0
 17 20  1  0  0  0  0
M  END
> <VM2 Rank>
8

> <Conf_Id>
220

> <Probability>
0.18

> <Sum Probability>
99.63

> <Delta G>
3.242

> <G>
5.948

> <E>
-17.185

> <-TS>
23.133

> <U+W>
-33.282

> <U>
25.224

> <W>
-58.506

> <W(PB)>
-60.411

> <W(SA)>
1.905

> <Valence>
4.945

> <Coulomb>
19.467

> <VdW>
0.813

> <VdW6>
-5.458

> <VdW12>
6.270

> <Bond>
0.200

> <Angle>
1.675

> <Pdih>
3.070

> <Idih>
0.000

> <Tether>
0.000

$$$$
VeraChem MOL file


 20 19  0  0  0  0  0  0  0  0999 V2000     
   20.4119   20.1134   24.3249 N   0  3  0  0  0  0  0  0  0  0  0  0
   21.0511   20.4133   23.5854 H   0  0  0  0  0  0  0  0  0  0  0  0
   20.9744   19.9352   25.1613 H   0  0  0  0  0  0  0  0  0  0  0  0
   19.7950   20.9023   24.5365 H   0  0  0  0  0  0  0  0  0  0  0  0
   19.6308   18.8935   23.9168 C   0  0  2  0  0  0  0  0  0  0  0  0
   18.9915   18.6481   24.7706 H   0  0  0  0  0  0  0  0  0  0  0  0
   20.5665   17.6959   23.6846 C   0  0  0  0  0  0  0  0  0  0  0  0
   21.0871   17.4313   24.6130 H   0  0  0  0  0  0  0  0  0  0  0  0
   21.3278   17.9217   22.9289 H   0  0  0  0  0  0  0  0  0  0  0  0
   20.0002   16.8148   23.3583 H   0  0  0  0  0  0  0  0  0  0  0  0
   18.6926   19.1692   22.7149 C   0  0  0  0  0  0  0  0  0  0  0  0
   18.0244   18.3101   22.5698 H   0  0  0  0  0  0  0  0  0  0  0  0
   18.0343   20.0014   22.9970 H   0  0  0  0  0  0  0  0  0  0  0  0
   19.3852   19.5306   21.3714 C   0  0  0  0  0  0  0  0  0  0  0  0
   20.3324   20.0571   21.5481 H   0  0  0  0  0  0  0  0  0  0  0  0
   18.7440   20.2418   20.8320 H   0  0  0  0  0  0  0  0  0  0  0  0
   19.6180   18.3114   20.4484 C   0  0  0  0  0  0  0  0  0  0  0  0
   18.6702   17.8099   20.2133 H   0  0  0  0  0  0  0  0  0  0  0  0
   20.2884   17.5723   20.9003 H   0  0  0  0  0  0  0  0  0  0  0  0
   20.0689   18.6297   19.4995 H   0  0  0  0  0  0  0  0  0  0  0  0
  1  2  1  0  0  0  0
  1  3  1  0  0  0  0
  1  4  1  0  0  0  0
  1  5  1  0  0  0  0
  5  6  1  0  0  0  0
  5  7  1  0  0  0  0
  7  8  1  0  0  0  0
  7  9  1  0  0  0  0
  7 10  1  0  0  0  0
  5 11  1  0  0  0  0
 11 12  1  0  0  0  0
 11 13  1  0  0  0  0
 11 14  1  0  0  0  0
 14 15  1  0  0  0  0
 14 16  1  0  0  0  0
 14 17  1  0  0  0  0
 17 18  1  0  0  0  0
 17 19  1  0  0  0  0
 17 20  1  0  0  0  0
M  END
> <VM2 Rank>
9

> <Conf_Id>
283

> <Probability>
0.16

> <Sum Probability>
99.79

> <Delta G>
3.294

> <G>
6.000

> <E>
-17.180

> <-TS>
23.180

> <U+W>
-33.276

> <U>
25.367

> <W>
-58.644

> <W(PB)>
-60.517

> <W(SA)>
1.873

> <Valence>
4.942

> <Coulomb>
19.661

> <VdW>
0.764

> <VdW6>
-5.872

> <VdW12>
6.636

> <Bond>
0.230

> <Angle>
1.857

> <Pdih>
2.855

> <Idih>
0.000

> <Tether>
0.000

$$$$
VeraChem MOL file


 20 19  0  0  0  0  0  0  0  0999 V2000     
   20.5527   20.2235   23.7204 N   0  3  0  0  0  0  0  0  0  0  0  0
   21.0541   20.1987   22.8305 H   0  0  0  0  0  0  0  0  0  0  0  0
   21.2492   20.2865   24.4677 H   0  0  0  0  0  0  0  0  0  0  0  0
   20.0057   21.0884   23.7400 H   0  0  0  0  0  0  0  0  0  0  0  0
   19.6751   19.0130   23.8846 C   0  0  2  0  0  0  0  0  0  0  0  0
   19.1700   19.1502   24.8458 H   0  0  0  0  0  0  0  0  0  0  0  0
   20.5096   17.7239   23.9857 C   0  0  0  0  0  0  0  0  0  0  0  0
   21.1211   17.5660   23.0893 H   0  0  0  0  0  0  0  0  0  0  0  0
   19.8603   16.8496   24.1181 H   0  0  0  0  0  0  0  0  0  0  0  0
   21.1851   17.7701   24.8485 H   0  0  0  0  0  0  0  0  0  0  0  0
   18.5662   18.9160   22.8055 C   0  0  0  0  0  0  0  0  0  0  0  0
   17.8063   18.2134   23.1722 H   0  0  0  0  0  0  0  0  0  0  0  0
   18.0552   19.8849   22.7329 H   0  0  0  0  0  0  0  0  0  0  0  0
   18.9932   18.4540   21.3839 C   0  0  0  0  0  0  0  0  0  0  0  0
   18.0899   18.3959   20.7606 H   0  0  0  0  0  0  0  0  0  0  0  0
   19.3923   17.4312   21.4196 H   0  0  0  0  0  0  0  0  0  0  0  0
   20.0082   19.3837   20.6809 C   0  0  0  0  0  0  0  0  0  0  0  0
   21.0015   19.3171   21.1393 H   0  0  0  0  0  0  0  0  0  0  0  0
   19.6746   20.4293   20.7062 H   0  0  0  0  0  0  0  0  0  0  0  0
   20.1203   19.0960   19.6274 H   0  0  0  0  0  0  0  0  0  0  0  0
  1  2  1  0  0  0  0
  1  3  1  0  0  0  0
  1  4  1  0  0  0  0
  1  5  1  0  0  0  0
  5  6  1  0  0  0  0
  5  7  1  0  0  0  0
  7  8  1  0  0  0  0
  7  9  1  0  0  0  0
  7 10  1  0  0  0  0
  5 11  1  0  0  0  0
 11 12  1  0  0  0  0
 11 13  1  0  0  0  0
 11 14  1  0  0  0  0
 14 15  1  0  0  0  0
 14 16  1  0  0  0  0
 14 17  1  0  0  0  0
 17 18  1  0  0  0  0
 17 19  1  0  0  0  0
 17 20  1  0  0  0  0
M  END
> <VM2 Rank>
10

> <Conf_Id>
250

> <Probability>
0.15

> <Sum Probability>
99.95

> <Delta G>
3.323

> <G>
6.029

> <E>
-17.416

> <-TS>
23.444

> <U+W>
-33.512

> <U>
24.552

> <W>
-58.064

> <W(PB)>
-59.933

> <W(SA)>
1.869

> <Valence>
3.726

> <Coulomb>
20.219

> <VdW>
0.606

> <VdW6>
-6.395

> <VdW12>
7.002

> <Bond>
0.241

> <Angle>
2.098

> <Pdih>
1.387

> <Idih>
0.000

> <Tether>
0.000

$$$$
VeraChem MOL file


 20 19  0  0  0  0  0  0  0  0999 V2000     
   20.4703   20.1803   23.8701 N   0  3  0  0  0  0  0  0  0  0  0  0
   20.9775   20.2903   22.9890 H   0  0  0  0  0  0  0  0  0  0  0  0
   21.1568   20.2085   24.6286 H   0  0  0  0  0  0  0  0  0  0  0  0
   19.8615   20.9959   23.9788 H   0  0  0  0  0  0  0  0  0  0  0  0
   19.6817   18.8991   23.8852 C   0  0  2  0  0  0  0  0  0  0  0  0
   19.1717   18.8761   24.8534 H   0  0  0  0  0  0  0  0  0  0  0  0
   20.6027   17.6650   23.8520 C   0  0  0  0  0  0  0  0  0  0  0  0
   21.2134   17.6234   22.9454 H   0  0  0  0  0  0  0  0  0  0  0  0
   20.0159   16.7400   23.9096 H   0  0  0  0  0  0  0  0  0  0  0  0
   21.2843   17.6747   24.7113 H   0  0  0  0  0  0  0  0  0  0  0  0
   18.5739   18.8488   22.8005 C   0  0  0  0  0  0  0  0  0  0  0  0
   18.2112   17.8179   22.6944 H   0  0  0  0  0  0  0  0  0  0  0  0
   17.7168   19.4166   23.1856 H   0  0  0  0  0  0  0  0  0  0  0  0
   18.9191   19.4265   21.3987 C   0  0  0  0  0  0  0  0  0  0  0  0
   19.1566   20.4963   21.4757 H   0  0  0  0  0  0  0  0  0  0  0  0
   18.0133   19.3711   20.7787 H   0  0  0  0  0  0  0  0  0  0  0  0
   20.0574   18.6943   20.6545 C   0  0  0  0  0  0  0  0  0  0  0  0
   21.0335   18.8970   21.1097 H   0  0  0  0  0  0  0  0  0  0  0  0
   20.1111   19.0332   19.6117 H   0  0  0  0  0  0  0  0  0  0  0  0
   19.8922   17.6091   20.6447 H   0  0  0  0  0  0  0  0  0  0  0  0
  1  2  1  0  0  0  0
  1  3  1  0  0  0  0
  1  4  1  0  0  0  0
  1  5  1  0  0  0  0
  5  6  1  0  0  0  0
  5  7  1  0  0  0  0
  7  8  1  0  0  0  0
  7  9  1  0  0  0  0
  7 10  1  0  0  0  0
  5 11  1  0  0  0  0
 11 12  1  0  0  0  0
 11 13  1  0  0  0  0
 11 14  1  0  0  0  0
 14 15  1  0  0  0  0
 14 16  1  0  0  0  0
 14 17  1  0  0  0  0
 17 18  1  0  0  0  0
 17 19  1  0  0  0  0
 17 20  1  0  0  0  0
M  END
> <VM2 Rank>
11

> <Conf_Id>
231

> <Probability>
0.05

> <Sum Probability>
100.00

> <Delta G>
3.987

> <G>
6.693

> <E>
-16.651

> <-TS>
23.344

> <U+W>
-32.747

> <U>
25.522

> <W>
-58.269

> <W(PB)>
-60.153

> <W(SA)>
1.885

> <Valence>
4.930

> <Coulomb>
19.829

> <VdW>
0.763

> <VdW6>
-6.201

> <VdW12>
6.963

> <Bond>
0.247

> <Angle>
2.332

> <Pdih>
2.352

> <Idih>
0.000

> <Tether>
0.000

$$$$
