VeraChem MOL file


 23 22  0  0  0  0  0  0  0  0999 V2000     
   19.7414   18.6610   26.4278 N   0  3  0  0  0  0  0  0  0  0  0  0
   19.4803   19.1972   27.2623 H   0  0  0  0  0  0  0  0  0  0  0  0
   20.7320   18.4173   26.5284 H   0  0  0  0  0  0  0  0  0  0  0  0
   19.2106   17.7845   26.4591 H   0  0  0  0  0  0  0  0  0  0  0  0
   19.4764   19.4376   25.1540 C   0  0  0  0  0  0  0  0  0  0  0  0
   20.0479   20.3686   25.2013 H   0  0  0  0  0  0  0  0  0  0  0  0
   18.4125   19.6884   25.1268 H   0  0  0  0  0  0  0  0  0  0  0  0
   19.8580   18.6596   23.8821 C   0  0  0  0  0  0  0  0  0  0  0  0
   20.9233   18.3958   23.9214 H   0  0  0  0  0  0  0  0  0  0  0  0
   19.2938   17.7180   23.8472 H   0  0  0  0  0  0  0  0  0  0  0  0
   19.5728   19.4847   22.6077 C   0  0  0  0  0  0  0  0  0  0  0  0
   20.1349   20.4281   22.6489 H   0  0  0  0  0  0  0  0  0  0  0  0
   18.5071   19.7511   22.5748 H   0  0  0  0  0  0  0  0  0  0  0  0
   19.9525   18.7125   21.3237 C   0  0  0  0  0  0  0  0  0  0  0  0
   21.0181   18.4461   21.3565 H   0  0  0  0  0  0  0  0  0  0  0  0
   19.3904   17.7691   21.2823 H   0  0  0  0  0  0  0  0  0  0  0  0
   19.6673   19.5379   20.0493 C   0  0  0  0  0  0  0  0  0  0  0  0
   20.2292   20.4818   20.0849 H   0  0  0  0  0  0  0  0  0  0  0  0
   18.6018   19.8048   20.0106 H   0  0  0  0  0  0  0  0  0  0  0  0
   20.0477   18.7637   18.7693 C   0  0  0  0  0  0  0  0  0  0  0  0
   19.4761   17.8299   18.6881 H   0  0  0  0  0  0  0  0  0  0  0  0
   21.1163   18.5121   18.7630 H   0  0  0  0  0  0  0  0  0  0  0  0
   19.8381   19.3656   17.8755 H   0  0  0  0  0  0  0  0  0  0  0  0
  1  2  1  0  0  0  0
  1  3  1  0  0  0  0
  1  4  1  0  0  0  0
  1  5  1  0  0  0  0
  5  6  1  0  0  0  0
  5  7  1  0  0  0  0
  5  8  1  0  0  0  0
  8  9  1  0  0  0  0
  8 10  1  0  0  0  0
  8 11  1  0  0  0  0
 11 12  1  0  0  0  0
 11 13  1  0  0  0  0
 11 14  1  0  0  0  0
 14 15  1  0  0  0  0
 14 16  1  0  0  0  0
 14 17  1  0  0  0  0
 17 18  1  0  0  0  0
 17 19  1  0  0  0  0
 17 20  1  0  0  0  0
 20 21  1  0  0  0  0
 20 22  1  0  0  0  0
 20 23  1  0  0  0  0
M  END
> <VM2 Rank>
1

> <Conf_Id>
625

> <Probability>
11.98

> <Sum Probability>
11.98

> <Delta G>
0.000

> <G>
37.917

> <E>
10.396

> <-TS>
27.520

> <U+W>
-8.383

> <U>
46.604

> <W>
-54.987

> <W(PB)>
-57.163

> <W(SA)>
2.176

> <Valence>
1.727

> <Coulomb>
44.434

> <VdW>
0.443

> <VdW6>
-4.623

> <VdW12>
5.066

> <Bond>
0.112

> <Angle>
0.386

> <Pdih>
1.228

> <Idih>
0.000

> <Tether>
0.000

$$$$
VeraChem MOL file


 23 22  0  0  0  0  0  0  0  0999 V2000     
   20.4491   19.4573   25.7939 N   0  3  0  0  0  0  0  0  0  0  0  0
   20.3534   19.8733   26.7266 H   0  0  0  0  0  0  0  0  0  0  0  0
   20.8558   20.1751   25.1865 H   0  0  0  0  0  0  0  0  0  0  0  0
   21.1373   18.7018   25.8732 H   0  0  0  0  0  0  0  0  0  0  0  0
   19.1204   18.9564   25.2623 C   0  0  0  0  0  0  0  0  0  0  0  0
   18.4287   19.8024   25.2256 H   0  0  0  0  0  0  0  0  0  0  0  0
   18.7301   18.2283   25.9787 H   0  0  0  0  0  0  0  0  0  0  0  0
   19.2146   18.3026   23.8700 C   0  0  0  0  0  0  0  0  0  0  0  0
   19.9143   17.4571   23.9086 H   0  0  0  0  0  0  0  0  0  0  0  0
   18.2316   17.8843   23.6156 H   0  0  0  0  0  0  0  0  0  0  0  0
   19.6475   19.2997   22.7689 C   0  0  0  0  0  0  0  0  0  0  0  0
   20.6464   19.6958   22.9955 H   0  0  0  0  0  0  0  0  0  0  0  0
   18.9591   20.1562   22.7599 H   0  0  0  0  0  0  0  0  0  0  0  0
   19.6671   18.6391   21.3717 C   0  0  0  0  0  0  0  0  0  0  0  0
   20.3533   17.7808   21.3807 H   0  0  0  0  0  0  0  0  0  0  0  0
   18.6686   18.2449   21.1370 H   0  0  0  0  0  0  0  0  0  0  0  0
   20.0997   19.6326   20.2705 C   0  0  0  0  0  0  0  0  0  0  0  0
   21.0996   20.0276   20.4987 H   0  0  0  0  0  0  0  0  0  0  0  0
   19.4151   20.4922   20.2563 H   0  0  0  0  0  0  0  0  0  0  0  0
   20.1175   18.9694   18.8768 C   0  0  0  0  0  0  0  0  0  0  0  0
   19.1221   18.5942   18.6054 H   0  0  0  0  0  0  0  0  0  0  0  0
   20.8198   18.1260   18.8498 H   0  0  0  0  0  0  0  0  0  0  0  0
   20.4268   19.6899   18.1085 H   0  0  0  0  0  0  0  0  0  0  0  0
  1  2  1  0  0  0  0
  1  3  1  0  0  0  0
  1  4  1  0  0  0  0
  1  5  1  0  0  0  0
  5  6  1  0  0  0  0
  5  7  1  0  0  0  0
  5  8  1  0  0  0  0
  8  9  1  0  0  0  0
  8 10  1  0  0  0  0
  8 11  1  0  0  0  0
 11 12  1  0  0  0  0
 11 13  1  0  0  0  0
 11 14  1  0  0  0  0
 14 15  1  0  0  0  0
 14 16  1  0  0  0  0
 14 17  1  0  0  0  0
 17 18  1  0  0  0  0
 17 19  1  0  0  0  0
 17 20  1  0  0  0  0
 20 21  1  0  0  0  0
 20 22  1  0  0  0  0
 20 23  1  0  0  0  0
M  END
> <VM2 Rank>
2

> <Conf_Id>
674

> <Probability>
7.37

> <Sum Probability>
19.34

> <Delta G>
0.290

> <G>
38.206

> <E>
10.584

> <-TS>
27.622

> <U+W>
-8.195

> <U>
47.288

> <W>
-55.483

> <W(PB)>
-57.632

> <W(SA)>
2.149

> <Valence>
1.833

> <Coulomb>
44.908

> <VdW>
0.548

> <VdW6>
-5.142

> <VdW12>
5.689

> <Bond>
0.133

> <Angle>
0.431

> <Pdih>
1.269

> <Idih>
0.000

> <Tether>
0.000

$$$$
VeraChem MOL file


 23 22  0  0  0  0  0  0  0  0999 V2000     
   18.7298   18.7422   25.7155 N   0  3  0  0  0  0  0  0  0  0  0  0
   17.9834   18.9805   25.0555 H   0  0  0  0  0  0  0  0  0  0  0  0
   18.4301   19.0734   26.6388 H   0  0  0  0  0  0  0  0  0  0  0  0
   18.7754   17.7195   25.7655 H   0  0  0  0  0  0  0  0  0  0  0  0
   20.0586   19.3466   25.3051 C   0  0  0  0  0  0  0  0  0  0  0  0
   20.7924   19.0860   26.0727 H   0  0  0  0  0  0  0  0  0  0  0  0
   19.9482   20.4343   25.2949 H   0  0  0  0  0  0  0  0  0  0  0  0
   20.5633   18.8636   23.9314 C   0  0  0  0  0  0  0  0  0  0  0  0
   21.5692   19.2725   23.7678 H   0  0  0  0  0  0  0  0  0  0  0  0
   20.6677   17.7704   23.9430 H   0  0  0  0  0  0  0  0  0  0  0  0
   19.6389   19.2961   22.7685 C   0  0  0  0  0  0  0  0  0  0  0  0
   19.5164   20.3880   22.7854 H   0  0  0  0  0  0  0  0  0  0  0  0
   18.6398   18.8610   22.9040 H   0  0  0  0  0  0  0  0  0  0  0  0
   20.2012   18.8613   21.3960 C   0  0  0  0  0  0  0  0  0  0  0  0
   21.1994   19.2978   21.2523 H   0  0  0  0  0  0  0  0  0  0  0  0
   20.3266   17.7698   21.3794 H   0  0  0  0  0  0  0  0  0  0  0  0
   19.2795   19.2914   20.2331 C   0  0  0  0  0  0  0  0  0  0  0  0
   19.1526   20.3830   20.2443 H   0  0  0  0  0  0  0  0  0  0  0  0
   18.2803   18.8548   20.3704 H   0  0  0  0  0  0  0  0  0  0  0  0
   19.8446   18.8559   18.8643 C   0  0  0  0  0  0  0  0  0  0  0  0
   20.8300   19.3047   18.6831 H   0  0  0  0  0  0  0  0  0  0  0  0
   19.1769   19.1699   18.0516 H   0  0  0  0  0  0  0  0  0  0  0  0
   19.9509   17.7645   18.8103 H   0  0  0  0  0  0  0  0  0  0  0  0
  1  2  1  0  0  0  0
  1  3  1  0  0  0  0
  1  4  1  0  0  0  0
  1  5  1  0  0  0  0
  5  6  1  0  0  0  0
  5  7  1  0  0  0  0
  5  8  1  0  0  0  0
  8  9  1  0  0  0  0
  8 10  1  0  0  0  0
  8 11  1  0  0  0  0
 11 12  1  0  0  0  0
 11 13  1  0  0  0  0
 11 14  1  0  0  0  0
 14 15  1  0  0  0  0
 14 16  1  0  0  0  0
 14 17  1  0  0  0  0
 17 18  1  0  0  0  0
 17 19  1  0  0  0  0
 17 20  1  0  0  0  0
 20 21  1  0  0  0  0
 20 22  1  0  0  0  0
 20 23  1  0  0  0  0
M  END
> <VM2 Rank>
3

> <Conf_Id>
691

> <Probability>
7.16

> <Sum Probability>
26.50

> <Delta G>
0.307

> <G>
38.223

> <E>
10.601

> <-TS>
27.623

> <U+W>
-8.178

> <U>
47.288

> <W>
-55.467

> <W(PB)>
-57.600

> <W(SA)>
2.133

> <Valence>
1.833

> <Coulomb>
44.908

> <VdW>
0.548

> <VdW6>
-5.142

> <VdW12>
5.690

> <Bond>
0.133

> <Angle>
0.431

> <Pdih>
1.269

> <Idih>
0.000

> <Tether>
0.000

$$$$
VeraChem MOL file


 23 22  0  0  0  0  0  0  0  0999 V2000     
   19.5097   18.2599   26.0548 N   0  3  0  0  0  0  0  0  0  0  0  0
   20.4067   17.7706   26.1372 H   0  0  0  0  0  0  0  0  0  0  0  0
   18.7901   17.6263   26.4193 H   0  0  0  0  0  0  0  0  0  0  0  0
   19.5461   19.0649   26.6885 H   0  0  0  0  0  0  0  0  0  0  0  0
   19.2220   18.6768   24.6269 C   0  0  0  0  0  0  0  0  0  0  0  0
   18.2433   19.1638   24.6081 H   0  0  0  0  0  0  0  0  0  0  0  0
   19.1675   17.7709   24.0177 H   0  0  0  0  0  0  0  0  0  0  0  0
   20.2860   19.6299   24.0505 C   0  0  0  0  0  0  0  0  0  0  0  0
   20.3621   20.5150   24.6961 H   0  0  0  0  0  0  0  0  0  0  0  0
   21.2692   19.1411   24.0703 H   0  0  0  0  0  0  0  0  0  0  0  0
   19.9615   20.0869   22.6086 C   0  0  0  0  0  0  0  0  0  0  0  0
   20.7077   20.8317   22.2989 H   0  0  0  0  0  0  0  0  0  0  0  0
   18.9889   20.5983   22.5965 H   0  0  0  0  0  0  0  0  0  0  0  0
   19.9520   18.9222   21.5893 C   0  0  0  0  0  0  0  0  0  0  0  0
   20.9140   18.3927   21.6277 H   0  0  0  0  0  0  0  0  0  0  0  0
   19.1764   18.1931   21.8593 H   0  0  0  0  0  0  0  0  0  0  0  0
   19.6977   19.4219   20.1497 C   0  0  0  0  0  0  0  0  0  0  0  0
   20.4736   20.1466   19.8654 H   0  0  0  0  0  0  0  0  0  0  0  0
   18.7366   19.9531   20.1057 H   0  0  0  0  0  0  0  0  0  0  0  0
   19.6871   18.2594   19.1342 C   0  0  0  0  0  0  0  0  0  0  0  0
   20.6484   17.7292   19.1310 H   0  0  0  0  0  0  0  0  0  0  0  0
   19.5056   18.6338   18.1184 H   0  0  0  0  0  0  0  0  0  0  0  0
   18.8976   17.5346   19.3720 H   0  0  0  0  0  0  0  0  0  0  0  0
  1  2  1  0  0  0  0
  1  3  1  0  0  0  0
  1  4  1  0  0  0  0
  1  5  1  0  0  0  0
  5  6  1  0  0  0  0
  5  7  1  0  0  0  0
  5  8  1  0  0  0  0
  8  9  1  0  0  0  0
  8 10  1  0  0  0  0
  8 11  1  0  0  0  0
 11 12  1  0  0  0  0
 11 13  1  0  0  0  0
 11 14  1  0  0  0  0
 14 15  1  0  0  0  0
 14 16  1  0  0  0  0
 14 17  1  0  0  0  0
 17 18  1  0  0  0  0
 17 19  1  0  0  0  0
 17 20  1  0  0  0  0
 20 21  1  0  0  0  0
 20 22  1  0  0  0  0
 20 23  1  0  0  0  0
M  END
> <VM2 Rank>
4

> <Conf_Id>
130

> <Probability>
5.51

> <Sum Probability>
32.02

> <Delta G>
0.463

> <G>
38.379

> <E>
10.761

> <-TS>
27.618

> <U+W>
-8.018

> <U>
47.375

> <W>
-55.393

> <W(PB)>
-57.544

> <W(SA)>
2.152

> <Valence>
2.032

> <Coulomb>
44.843

> <VdW>
0.500

> <VdW6>
-5.218

> <VdW12>
5.718

> <Bond>
0.135

> <Angle>
0.514

> <Pdih>
1.383

> <Idih>
0.000

> <Tether>
0.000

$$$$
VeraChem MOL file


 23 22  0  0  0  0  0  0  0  0999 V2000     
   20.2169   18.5541   26.0871 N   0  3  0  0  0  0  0  0  0  0  0  0
   21.1423   18.6049   26.5266 H   0  0  0  0  0  0  0  0  0  0  0  0
   19.9271   17.5712   26.1155 H   0  0  0  0  0  0  0  0  0  0  0  0
   19.5722   19.0759   26.6897 H   0  0  0  0  0  0  0  0  0  0  0  0
   20.2344   19.0980   24.6730 C   0  0  0  0  0  0  0  0  0  0  0  0
   20.9614   18.5171   24.0996 H   0  0  0  0  0  0  0  0  0  0  0  0
   20.5781   20.1351   24.7145 H   0  0  0  0  0  0  0  0  0  0  0  0
   18.8575   19.0356   23.9853 C   0  0  0  0  0  0  0  0  0  0  0  0
   18.5120   17.9940   23.9445 H   0  0  0  0  0  0  0  0  0  0  0  0
   18.1273   19.5852   24.5942 H   0  0  0  0  0  0  0  0  0  0  0  0
   18.8736   19.6343   22.5590 C   0  0  0  0  0  0  0  0  0  0  0  0
   19.1951   20.6841   22.6060 H   0  0  0  0  0  0  0  0  0  0  0  0
   17.8465   19.6414   22.1685 H   0  0  0  0  0  0  0  0  0  0  0  0
   19.7839   18.8523   21.5816 C   0  0  0  0  0  0  0  0  0  0  0  0
   20.8237   18.8785   21.9343 H   0  0  0  0  0  0  0  0  0  0  0  0
   19.4807   17.7964   21.5624 H   0  0  0  0  0  0  0  0  0  0  0  0
   19.7202   19.4312   20.1507 C   0  0  0  0  0  0  0  0  0  0  0  0
   20.0222   20.4880   20.1642 H   0  0  0  0  0  0  0  0  0  0  0  0
   18.6846   19.4024   19.7840 H   0  0  0  0  0  0  0  0  0  0  0  0
   20.6294   18.6515   19.1771 C   0  0  0  0  0  0  0  0  0  0  0  0
   20.5704   19.0768   18.1668 H   0  0  0  0  0  0  0  0  0  0  0  0
   20.3303   17.5969   19.1166 H   0  0  0  0  0  0  0  0  0  0  0  0
   21.6784   18.6914   19.4986 H   0  0  0  0  0  0  0  0  0  0  0  0
  1  2  1  0  0  0  0
  1  3  1  0  0  0  0
  1  4  1  0  0  0  0
  1  5  1  0  0  0  0
  5  6  1  0  0  0  0
  5  7  1  0  0  0  0
  5  8  1  0  0  0  0
  8  9  1  0  0  0  0
  8 10  1  0  0  0  0
  8 11  1  0  0  0  0
 11 12  1  0  0  0  0
 11 13  1  0  0  0  0
 11 14  1  0  0  0  0
 14 15  1  0  0  0  0
 14 16  1  0  0  0  0
 14 17  1  0  0  0  0
 17 18  1  0  0  0  0
 17 19  1  0  0  0  0
 17 20  1  0  0  0  0
 20 21  1  0  0  0  0
 20 22  1  0  0  0  0
 20 23  1  0  0  0  0
M  END
> <VM2 Rank>
5

> <Conf_Id>
654

> <Probability>
4.93

> <Sum Probability>
36.94

> <Delta G>
0.530

> <G>
38.446

> <E>
10.828

> <-TS>
27.618

> <U+W>
-7.951

> <U>
47.375

> <W>
-55.326

> <W(PB)>
-57.492

> <W(SA)>
2.166

> <Valence>
2.032

> <Coulomb>
44.843

> <VdW>
0.499

> <VdW6>
-5.218

> <VdW12>
5.718

> <Bond>
0.135

> <Angle>
0.514

> <Pdih>
1.383

> <Idih>
0.000

> <Tether>
0.000

$$$$
VeraChem MOL file


 23 22  0  0  0  0  0  0  0  0999 V2000     
   19.5474   18.7522   26.3217 N   0  3  0  0  0  0  0  0  0  0  0  0
   19.7317   17.7456   26.3829 H   0  0  0  0  0  0  0  0  0  0  0  0
   18.8412   18.9695   27.0331 H   0  0  0  0  0  0  0  0  0  0  0  0
   20.4084   19.2339   26.6000 H   0  0  0  0  0  0  0  0  0  0  0  0
   19.0936   19.1608   24.9349 C   0  0  0  0  0  0  0  0  0  0  0  0
   18.8877   20.2345   24.9499 H   0  0  0  0  0  0  0  0  0  0  0  0
   18.1603   18.6348   24.7166 H   0  0  0  0  0  0  0  0  0  0  0  0
   20.1323   18.8479   23.8432 C   0  0  0  0  0  0  0  0  0  0  0  0
   21.0728   19.3649   24.0758 H   0  0  0  0  0  0  0  0  0  0  0  0
   20.3479   17.7710   23.8423 H   0  0  0  0  0  0  0  0  0  0  0  0
   19.6322   19.2790   22.4466 C   0  0  0  0  0  0  0  0  0  0  0  0
   19.4159   20.3564   22.4518 H   0  0  0  0  0  0  0  0  0  0  0  0
   18.6865   18.7647   22.2299 H   0  0  0  0  0  0  0  0  0  0  0  0
   20.6695   18.9645   21.3418 C   0  0  0  0  0  0  0  0  0  0  0  0
   21.6298   19.4269   21.6089 H   0  0  0  0  0  0  0  0  0  0  0  0
   20.8494   17.8814   21.2995 H   0  0  0  0  0  0  0  0  0  0  0  0
   20.2524   19.4739   19.9408 C   0  0  0  0  0  0  0  0  0  0  0  0
   21.0845   19.3064   19.2427 H   0  0  0  0  0  0  0  0  0  0  0  0
   20.0925   20.5607   19.9728 H   0  0  0  0  0  0  0  0  0  0  0  0
   18.9887   18.7787   19.3850 C   0  0  0  0  0  0  0  0  0  0  0  0
   18.7904   19.1076   18.3567 H   0  0  0  0  0  0  0  0  0  0  0  0
   18.1009   19.0167   19.9838 H   0  0  0  0  0  0  0  0  0  0  0  0
   19.1121   17.6880   19.3703 H   0  0  0  0  0  0  0  0  0  0  0  0
  1  2  1  0  0  0  0
  1  3  1  0  0  0  0
  1  4  1  0  0  0  0
  1  5  1  0  0  0  0
  5  6  1  0  0  0  0
  5  7  1  0  0  0  0
  5  8  1  0  0  0  0
  8  9  1  0  0  0  0
  8 10  1  0  0  0  0
  8 11  1  0  0  0  0
 11 12  1  0  0  0  0
 11 13  1  0  0  0  0
 11 14  1  0  0  0  0
 14 15  1  0  0  0  0
 14 16  1  0  0  0  0
 14 17  1  0  0  0  0
 17 18  1  0  0  0  0
 17 19  1  0  0  0  0
 17 20  1  0  0  0  0
 20 21  1  0  0  0  0
 20 22  1  0  0  0  0
 20 23  1  0  0  0  0
M  END
> <VM2 Rank>
6

> <Conf_Id>
353

> <Probability>
4.33

> <Sum Probability>
41.27

> <Delta G>
0.606

> <G>
38.523

> <E>
10.893

> <-TS>
27.630

> <U+W>
-7.886

> <U>
47.264

> <W>
-55.151

> <W(PB)>
-57.313

> <W(SA)>
2.162

> <Valence>
2.234

> <Coulomb>
44.451

> <VdW>
0.580

> <VdW6>
-5.234

> <VdW12>
5.814

> <Bond>
0.148

> <Angle>
0.630

> <Pdih>
1.456

> <Idih>
0.000

> <Tether>
0.000

$$$$
VeraChem MOL file


 23 22  0  0  0  0  0  0  0  0999 V2000     
   19.8212   18.8660   26.3341 N   0  3  0  0  0  0  0  0  0  0  0  0
   20.3997   18.0234   26.4133 H   0  0  0  0  0  0  0  0  0  0  0  0
   18.8542   18.5873   26.5291 H   0  0  0  0  0  0  0  0  0  0  0  0
   20.1079   19.4964   27.0908 H   0  0  0  0  0  0  0  0  0  0  0  0
   19.9580   19.5203   24.9743 C   0  0  0  0  0  0  0  0  0  0  0  0
   21.0025   19.8171   24.8461 H   0  0  0  0  0  0  0  0  0  0  0  0
   19.3413   20.4232   24.9707 H   0  0  0  0  0  0  0  0  0  0  0  0
   19.5351   18.5995   23.8160 C   0  0  0  0  0  0  0  0  0  0  0  0
   20.1462   17.6871   23.8331 H   0  0  0  0  0  0  0  0  0  0  0  0
   18.4908   18.2909   23.9581 H   0  0  0  0  0  0  0  0  0  0  0  0
   19.6893   19.3028   22.4493 C   0  0  0  0  0  0  0  0  0  0  0  0
   20.7340   19.6164   22.3232 H   0  0  0  0  0  0  0  0  0  0  0  0
   19.0780   20.2159   22.4364 H   0  0  0  0  0  0  0  0  0  0  0  0
   19.2694   18.3823   21.2780 C   0  0  0  0  0  0  0  0  0  0  0  0
   19.9130   17.4920   21.2568 H   0  0  0  0  0  0  0  0  0  0  0  0
   18.2471   18.0201   21.4548 H   0  0  0  0  0  0  0  0  0  0  0  0
   19.3103   19.0822   19.8979 C   0  0  0  0  0  0  0  0  0  0  0  0
   18.6508   19.9613   19.9072 H   0  0  0  0  0  0  0  0  0  0  0  0
   18.8987   18.3975   19.1432 H   0  0  0  0  0  0  0  0  0  0  0  0
   20.7327   19.5039   19.4644 C   0  0  0  0  0  0  0  0  0  0  0  0
   21.1413   20.2808   20.1223 H   0  0  0  0  0  0  0  0  0  0  0  0
   20.7188   19.9097   18.4445 H   0  0  0  0  0  0  0  0  0  0  0  0
   21.4191   18.6473   19.4752 H   0  0  0  0  0  0  0  0  0  0  0  0
  1  2  1  0  0  0  0
  1  3  1  0  0  0  0
  1  4  1  0  0  0  0
  1  5  1  0  0  0  0
  5  6  1  0  0  0  0
  5  7  1  0  0  0  0
  5  8  1  0  0  0  0
  8  9  1  0  0  0  0
  8 10  1  0  0  0  0
  8 11  1  0  0  0  0
 11 12  1  0  0  0  0
 11 13  1  0  0  0  0
 11 14  1  0  0  0  0
 14 15  1  0  0  0  0
 14 16  1  0  0  0  0
 14 17  1  0  0  0  0
 17 18  1  0  0  0  0
 17 19  1  0  0  0  0
 17 20  1  0  0  0  0
 20 21  1  0  0  0  0
 20 22  1  0  0  0  0
 20 23  1  0  0  0  0
M  END
> <VM2 Rank>
7

> <Conf_Id>
310

> <Probability>
4.09

> <Sum Probability>
45.36

> <Delta G>
0.640

> <G>
38.557

> <E>
10.927

> <-TS>
27.630

> <U+W>
-7.852

> <U>
47.264

> <W>
-55.117

> <W(PB)>
-57.282

> <W(SA)>
2.165

> <Valence>
2.234

> <Coulomb>
44.451

> <VdW>
0.580

> <VdW6>
-5.234

> <VdW12>
5.814

> <Bond>
0.148

> <Angle>
0.630

> <Pdih>
1.456

> <Idih>
0.000

> <Tether>
0.000

$$$$
VeraChem MOL file


 23 22  0  0  0  0  0  0  0  0999 V2000     
   19.3993   18.2117   26.0666 N   0  3  0  0  0  0  0  0  0  0  0  0
   18.6477   17.5625   25.8129 H   0  0  0  0  0  0  0  0  0  0  0  0
   19.1879   18.5586   27.0085 H   0  0  0  0  0  0  0  0  0  0  0  0
   20.2615   17.6619   26.1384 H   0  0  0  0  0  0  0  0  0  0  0  0
   19.5314   19.3428   25.0671 C   0  0  0  0  0  0  0  0  0  0  0  0
   20.3260   20.0088   25.4144 H   0  0  0  0  0  0  0  0  0  0  0  0
   18.5917   19.9017   25.0635 H   0  0  0  0  0  0  0  0  0  0  0  0
   19.8496   18.8558   23.6422 C   0  0  0  0  0  0  0  0  0  0  0  0
   20.7857   18.2817   23.6538 H   0  0  0  0  0  0  0  0  0  0  0  0
   19.0554   18.1743   23.3125 H   0  0  0  0  0  0  0  0  0  0  0  0
   19.9779   20.0417   22.6573 C   0  0  0  0  0  0  0  0  0  0  0  0
   20.7194   20.7518   23.0492 H   0  0  0  0  0  0  0  0  0  0  0  0
   19.0252   20.5873   22.6082 H   0  0  0  0  0  0  0  0  0  0  0  0
   20.4085   19.6197   21.2308 C   0  0  0  0  0  0  0  0  0  0  0  0
   20.5872   20.5277   20.6385 H   0  0  0  0  0  0  0  0  0  0  0  0
   21.3694   19.0889   21.2779 H   0  0  0  0  0  0  0  0  0  0  0  0
   19.3631   18.7424   20.5019 C   0  0  0  0  0  0  0  0  0  0  0  0
   18.3886   19.2503   20.5001 H   0  0  0  0  0  0  0  0  0  0  0  0
   19.2265   17.7924   21.0355 H   0  0  0  0  0  0  0  0  0  0  0  0
   19.7862   18.4429   19.0480 C   0  0  0  0  0  0  0  0  0  0  0  0
   19.8934   19.3693   18.4687 H   0  0  0  0  0  0  0  0  0  0  0  0
   19.0358   17.8177   18.5468 H   0  0  0  0  0  0  0  0  0  0  0  0
   20.7445   17.9082   19.0182 H   0  0  0  0  0  0  0  0  0  0  0  0
  1  2  1  0  0  0  0
  1  3  1  0  0  0  0
  1  4  1  0  0  0  0
  1  5  1  0  0  0  0
  5  6  1  0  0  0  0
  5  7  1  0  0  0  0
  5  8  1  0  0  0  0
  8  9  1  0  0  0  0
  8 10  1  0  0  0  0
  8 11  1  0  0  0  0
 11 12  1  0  0  0  0
 11 13  1  0  0  0  0
 11 14  1  0  0  0  0
 14 15  1  0  0  0  0
 14 16  1  0  0  0  0
 14 17  1  0  0  0  0
 17 18  1  0  0  0  0
 17 19  1  0  0  0  0
 17 20  1  0  0  0  0
 20 21  1  0  0  0  0
 20 22  1  0  0  0  0
 20 23  1  0  0  0  0
M  END
> <VM2 Rank>
8

> <Conf_Id>
132

> <Probability>
3.53

> <Sum Probability>
48.90

> <Delta G>
0.728

> <G>
38.645

> <E>
11.025

> <-TS>
27.619

> <U+W>
-7.754

> <U>
47.562

> <W>
-55.316

> <W(PB)>
-57.472

> <W(SA)>
2.156

> <Valence>
2.273

> <Coulomb>
44.723

> <VdW>
0.566

> <VdW6>
-5.266

> <VdW12>
5.832

> <Bond>
0.151

> <Angle>
0.657

> <Pdih>
1.466

> <Idih>
0.000

> <Tether>
0.000

$$$$
VeraChem MOL file


 23 22  0  0  0  0  0  0  0  0999 V2000     
   20.3275   18.5979   26.1090 N   0  3  0  0  0  0  0  0  0  0  0  0
   20.1571   18.9617   27.0527 H   0  0  0  0  0  0  0  0  0  0  0  0
   21.3344   18.6802   25.9355 H   0  0  0  0  0  0  0  0  0  0  0  0
   20.1060   17.5972   26.1313 H   0  0  0  0  0  0  0  0  0  0  0  0
   19.5115   19.3346   25.0662 C   0  0  0  0  0  0  0  0  0  0  0  0
   19.7757   20.3943   25.1176 H   0  0  0  0  0  0  0  0  0  0  0  0
   18.4553   19.2305   25.3290 H   0  0  0  0  0  0  0  0  0  0  0  0
   19.7437   18.8117   23.6374 C   0  0  0  0  0  0  0  0  0  0  0  0
   20.8092   18.9040   23.3924 H   0  0  0  0  0  0  0  0  0  0  0  0
   19.4923   17.7436   23.5947 H   0  0  0  0  0  0  0  0  0  0  0  0
   18.8903   19.5893   22.6078 C   0  0  0  0  0  0  0  0  0  0  0  0
   19.1765   20.6503   22.6150 H   0  0  0  0  0  0  0  0  0  0  0  0
   17.8367   19.5526   22.9178 H   0  0  0  0  0  0  0  0  0  0  0  0
   18.9975   19.0327   21.1666 C   0  0  0  0  0  0  0  0  0  0  0  0
   18.6950   17.9764   21.1561 H   0  0  0  0  0  0  0  0  0  0  0  0
   18.2750   19.5659   20.5331 H   0  0  0  0  0  0  0  0  0  0  0  0
   20.4089   19.1773   20.5496 C   0  0  0  0  0  0  0  0  0  0  0  0
   21.1360   18.5866   21.1224 H   0  0  0  0  0  0  0  0  0  0  0  0
   20.7336   20.2257   20.6070 H   0  0  0  0  0  0  0  0  0  0  0  0
   20.4366   18.7135   19.0776 C   0  0  0  0  0  0  0  0  0  0  0  0
   20.1448   17.6587   18.9907 H   0  0  0  0  0  0  0  0  0  0  0  0
   21.4448   18.8199   18.6566 H   0  0  0  0  0  0  0  0  0  0  0  0
   19.7504   19.3099   18.4622 H   0  0  0  0  0  0  0  0  0  0  0  0
  1  2  1  0  0  0  0
  1  3  1  0  0  0  0
  1  4  1  0  0  0  0
  1  5  1  0  0  0  0
  5  6  1  0  0  0  0
  5  7  1  0  0  0  0
  5  8  1  0  0  0  0
  8  9  1  0  0  0  0
  8 10  1  0  0  0  0
  8 11  1  0  0  0  0
 11 12  1  0  0  0  0
 11 13  1  0  0  0  0
 11 14  1  0  0  0  0
 14 15  1  0  0  0  0
 14 16  1  0  0  0  0
 14 17  1  0  0  0  0
 17 18  1  0  0  0  0
 17 19  1  0  0  0  0
 17 20  1  0  0  0  0
 20 21  1  0  0  0  0
 20 22  1  0  0  0  0
 20 23  1  0  0  0  0
M  END
> <VM2 Rank>
9

> <Conf_Id>
549

> <Probability>
3.48

> <Sum Probability>
52.38

> <Delta G>
0.737

> <G>
38.653

> <E>
11.034

> <-TS>
27.619

> <U+W>
-7.745

> <U>
47.562

> <W>
-55.306

> <W(PB)>
-57.451

> <W(SA)>
2.144

> <Valence>
2.273

> <Coulomb>
44.723

> <VdW>
0.566

> <VdW6>
-5.266

> <VdW12>
5.832

> <Bond>
0.151

> <Angle>
0.657

> <Pdih>
1.466

> <Idih>
0.000

> <Tether>
0.000

$$$$
VeraChem MOL file


 23 22  0  0  0  0  0  0  0  0999 V2000     
   19.8855   19.9737   25.5967 N   0  3  0  0  0  0  0  0  0  0  0  0
   18.8992   20.1672   25.7980 H   0  0  0  0  0  0  0  0  0  0  0  0
   20.1932   20.6604   24.9014 H   0  0  0  0  0  0  0  0  0  0  0  0
   20.4091   20.1640   26.4578 H   0  0  0  0  0  0  0  0  0  0  0  0
   20.0939   18.5515   25.1139 C   0  0  0  0  0  0  0  0  0  0  0  0
   19.7831   17.8795   25.9185 H   0  0  0  0  0  0  0  0  0  0  0  0
   21.1636   18.4048   24.9418 H   0  0  0  0  0  0  0  0  0  0  0  0
   19.3105   18.2095   23.8317 C   0  0  0  0  0  0  0  0  0  0  0  0
   19.4438   17.1406   23.6179 H   0  0  0  0  0  0  0  0  0  0  0  0
   18.2372   18.3625   24.0065 H   0  0  0  0  0  0  0  0  0  0  0  0
   19.7730   19.0375   22.6092 C   0  0  0  0  0  0  0  0  0  0  0  0
   20.8540   18.9012   22.4726 H   0  0  0  0  0  0  0  0  0  0  0  0
   19.6058   20.1063   22.7972 H   0  0  0  0  0  0  0  0  0  0  0  0
   19.0229   18.6235   21.3204 C   0  0  0  0  0  0  0  0  0  0  0  0
   19.2309   17.5689   21.0924 H   0  0  0  0  0  0  0  0  0  0  0  0
   17.9406   18.6936   21.4970 H   0  0  0  0  0  0  0  0  0  0  0  0
   19.3776   19.4967   20.0924 C   0  0  0  0  0  0  0  0  0  0  0  0
   19.1489   20.5500   20.3066 H   0  0  0  0  0  0  0  0  0  0  0  0
   18.7290   19.2061   19.2541 H   0  0  0  0  0  0  0  0  0  0  0  0
   20.8526   19.3646   19.6497 C   0  0  0  0  0  0  0  0  0  0  0  0
   21.1149   18.3161   19.4576 H   0  0  0  0  0  0  0  0  0  0  0  0
   21.5388   19.7574   20.4102 H   0  0  0  0  0  0  0  0  0  0  0  0
   21.0280   19.9291   18.7247 H   0  0  0  0  0  0  0  0  0  0  0  0
  1  2  1  0  0  0  0
  1  3  1  0  0  0  0
  1  4  1  0  0  0  0
  1  5  1  0  0  0  0
  5  6  1  0  0  0  0
  5  7  1  0  0  0  0
  5  8  1  0  0  0  0
  8  9  1  0  0  0  0
  8 10  1  0  0  0  0
  8 11  1  0  0  0  0
 11 12  1  0  0  0  0
 11 13  1  0  0  0  0
 11 14  1  0  0  0  0
 14 15  1  0  0  0  0
 14 16  1  0  0  0  0
 14 17  1  0  0  0  0
 17 18  1  0  0  0  0
 17 19  1  0  0  0  0
 17 20  1  0  0  0  0
 20 21  1  0  0  0  0
 20 22  1  0  0  0  0
 20 23  1  0  0  0  0
M  END
> <VM2 Rank>
10

> <Conf_Id>
860

> <Probability>
2.73

> <Sum Probability>
55.11

> <Delta G>
0.881

> <G>
38.798

> <E>
11.064

> <-TS>
27.734

> <U+W>
-7.716

> <U>
47.955

> <W>
-55.671

> <W(PB)>
-57.791

> <W(SA)>
2.120

> <Valence>
2.340

> <Coulomb>
44.939

> <VdW>
0.677

> <VdW6>
-5.763

> <VdW12>
6.440

> <Bond>
0.168

> <Angle>
0.673

> <Pdih>
1.499

> <Idih>
0.000

> <Tether>
0.000

$$$$
VeraChem MOL file


 23 22  0  0  0  0  0  0  0  0999 V2000     
   19.1467   17.8994   25.3647 N   0  3  0  0  0  0  0  0  0  0  0  0
   19.9694   17.2933   25.4455 H   0  0  0  0  0  0  0  0  0  0  0  0
   18.5889   17.5504   24.5795 H   0  0  0  0  0  0  0  0  0  0  0  0
   18.5885   17.7602   26.2139 H   0  0  0  0  0  0  0  0  0  0  0  0
   19.5339   19.3535   25.1782 C   0  0  0  0  0  0  0  0  0  0  0  0
   20.0874   19.6656   26.0681 H   0  0  0  0  0  0  0  0  0  0  0  0
   18.6160   19.9450   25.1235 H   0  0  0  0  0  0  0  0  0  0  0  0
   20.3935   19.6125   23.9256 C   0  0  0  0  0  0  0  0  0  0  0  0
   20.7075   20.6648   23.9323 H   0  0  0  0  0  0  0  0  0  0  0  0
   21.3110   19.0115   23.9797 H   0  0  0  0  0  0  0  0  0  0  0  0
   19.6389   19.3109   22.6089 C   0  0  0  0  0  0  0  0  0  0  0  0
   18.7095   19.8962   22.5777 H   0  0  0  0  0  0  0  0  0  0  0  0
   19.3516   18.2522   22.5860 H   0  0  0  0  0  0  0  0  0  0  0  0
   20.5001   19.6424   21.3663 C   0  0  0  0  0  0  0  0  0  0  0  0
   20.8380   20.6859   21.4314 H   0  0  0  0  0  0  0  0  0  0  0  0
   21.4078   19.0232   21.3686 H   0  0  0  0  0  0  0  0  0  0  0  0
   19.7488   19.4530   20.0262 C   0  0  0  0  0  0  0  0  0  0  0  0
   20.3910   19.8099   19.2089 H   0  0  0  0  0  0  0  0  0  0  0  0
   18.8511   20.0867   20.0104 H   0  0  0  0  0  0  0  0  0  0  0  0
   19.3541   17.9854   19.7441 C   0  0  0  0  0  0  0  0  0  0  0  0
   20.2306   17.3258   19.7852 H   0  0  0  0  0  0  0  0  0  0  0  0
   18.9111   17.8924   18.7441 H   0  0  0  0  0  0  0  0  0  0  0  0
   18.6142   17.6204   20.4670 H   0  0  0  0  0  0  0  0  0  0  0  0
  1  2  1  0  0  0  0
  1  3  1  0  0  0  0
  1  4  1  0  0  0  0
  1  5  1  0  0  0  0
  5  6  1  0  0  0  0
  5  7  1  0  0  0  0
  5  8  1  0  0  0  0
  8  9  1  0  0  0  0
  8 10  1  0  0  0  0
  8 11  1  0  0  0  0
 11 12  1  0  0  0  0
 11 13  1  0  0  0  0
 11 14  1  0  0  0  0
 14 15  1  0  0  0  0
 14 16  1  0  0  0  0
 14 17  1  0  0  0  0
 17 18  1  0  0  0  0
 17 19  1  0  0  0  0
 17 20  1  0  0  0  0
 20 21  1  0  0  0  0
 20 22  1  0  0  0  0
 20 23  1  0  0  0  0
M  END
> <VM2 Rank>
11

> <Conf_Id>
295

> <Probability>
2.56

> <Sum Probability>
57.66

> <Delta G>
0.920

> <G>
38.837

> <E>
11.108

> <-TS>
27.728

> <U+W>
-7.671

> <U>
48.083

> <W>
-55.754

> <W(PB)>
-57.894

> <W(SA)>
2.140

> <Valence>
2.338

> <Coulomb>
45.069

> <VdW>
0.676

> <VdW6>
-5.773

> <VdW12>
6.449

> <Bond>
0.170

> <Angle>
0.671

> <Pdih>
1.498

> <Idih>
0.000

> <Tether>
0.000

$$$$
VeraChem MOL file


 23 22  0  0  0  0  0  0  0  0999 V2000     
   20.4904   18.7123   25.6759 N   0  3  0  0  0  0  0  0  0  0  0  0
   20.5042   18.8049   26.6973 H   0  0  0  0  0  0  0  0  0  0  0  0
   21.1578   19.3950   25.3044 H   0  0  0  0  0  0  0  0  0  0  0  0
   20.8555   17.7803   25.4555 H   0  0  0  0  0  0  0  0  0  0  0  0
   19.0989   18.9210   25.1108 C   0  0  0  0  0  0  0  0  0  0  0  0
   18.7606   19.9191   25.4020 H   0  0  0  0  0  0  0  0  0  0  0  0
   18.4370   18.1871   25.5787 H   0  0  0  0  0  0  0  0  0  0  0  0
   19.0233   18.7743   23.5787 C   0  0  0  0  0  0  0  0  0  0  0  0
   19.3618   17.7690   23.2978 H   0  0  0  0  0  0  0  0  0  0  0  0
   17.9710   18.8492   23.2740 H   0  0  0  0  0  0  0  0  0  0  0  0
   19.8512   19.8529   22.8362 C   0  0  0  0  0  0  0  0  0  0  0  0
   20.9188   19.7311   23.0631 H   0  0  0  0  0  0  0  0  0  0  0  0
   19.5654   20.8445   23.2141 H   0  0  0  0  0  0  0  0  0  0  0  0
   19.6502   19.8363   21.3009 C   0  0  0  0  0  0  0  0  0  0  0  0
   18.5865   19.9812   21.0667 H   0  0  0  0  0  0  0  0  0  0  0  0
   20.1800   20.6976   20.8709 H   0  0  0  0  0  0  0  0  0  0  0  0
   20.1618   18.5424   20.6242 C   0  0  0  0  0  0  0  0  0  0  0  0
   19.5923   17.6753   20.9843 H   0  0  0  0  0  0  0  0  0  0  0  0
   21.2120   18.3703   20.8983 H   0  0  0  0  0  0  0  0  0  0  0  0
   20.0403   18.6178   19.0873 C   0  0  0  0  0  0  0  0  0  0  0  0
   18.9958   18.7599   18.7806 H   0  0  0  0  0  0  0  0  0  0  0  0
   20.4045   17.6917   18.6238 H   0  0  0  0  0  0  0  0  0  0  0  0
   20.6313   19.4507   18.6845 H   0  0  0  0  0  0  0  0  0  0  0  0
  1  2  1  0  0  0  0
  1  3  1  0  0  0  0
  1  4  1  0  0  0  0
  1  5  1  0  0  0  0
  5  6  1  0  0  0  0
  5  7  1  0  0  0  0
  5  8  1  0  0  0  0
  8  9  1  0  0  0  0
  8 10  1  0  0  0  0
  8 11  1  0  0  0  0
 11 12  1  0  0  0  0
 11 13  1  0  0  0  0
 11 14  1  0  0  0  0
 14 15  1  0  0  0  0
 14 16  1  0  0  0  0
 14 17  1  0  0  0  0
 17 18  1  0  0  0  0
 17 19  1  0  0  0  0
 17 20  1  0  0  0  0
 20 21  1  0  0  0  0
 20 22  1  0  0  0  0
 20 23  1  0  0  0  0
M  END
> <VM2 Rank>
12

> <Conf_Id>
875

> <Probability>
2.46

> <Sum Probability>
60.13

> <Delta G>
0.943

> <G>
38.860

> <E>
11.128

> <-TS>
27.732

> <U+W>
-7.651

> <U>
48.113

> <W>
-55.765

> <W(PB)>
-57.862

> <W(SA)>
2.097

> <Valence>
2.372

> <Coulomb>
45.091

> <VdW>
0.651

> <VdW6>
-5.797

> <VdW12>
6.447

> <Bond>
0.172

> <Angle>
0.675

> <Pdih>
1.524

> <Idih>
0.000

> <Tether>
0.000

$$$$
VeraChem MOL file


 23 22  0  0  0  0  0  0  0  0999 V2000     
   18.7758   19.5126   25.5462 N   0  3  0  0  0  0  0  0  0  0  0  0
   19.3162   20.3403   25.8171 H   0  0  0  0  0  0  0  0  0  0  0  0
   18.2065   19.2487   26.3575 H   0  0  0  0  0  0  0  0  0  0  0  0
   18.1277   19.8022   24.8074 H   0  0  0  0  0  0  0  0  0  0  0  0
   19.6728   18.3765   25.0947 C   0  0  0  0  0  0  0  0  0  0  0  0
   19.0384   17.5218   24.8450 H   0  0  0  0  0  0  0  0  0  0  0  0
   20.3041   18.0958   25.9422 H   0  0  0  0  0  0  0  0  0  0  0  0
   20.5646   18.7306   23.8888 C   0  0  0  0  0  0  0  0  0  0  0  0
   21.1968   19.5923   24.1413 H   0  0  0  0  0  0  0  0  0  0  0  0
   21.2437   17.8885   23.6999 H   0  0  0  0  0  0  0  0  0  0  0  0
   19.7487   19.0274   22.6081 C   0  0  0  0  0  0  0  0  0  0  0  0
   19.0954   19.8942   22.7740 H   0  0  0  0  0  0  0  0  0  0  0  0
   19.0964   18.1709   22.3924 H   0  0  0  0  0  0  0  0  0  0  0  0
   20.6686   19.3075   21.3954 C   0  0  0  0  0  0  0  0  0  0  0  0
   21.3654   20.1170   21.6531 H   0  0  0  0  0  0  0  0  0  0  0  0
   21.2863   18.4232   21.1861 H   0  0  0  0  0  0  0  0  0  0  0  0
   19.8969   19.7125   20.1161 C   0  0  0  0  0  0  0  0  0  0  0  0
   20.6231   19.9933   19.3405 H   0  0  0  0  0  0  0  0  0  0  0  0
   19.2955   20.6110   20.3134 H   0  0  0  0  0  0  0  0  0  0  0  0
   18.9887   18.5899   19.5647 C   0  0  0  0  0  0  0  0  0  0  0  0
   18.1698   18.3571   20.2565 H   0  0  0  0  0  0  0  0  0  0  0  0
   19.5612   17.6704   19.3867 H   0  0  0  0  0  0  0  0  0  0  0  0
   18.5379   18.8942   18.6112 H   0  0  0  0  0  0  0  0  0  0  0  0
  1  2  1  0  0  0  0
  1  3  1  0  0  0  0
  1  4  1  0  0  0  0
  1  5  1  0  0  0  0
  5  6  1  0  0  0  0
  5  7  1  0  0  0  0
  5  8  1  0  0  0  0
  8  9  1  0  0  0  0
  8 10  1  0  0  0  0
  8 11  1  0  0  0  0
 11 12  1  0  0  0  0
 11 13  1  0  0  0  0
 11 14  1  0  0  0  0
 14 15  1  0  0  0  0
 14 16  1  0  0  0  0
 14 17  1  0  0  0  0
 17 18  1  0  0  0  0
 17 19  1  0  0  0  0
 17 20  1  0  0  0  0
 20 21  1  0  0  0  0
 20 22  1  0  0  0  0
 20 23  1  0  0  0  0
M  END
> <VM2 Rank>
13

> <Conf_Id>
906

> <Probability>
2.42

> <Sum Probability>
62.55

> <Delta G>
0.953

> <G>
38.869

> <E>
11.135

> <-TS>
27.734

> <U+W>
-7.644

> <U>
47.955

> <W>
-55.599

> <W(PB)>
-57.739

> <W(SA)>
2.139

> <Valence>
2.340

> <Coulomb>
44.939

> <VdW>
0.676

> <VdW6>
-5.763

> <VdW12>
6.440

> <Bond>
0.168

> <Angle>
0.673

> <Pdih>
1.499

> <Idih>
0.000

> <Tether>
0.000

$$$$
VeraChem MOL file


 23 22  0  0  0  0  0  0  0  0999 V2000     
   20.8034   18.7864   25.2428 N   0  3  0  0  0  0  0  0  0  0  0  0
   20.7406   19.5731   25.8968 H   0  0  0  0  0  0  0  0  0  0  0  0
   21.3966   19.0866   24.4633 H   0  0  0  0  0  0  0  0  0  0  0  0
   21.3022   18.0330   25.7280 H   0  0  0  0  0  0  0  0  0  0  0  0
   19.4353   18.3403   24.7655 C   0  0  0  0  0  0  0  0  0  0  0  0
   18.8717   18.0032   25.6397 H   0  0  0  0  0  0  0  0  0  0  0  0
   19.5709   17.4844   24.0995 H   0  0  0  0  0  0  0  0  0  0  0  0
   18.6410   19.4458   24.0403 C   0  0  0  0  0  0  0  0  0  0  0  0
   17.6472   19.0549   23.7844 H   0  0  0  0  0  0  0  0  0  0  0  0
   18.4719   20.2803   24.7337 H   0  0  0  0  0  0  0  0  0  0  0  0
   19.3265   19.9776   22.7565 C   0  0  0  0  0  0  0  0  0  0  0  0
   20.2844   20.4497   23.0124 H   0  0  0  0  0  0  0  0  0  0  0  0
   18.6994   20.7727   22.3299 H   0  0  0  0  0  0  0  0  0  0  0  0
   19.5519   18.8815   21.6873 C   0  0  0  0  0  0  0  0  0  0  0  0
   20.2159   18.1013   22.0827 H   0  0  0  0  0  0  0  0  0  0  0  0
   18.5947   18.3957   21.4525 H   0  0  0  0  0  0  0  0  0  0  0  0
   20.1658   19.4600   20.3931 C   0  0  0  0  0  0  0  0  0  0  0  0
   21.1232   19.9486   20.6225 H   0  0  0  0  0  0  0  0  0  0  0  0
   19.5044   20.2359   19.9828 H   0  0  0  0  0  0  0  0  0  0  0  0
   20.3920   18.3654   19.3285 C   0  0  0  0  0  0  0  0  0  0  0  0
   19.4461   17.8808   19.0535 H   0  0  0  0  0  0  0  0  0  0  0  0
   21.0780   17.5917   19.6972 H   0  0  0  0  0  0  0  0  0  0  0  0
   20.8276   18.7952   18.4172 H   0  0  0  0  0  0  0  0  0  0  0  0
  1  2  1  0  0  0  0
  1  3  1  0  0  0  0
  1  4  1  0  0  0  0
  1  5  1  0  0  0  0
  5  6  1  0  0  0  0
  5  7  1  0  0  0  0
  5  8  1  0  0  0  0
  8  9  1  0  0  0  0
  8 10  1  0  0  0  0
  8 11  1  0  0  0  0
 11 12  1  0  0  0  0
 11 13  1  0  0  0  0
 11 14  1  0  0  0  0
 14 15  1  0  0  0  0
 14 16  1  0  0  0  0
 14 17  1  0  0  0  0
 17 18  1  0  0  0  0
 17 19  1  0  0  0  0
 17 20  1  0  0  0  0
 20 21  1  0  0  0  0
 20 22  1  0  0  0  0
 20 23  1  0  0  0  0
M  END
> <VM2 Rank>
14

> <Conf_Id>
905

> <Probability>
2.42

> <Sum Probability>
64.97

> <Delta G>
0.953

> <G>
38.870

> <E>
11.067

> <-TS>
27.803

> <U+W>
-7.712

> <U>
48.051

> <W>
-55.764

> <W(PB)>
-57.858

> <W(SA)>
2.094

> <Valence>
2.122

> <Coulomb>
45.428

> <VdW>
0.502

> <VdW6>
-5.941

> <VdW12>
6.443

> <Bond>
0.160

> <Angle>
0.629

> <Pdih>
1.333

> <Idih>
0.000

> <Tether>
0.000

$$$$
VeraChem MOL file


 23 22  0  0  0  0  0  0  0  0999 V2000     
   18.9994   18.0354   25.1602 N   0  3  0  0  0  0  0  0  0  0  0  0
   18.4312   17.8521   24.3276 H   0  0  0  0  0  0  0  0  0  0  0  0
   18.4353   18.6135   25.7913 H   0  0  0  0  0  0  0  0  0  0  0  0
   19.1454   17.1352   25.6294 H   0  0  0  0  0  0  0  0  0  0  0  0
   20.3122   18.7054   24.8055 C   0  0  0  0  0  0  0  0  0  0  0  0
   20.8753   18.0274   24.1590 H   0  0  0  0  0  0  0  0  0  0  0  0
   20.8785   18.8386   25.7313 H   0  0  0  0  0  0  0  0  0  0  0  0
   20.1429   20.0710   24.1088 C   0  0  0  0  0  0  0  0  0  0  0  0
   19.6167   20.7568   24.7860 H   0  0  0  0  0  0  0  0  0  0  0  0
   21.1369   20.5075   23.9436 H   0  0  0  0  0  0  0  0  0  0  0  0
   19.3849   20.0020   22.7591 C   0  0  0  0  0  0  0  0  0  0  0  0
   19.2949   21.0206   22.3570 H   0  0  0  0  0  0  0  0  0  0  0  0
   18.3584   19.6483   22.9246 H   0  0  0  0  0  0  0  0  0  0  0  0
   20.0859   19.1038   21.7117 C   0  0  0  0  0  0  0  0  0  0  0  0
   21.1199   19.4466   21.5676 H   0  0  0  0  0  0  0  0  0  0  0  0
   20.1419   18.0705   22.0794 H   0  0  0  0  0  0  0  0  0  0  0  0
   19.3459   19.1187   20.3558 C   0  0  0  0  0  0  0  0  0  0  0  0
   19.2925   20.1476   19.9730 H   0  0  0  0  0  0  0  0  0  0  0  0
   18.3102   18.7781   20.4943 H   0  0  0  0  0  0  0  0  0  0  0  0
   20.0448   18.2208   19.3128 C   0  0  0  0  0  0  0  0  0  0  0  0
   20.0826   17.1774   19.6521 H   0  0  0  0  0  0  0  0  0  0  0  0
   21.0732   18.5576   19.1278 H   0  0  0  0  0  0  0  0  0  0  0  0
   19.5055   18.2448   18.3570 H   0  0  0  0  0  0  0  0  0  0  0  0
  1  2  1  0  0  0  0
  1  3  1  0  0  0  0
  1  4  1  0  0  0  0
  1  5  1  0  0  0  0
  5  6  1  0  0  0  0
  5  7  1  0  0  0  0
  5  8  1  0  0  0  0
  8  9  1  0  0  0  0
  8 10  1  0  0  0  0
  8 11  1  0  0  0  0
 11 12  1  0  0  0  0
 11 13  1  0  0  0  0
 11 14  1  0  0  0  0
 14 15  1  0  0  0  0
 14 16  1  0  0  0  0
 14 17  1  0  0  0  0
 17 18  1  0  0  0  0
 17 19  1  0  0  0  0
 17 20  1  0  0  0  0
 20 21  1  0  0  0  0
 20 22  1  0  0  0  0
 20 23  1  0  0  0  0
M  END
> <VM2 Rank>
15

> <Conf_Id>
560

> <Probability>
2.42

> <Sum Probability>
67.39

> <Delta G>
0.954

> <G>
38.870

> <E>
11.067

> <-TS>
27.803

> <U+W>
-7.712

> <U>
48.052

> <W>
-55.764

> <W(PB)>
-57.867

> <W(SA)>
2.103

> <Valence>
2.121

> <Coulomb>
45.428

> <VdW>
0.502

> <VdW6>
-5.941

> <VdW12>
6.443

> <Bond>
0.160

> <Angle>
0.629

> <Pdih>
1.333

> <Idih>
0.000

> <Tether>
0.000

$$$$
VeraChem MOL file


 23 22  0  0  0  0  0  0  0  0999 V2000     
   20.7804   18.5789   25.4392 N   0  3  0  0  0  0  0  0  0  0  0  0
   20.6256   17.5663   25.4756 H   0  0  0  0  0  0  0  0  0  0  0  0
   21.2050   18.8485   26.3331 H   0  0  0  0  0  0  0  0  0  0  0  0
   21.4800   18.7527   24.7112 H   0  0  0  0  0  0  0  0  0  0  0  0
   19.4937   19.3368   25.1763 C   0  0  0  0  0  0  0  0  0  0  0  0
   19.7237   20.4057   25.1738 H   0  0  0  0  0  0  0  0  0  0  0  0
   18.8152   19.1367   26.0101 H   0  0  0  0  0  0  0  0  0  0  0  0
   18.8040   18.9515   23.8532 C   0  0  0  0  0  0  0  0  0  0  0  0
   18.5812   17.8762   23.8554 H   0  0  0  0  0  0  0  0  0  0  0  0
   17.8381   19.4713   23.8016 H   0  0  0  0  0  0  0  0  0  0  0  0
   19.6494   19.3153   22.6093 C   0  0  0  0  0  0  0  0  0  0  0  0
   20.6023   18.7727   22.6431 H   0  0  0  0  0  0  0  0  0  0  0  0
   19.8897   20.3873   22.6313 H   0  0  0  0  0  0  0  0  0  0  0  0
   18.9066   18.9793   21.2937 C   0  0  0  0  0  0  0  0  0  0  0  0
   18.7078   17.8997   21.2456 H   0  0  0  0  0  0  0  0  0  0  0  0
   17.9254   19.4740   21.2986 H   0  0  0  0  0  0  0  0  0  0  0  0
   19.6719   19.4209   20.0227 C   0  0  0  0  0  0  0  0  0  0  0  0
   19.8543   20.5041   20.0560 H   0  0  0  0  0  0  0  0  0  0  0  0
   19.0318   19.2442   19.1469 H   0  0  0  0  0  0  0  0  0  0  0  0
   21.0100   18.6743   19.8196 C   0  0  0  0  0  0  0  0  0  0  0  0
   21.7317   18.9176   20.6091 H   0  0  0  0  0  0  0  0  0  0  0  0
   21.4643   18.9546   18.8604 H   0  0  0  0  0  0  0  0  0  0  0  0
   20.8588   17.5870   19.8140 H   0  0  0  0  0  0  0  0  0  0  0  0
  1  2  1  0  0  0  0
  1  3  1  0  0  0  0
  1  4  1  0  0  0  0
  1  5  1  0  0  0  0
  5  6  1  0  0  0  0
  5  7  1  0  0  0  0
  5  8  1  0  0  0  0
  8  9  1  0  0  0  0
  8 10  1  0  0  0  0
  8 11  1  0  0  0  0
 11 12  1  0  0  0  0
 11 13  1  0  0  0  0
 11 14  1  0  0  0  0
 14 15  1  0  0  0  0
 14 16  1  0  0  0  0
 14 17  1  0  0  0  0
 17 18  1  0  0  0  0
 17 19  1  0  0  0  0
 17 20  1  0  0  0  0
 20 21  1  0  0  0  0
 20 22  1  0  0  0  0
 20 23  1  0  0  0  0
M  END
> <VM2 Rank>
16

> <Conf_Id>
727

> <Probability>
2.39

> <Sum Probability>
69.78

> <Delta G>
0.961

> <G>
38.877

> <E>
11.149

> <-TS>
27.728

> <U+W>
-7.630

> <U>
48.083

> <W>
-55.713

> <W(PB)>
-57.843

> <W(SA)>
2.130

> <Valence>
2.338

> <Coulomb>
45.069

> <VdW>
0.676

> <VdW6>
-5.773

> <VdW12>
6.449

> <Bond>
0.170

> <Angle>
0.671

> <Pdih>
1.498

> <Idih>
0.000

> <Tether>
0.000

$$$$
VeraChem MOL file


 23 22  0  0  0  0  0  0  0  0999 V2000     
   19.2379   18.1913   25.6190 N   0  3  0  0  0  0  0  0  0  0  0  0
   19.0834   18.2141   26.6327 H   0  0  0  0  0  0  0  0  0  0  0  0
   19.6586   17.2824   25.4013 H   0  0  0  0  0  0  0  0  0  0  0  0
   18.3148   18.2121   25.1751 H   0  0  0  0  0  0  0  0  0  0  0  0
   20.1104   19.3420   25.1568 C   0  0  0  0  0  0  0  0  0  0  0  0
   21.0584   19.2780   25.6980 H   0  0  0  0  0  0  0  0  0  0  0  0
   19.6185   20.2762   25.4410 H   0  0  0  0  0  0  0  0  0  0  0  0
   20.3861   19.3413   23.6408 C   0  0  0  0  0  0  0  0  0  0  0  0
   21.0951   20.1492   23.4162 H   0  0  0  0  0  0  0  0  0  0  0  0
   20.8822   18.4015   23.3671 H   0  0  0  0  0  0  0  0  0  0  0  0
   19.0988   19.5396   22.8020 C   0  0  0  0  0  0  0  0  0  0  0  0
   18.5677   20.4290   23.1687 H   0  0  0  0  0  0  0  0  0  0  0  0
   18.4184   18.6902   22.9492 H   0  0  0  0  0  0  0  0  0  0  0  0
   19.3705   19.7198   21.2882 C   0  0  0  0  0  0  0  0  0  0  0  0
   18.4221   19.9659   20.7908 H   0  0  0  0  0  0  0  0  0  0  0  0
   20.0324   20.5830   21.1326 H   0  0  0  0  0  0  0  0  0  0  0  0
   19.9805   18.4670   20.6159 C   0  0  0  0  0  0  0  0  0  0  0  0
   19.3442   17.5930   20.8129 H   0  0  0  0  0  0  0  0  0  0  0  0
   20.9663   18.2472   21.0468 H   0  0  0  0  0  0  0  0  0  0  0  0
   20.1317   18.6560   19.0914 C   0  0  0  0  0  0  0  0  0  0  0  0
   20.5680   17.7601   18.6311 H   0  0  0  0  0  0  0  0  0  0  0  0
   20.7878   19.5060   18.8624 H   0  0  0  0  0  0  0  0  0  0  0  0
   19.1584   18.8379   18.6172 H   0  0  0  0  0  0  0  0  0  0  0  0
  1  2  1  0  0  0  0
  1  3  1  0  0  0  0
  1  4  1  0  0  0  0
  1  5  1  0  0  0  0
  5  6  1  0  0  0  0
  5  7  1  0  0  0  0
  5  8  1  0  0  0  0
  8  9  1  0  0  0  0
  8 10  1  0  0  0  0
  8 11  1  0  0  0  0
 11 12  1  0  0  0  0
 11 13  1  0  0  0  0
 11 14  1  0  0  0  0
 14 15  1  0  0  0  0
 14 16  1  0  0  0  0
 14 17  1  0  0  0  0
 17 18  1  0  0  0  0
 17 19  1  0  0  0  0
 17 20  1  0  0  0  0
 20 21  1  0  0  0  0
 20 22  1  0  0  0  0
 20 23  1  0  0  0  0
M  END
> <VM2 Rank>
17

> <Conf_Id>
869

> <Probability>
2.25

> <Sum Probability>
72.03

> <Delta G>
0.997

> <G>
38.914

> <E>
11.182

> <-TS>
27.732

> <U+W>
-7.597

> <U>
48.113

> <W>
-55.710

> <W(PB)>
-57.830

> <W(SA)>
2.119

> <Valence>
2.372

> <Coulomb>
45.091

> <VdW>
0.651

> <VdW6>
-5.797

> <VdW12>
6.447

> <Bond>
0.172

> <Angle>
0.675

> <Pdih>
1.524

> <Idih>
0.000

> <Tether>
0.000

$$$$
VeraChem MOL file


 23 22  0  0  0  0  0  0  0  0999 V2000     
   19.4672   18.5297   25.9104 N   0  3  0  0  0  0  0  0  0  0  0  0
   18.6447   18.0569   25.5240 H   0  0  0  0  0  0  0  0  0  0  0  0
   19.2267   18.8160   26.8655 H   0  0  0  0  0  0  0  0  0  0  0  0
   20.2114   17.8290   25.9873 H   0  0  0  0  0  0  0  0  0  0  0  0
   19.8905   19.7108   25.0588 C   0  0  0  0  0  0  0  0  0  0  0  0
   20.7414   20.1869   25.5538 H   0  0  0  0  0  0  0  0  0  0  0  0
   19.0650   20.4275   25.0372 H   0  0  0  0  0  0  0  0  0  0  0  0
   20.2859   19.3311   23.6184 C   0  0  0  0  0  0  0  0  0  0  0  0
   20.6853   20.2286   23.1303 H   0  0  0  0  0  0  0  0  0  0  0  0
   21.1022   18.5971   23.6443 H   0  0  0  0  0  0  0  0  0  0  0  0
   19.0948   18.7732   22.7991 C   0  0  0  0  0  0  0  0  0  0  0  0
   18.2923   19.5226   22.7554 H   0  0  0  0  0  0  0  0  0  0  0  0
   18.6740   17.9007   23.3159 H   0  0  0  0  0  0  0  0  0  0  0  0
   19.4799   18.3419   21.3623 C   0  0  0  0  0  0  0  0  0  0  0  0
   20.2782   17.5881   21.4053 H   0  0  0  0  0  0  0  0  0  0  0  0
   18.6129   17.8457   20.9046 H   0  0  0  0  0  0  0  0  0  0  0  0
   19.9198   19.5172   20.4571 C   0  0  0  0  0  0  0  0  0  0  0  0
   20.8351   19.9783   20.8508 H   0  0  0  0  0  0  0  0  0  0  0  0
   19.1446   20.2961   20.4571 H   0  0  0  0  0  0  0  0  0  0  0  0
   20.1779   19.0531   19.0078 C   0  0  0  0  0  0  0  0  0  0  0  0
   20.9701   18.2938   18.9718 H   0  0  0  0  0  0  0  0  0  0  0  0
   20.4919   19.8975   18.3805 H   0  0  0  0  0  0  0  0  0  0  0  0
   19.2712   18.6225   18.5631 H   0  0  0  0  0  0  0  0  0  0  0  0
  1  2  1  0  0  0  0
  1  3  1  0  0  0  0
  1  4  1  0  0  0  0
  1  5  1  0  0  0  0
  5  6  1  0  0  0  0
  5  7  1  0  0  0  0
  5  8  1  0  0  0  0
  8  9  1  0  0  0  0
  8 10  1  0  0  0  0
  8 11  1  0  0  0  0
 11 12  1  0  0  0  0
 11 13  1  0  0  0  0
 11 14  1  0  0  0  0
 14 15  1  0  0  0  0
 14 16  1  0  0  0  0
 14 17  1  0  0  0  0
 17 18  1  0  0  0  0
 17 19  1  0  0  0  0
 17 20  1  0  0  0  0
 20 21  1  0  0  0  0
 20 22  1  0  0  0  0
 20 23  1  0  0  0  0
M  END
> <VM2 Rank>
18

> <Conf_Id>
521

> <Probability>
1.98

> <Sum Probability>
74.00

> <Delta G>
1.073

> <G>
38.990

> <E>
11.290

> <-TS>
27.700

> <U+W>
-7.489

> <U>
48.041

> <W>
-55.528

> <W(PB)>
-57.677

> <W(SA)>
2.148

> <Valence>
2.405

> <Coulomb>
44.931

> <VdW>
0.705

> <VdW6>
-5.755

> <VdW12>
6.460

> <Bond>
0.178

> <Angle>
0.724

> <Pdih>
1.504

> <Idih>
0.000

> <Tether>
0.000

$$$$
VeraChem MOL file


 23 22  0  0  0  0  0  0  0  0999 V2000     
   20.0668   18.7790   25.9378 N   0  3  0  0  0  0  0  0  0  0  0  0
   21.0090   19.0400   25.6318 H   0  0  0  0  0  0  0  0  0  0  0  0
   20.0342   17.7554   25.9793 H   0  0  0  0  0  0  0  0  0  0  0  0
   19.9590   19.1206   26.8989 H   0  0  0  0  0  0  0  0  0  0  0  0
   18.9997   19.3404   25.0182 C   0  0  0  0  0  0  0  0  0  0  0  0
   19.0737   20.4311   25.0376 H   0  0  0  0  0  0  0  0  0  0  0  0
   18.0269   19.0580   25.4301 H   0  0  0  0  0  0  0  0  0  0  0  0
   19.1026   18.8390   23.5645 C   0  0  0  0  0  0  0  0  0  0  0  0
   19.0470   17.7425   23.5506 H   0  0  0  0  0  0  0  0  0  0  0  0
   18.2247   19.2054   23.0182 H   0  0  0  0  0  0  0  0  0  0  0  0
   20.3973   19.3149   22.8584 C   0  0  0  0  0  0  0  0  0  0  0  0
   21.2703   18.9805   23.4343 H   0  0  0  0  0  0  0  0  0  0  0  0
   20.4336   20.4132   22.8529 H   0  0  0  0  0  0  0  0  0  0  0  0
   20.5437   18.7843   21.4108 C   0  0  0  0  0  0  0  0  0  0  0  0
   21.5391   19.0628   21.0379 H   0  0  0  0  0  0  0  0  0  0  0  0
   20.5135   17.6860   21.4160 H   0  0  0  0  0  0  0  0  0  0  0  0
   19.4731   19.3313   20.4368 C   0  0  0  0  0  0  0  0  0  0  0  0
   19.4658   20.4297   20.4718 H   0  0  0  0  0  0  0  0  0  0  0  0
   18.4735   18.9960   20.7432 H   0  0  0  0  0  0  0  0  0  0  0  0
   19.7328   18.8679   18.9875 C   0  0  0  0  0  0  0  0  0  0  0  0
   19.7168   17.7726   18.9147 H   0  0  0  0  0  0  0  0  0  0  0  0
   20.7087   19.2202   18.6287 H   0  0  0  0  0  0  0  0  0  0  0  0
   18.9634   19.2618   18.3108 H   0  0  0  0  0  0  0  0  0  0  0  0
  1  2  1  0  0  0  0
  1  3  1  0  0  0  0
  1  4  1  0  0  0  0
  1  5  1  0  0  0  0
  5  6  1  0  0  0  0
  5  7  1  0  0  0  0
  5  8  1  0  0  0  0
  8  9  1  0  0  0  0
  8 10  1  0  0  0  0
  8 11  1  0  0  0  0
 11 12  1  0  0  0  0
 11 13  1  0  0  0  0
 11 14  1  0  0  0  0
 14 15  1  0  0  0  0
 14 16  1  0  0  0  0
 14 17  1  0  0  0  0
 17 18  1  0  0  0  0
 17 19  1  0  0  0  0
 17 20  1  0  0  0  0
 20 21  1  0  0  0  0
 20 22  1  0  0  0  0
 20 23  1  0  0  0  0
M  END
> <VM2 Rank>
19

> <Conf_Id>
558

> <Probability>
1.96

> <Sum Probability>
75.96

> <Delta G>
1.080

> <G>
38.997

> <E>
11.297

> <-TS>
27.700

> <U+W>
-7.482

> <U>
48.041

> <W>
-55.523

> <W(PB)>
-57.654

> <W(SA)>
2.131

> <Valence>
2.405

> <Coulomb>
44.931

> <VdW>
0.705

> <VdW6>
-5.755

> <VdW12>
6.460

> <Bond>
0.178

> <Angle>
0.724

> <Pdih>
1.504

> <Idih>
0.000

> <Tether>
0.000

$$$$
VeraChem MOL file


 23 22  0  0  0  0  0  0  0  0999 V2000     
   19.9816   18.5650   26.0725 N   0  3  0  0  0  0  0  0  0  0  0  0
   20.4512   19.4288   26.3625 H   0  0  0  0  0  0  0  0  0  0  0  0
   20.5038   17.7871   26.4899 H   0  0  0  0  0  0  0  0  0  0  0  0
   19.0527   18.5666   26.5062 H   0  0  0  0  0  0  0  0  0  0  0  0
   19.9011   18.4441   24.5643 C   0  0  0  0  0  0  0  0  0  0  0  0
   19.4178   17.4925   24.3271 H   0  0  0  0  0  0  0  0  0  0  0  0
   20.9221   18.4181   24.1749 H   0  0  0  0  0  0  0  0  0  0  0  0
   19.1218   19.5988   23.9070 C   0  0  0  0  0  0  0  0  0  0  0  0
   18.1119   19.6409   24.3363 H   0  0  0  0  0  0  0  0  0  0  0  0
   19.6056   20.5549   24.1476 H   0  0  0  0  0  0  0  0  0  0  0  0
   19.0091   19.4445   22.3720 C   0  0  0  0  0  0  0  0  0  0  0  0
   18.3743   20.2520   21.9818 H   0  0  0  0  0  0  0  0  0  0  0  0
   18.4925   18.5029   22.1430 H   0  0  0  0  0  0  0  0  0  0  0  0
   20.3834   19.4852   21.6569 C   0  0  0  0  0  0  0  0  0  0  0  0
   20.9285   20.3837   21.9775 H   0  0  0  0  0  0  0  0  0  0  0  0
   20.9947   18.6259   21.9636 H   0  0  0  0  0  0  0  0  0  0  0  0
   20.2715   19.5035   20.1132 C   0  0  0  0  0  0  0  0  0  0  0  0
   21.2763   19.6353   19.6881 H   0  0  0  0  0  0  0  0  0  0  0  0
   19.6857   20.3765   19.7930 H   0  0  0  0  0  0  0  0  0  0  0  0
   19.6477   18.2160   19.5282 C   0  0  0  0  0  0  0  0  0  0  0  0
   20.1999   17.3255   19.8557 H   0  0  0  0  0  0  0  0  0  0  0  0
   19.6724   18.2413   18.4311 H   0  0  0  0  0  0  0  0  0  0  0  0
   18.5996   18.1019   19.8317 H   0  0  0  0  0  0  0  0  0  0  0  0
  1  2  1  0  0  0  0
  1  3  1  0  0  0  0
  1  4  1  0  0  0  0
  1  5  1  0  0  0  0
  5  6  1  0  0  0  0
  5  7  1  0  0  0  0
  5  8  1  0  0  0  0
  8  9  1  0  0  0  0
  8 10  1  0  0  0  0
  8 11  1  0  0  0  0
 11 12  1  0  0  0  0
 11 13  1  0  0  0  0
 11 14  1  0  0  0  0
 14 15  1  0  0  0  0
 14 16  1  0  0  0  0
 14 17  1  0  0  0  0
 17 18  1  0  0  0  0
 17 19  1  0  0  0  0
 17 20  1  0  0  0  0
 20 21  1  0  0  0  0
 20 22  1  0  0  0  0
 20 23  1  0  0  0  0
M  END
> <VM2 Rank>
20

> <Conf_Id>
122

> <Probability>
1.87

> <Sum Probability>
77.83

> <Delta G>
1.108

> <G>
39.025

> <E>
11.287

> <-TS>
27.737

> <U+W>
-7.492

> <U>
47.960

> <W>
-55.452

> <W(PB)>
-57.573

> <W(SA)>
2.121

> <Valence>
2.523

> <Coulomb>
44.824

> <VdW>
0.613

> <VdW6>
-5.844

> <VdW12>
6.458

> <Bond>
0.171

> <Angle>
0.728

> <Pdih>
1.624

> <Idih>
0.000

> <Tether>
0.000

$$$$
VeraChem MOL file


 23 22  0  0  0  0  0  0  0  0999 V2000     
   19.6685   18.4347   26.0582 N   0  3  0  0  0  0  0  0  0  0  0  0
   18.7047   18.7019   26.2829 H   0  0  0  0  0  0  0  0  0  0  0  0
   20.2854   19.0797   26.5624 H   0  0  0  0  0  0  0  0  0  0  0  0
   19.8206   17.5028   26.4587 H   0  0  0  0  0  0  0  0  0  0  0  0
   19.9276   18.4552   24.5655 C   0  0  0  0  0  0  0  0  0  0  0  0
   19.2599   17.7262   24.0992 H   0  0  0  0  0  0  0  0  0  0  0  0
   20.9591   18.1341   24.3973 H   0  0  0  0  0  0  0  0  0  0  0  0
   19.7075   19.8426   23.9337 C   0  0  0  0  0  0  0  0  0  0  0  0
   18.6722   20.1663   24.1051 H   0  0  0  0  0  0  0  0  0  0  0  0
   20.3529   20.5737   24.4384 H   0  0  0  0  0  0  0  0  0  0  0  0
   20.0149   19.8631   22.4178 C   0  0  0  0  0  0  0  0  0  0  0  0
   21.0621   19.5726   22.2601 H   0  0  0  0  0  0  0  0  0  0  0  0
   19.9186   20.8947   22.0521 H   0  0  0  0  0  0  0  0  0  0  0  0
   19.0774   18.9415   21.5973 C   0  0  0  0  0  0  0  0  0  0  0  0
   19.2334   17.8926   21.8833 H   0  0  0  0  0  0  0  0  0  0  0  0
   18.0336   19.1786   21.8456 H   0  0  0  0  0  0  0  0  0  0  0  0
   19.2626   19.0835   20.0672 C   0  0  0  0  0  0  0  0  0  0  0  0
   19.0801   20.1244   19.7654 H   0  0  0  0  0  0  0  0  0  0  0  0
   18.4972   18.4785   19.5614 H   0  0  0  0  0  0  0  0  0  0  0  0
   20.6576   18.6364   19.5742 C   0  0  0  0  0  0  0  0  0  0  0  0
   20.8755   17.6068   19.8864 H   0  0  0  0  0  0  0  0  0  0  0  0
   21.4501   19.2885   19.9616 H   0  0  0  0  0  0  0  0  0  0  0  0
   20.7073   18.6722   18.4782 H   0  0  0  0  0  0  0  0  0  0  0  0
  1  2  1  0  0  0  0
  1  3  1  0  0  0  0
  1  4  1  0  0  0  0
  1  5  1  0  0  0  0
  5  6  1  0  0  0  0
  5  7  1  0  0  0  0
  5  8  1  0  0  0  0
  8  9  1  0  0  0  0
  8 10  1  0  0  0  0
  8 11  1  0  0  0  0
 11 12  1  0  0  0  0
 11 13  1  0  0  0  0
 11 14  1  0  0  0  0
 14 15  1  0  0  0  0
 14 16  1  0  0  0  0
 14 17  1  0  0  0  0
 17 18  1  0  0  0  0
 17 19  1  0  0  0  0
 17 20  1  0  0  0  0
 20 21  1  0  0  0  0
 20 22  1  0  0  0  0
 20 23  1  0  0  0  0
M  END
> <VM2 Rank>
21

> <Conf_Id>
722

> <Probability>
1.86

> <Sum Probability>
79.69

> <Delta G>
1.111

> <G>
39.027

> <E>
11.290

> <-TS>
27.737

> <U+W>
-7.489

> <U>
47.960

> <W>
-55.449

> <W(PB)>
-57.578

> <W(SA)>
2.129

> <Valence>
2.523

> <Coulomb>
44.824

> <VdW>
0.613

> <VdW6>
-5.845

> <VdW12>
6.458

> <Bond>
0.171

> <Angle>
0.728

> <Pdih>
1.624

> <Idih>
0.000

> <Tether>
0.000

$$$$
VeraChem MOL file


 23 22  0  0  0  0  0  0  0  0999 V2000     
   19.9354   19.0089   26.1816 N   0  3  0  0  0  0  0  0  0  0  0  0
   19.0999   18.5651   26.5763 H   0  0  0  0  0  0  0  0  0  0  0  0
   20.1654   19.8033   26.7883 H   0  0  0  0  0  0  0  0  0  0  0  0
   20.7037   18.3358   26.2681 H   0  0  0  0  0  0  0  0  0  0  0  0
   19.7211   19.4410   24.7452 C   0  0  0  0  0  0  0  0  0  0  0  0
   20.6363   19.9306   24.4029 H   0  0  0  0  0  0  0  0  0  0  0  0
   18.9115   20.1757   24.7310 H   0  0  0  0  0  0  0  0  0  0  0  0
   19.3734   18.2688   23.8081 C   0  0  0  0  0  0  0  0  0  0  0  0
   20.1868   17.5311   23.8211 H   0  0  0  0  0  0  0  0  0  0  0  0
   18.4800   17.7579   24.1912 H   0  0  0  0  0  0  0  0  0  0  0  0
   19.1057   18.7221   22.3533 C   0  0  0  0  0  0  0  0  0  0  0  0
   18.2850   19.4526   22.3424 H   0  0  0  0  0  0  0  0  0  0  0  0
   18.7563   17.8526   21.7817 H   0  0  0  0  0  0  0  0  0  0  0  0
   20.3555   19.3284   21.6655 C   0  0  0  0  0  0  0  0  0  0  0  0
   20.7189   20.1830   22.2512 H   0  0  0  0  0  0  0  0  0  0  0  0
   21.1692   18.5902   21.6583 H   0  0  0  0  0  0  0  0  0  0  0  0
   20.0880   19.8150   20.2204 C   0  0  0  0  0  0  0  0  0  0  0  0
   20.9846   20.3329   19.8520 H   0  0  0  0  0  0  0  0  0  0  0  0
   19.2815   20.5616   20.2227 H   0  0  0  0  0  0  0  0  0  0  0  0
   19.7369   18.6728   19.2398 C   0  0  0  0  0  0  0  0  0  0  0  0
   20.5129   17.8964   19.2436 H   0  0  0  0  0  0  0  0  0  0  0  0
   19.6536   19.0585   18.2155 H   0  0  0  0  0  0  0  0  0  0  0  0
   18.7785   18.2031   19.4931 H   0  0  0  0  0  0  0  0  0  0  0  0
  1  2  1  0  0  0  0
  1  3  1  0  0  0  0
  1  4  1  0  0  0  0
  1  5  1  0  0  0  0
  5  6  1  0  0  0  0
  5  7  1  0  0  0  0
  5  8  1  0  0  0  0
  8  9  1  0  0  0  0
  8 10  1  0  0  0  0
  8 11  1  0  0  0  0
 11 12  1  0  0  0  0
 11 13  1  0  0  0  0
 11 14  1  0  0  0  0
 14 15  1  0  0  0  0
 14 16  1  0  0  0  0
 14 17  1  0  0  0  0
 17 18  1  0  0  0  0
 17 19  1  0  0  0  0
 17 20  1  0  0  0  0
 20 21  1  0  0  0  0
 20 22  1  0  0  0  0
 20 23  1  0  0  0  0
M  END
> <VM2 Rank>
22

> <Conf_Id>
372

> <Probability>
1.72

> <Sum Probability>
81.40

> <Delta G>
1.157

> <G>
39.074

> <E>
11.369

> <-TS>
27.705

> <U+W>
-7.410

> <U>
48.047

> <W>
-55.457

> <W(PB)>
-57.596

> <W(SA)>
2.138

> <Valence>
2.583

> <Coulomb>
44.791

> <VdW>
0.673

> <VdW6>
-5.789

> <VdW12>
6.462

> <Bond>
0.177

> <Angle>
0.787

> <Pdih>
1.619

> <Idih>
0.000

> <Tether>
0.000

$$$$
VeraChem MOL file


 23 22  0  0  0  0  0  0  0  0999 V2000     
   19.9327   17.9511   25.5930 N   0  3  0  0  0  0  0  0  0  0  0  0
   19.3933   17.1296   25.3016 H   0  0  0  0  0  0  0  0  0  0  0  0
   19.3983   18.4153   26.3344 H   0  0  0  0  0  0  0  0  0  0  0  0
   20.7970   17.6034   26.0221 H   0  0  0  0  0  0  0  0  0  0  0  0
   20.2158   18.8829   24.4323 C   0  0  0  0  0  0  0  0  0  0  0  0
   20.8107   18.3335   23.6981 H   0  0  0  0  0  0  0  0  0  0  0  0
   20.8153   19.7169   24.8069 H   0  0  0  0  0  0  0  0  0  0  0  0
   18.9368   19.4228   23.7653 C   0  0  0  0  0  0  0  0  0  0  0  0
   18.3290   18.5860   23.3984 H   0  0  0  0  0  0  0  0  0  0  0  0
   18.3276   19.9364   24.5209 H   0  0  0  0  0  0  0  0  0  0  0  0
   19.2345   20.4103   22.6094 C   0  0  0  0  0  0  0  0  0  0  0  0
   19.7239   21.3033   23.0222 H   0  0  0  0  0  0  0  0  0  0  0  0
   18.2831   20.7577   22.1833 H   0  0  0  0  0  0  0  0  0  0  0  0
   20.1213   19.8383   21.4730 C   0  0  0  0  0  0  0  0  0  0  0  0
   20.2845   20.6309   20.7298 H   0  0  0  0  0  0  0  0  0  0  0  0
   21.1152   19.5824   21.8641 H   0  0  0  0  0  0  0  0  0  0  0  0
   19.5059   18.6070   20.7670 C   0  0  0  0  0  0  0  0  0  0  0  0
   18.4943   18.8496   20.4128 H   0  0  0  0  0  0  0  0  0  0  0  0
   19.4044   17.7750   21.4765 H   0  0  0  0  0  0  0  0  0  0  0  0
   20.3691   18.1446   19.5739 C   0  0  0  0  0  0  0  0  0  0  0  0
   20.4607   18.9385   18.8212 H   0  0  0  0  0  0  0  0  0  0  0  0
   19.9199   17.2694   19.0868 H   0  0  0  0  0  0  0  0  0  0  0  0
   21.3790   17.8662   19.9021 H   0  0  0  0  0  0  0  0  0  0  0  0
  1  2  1  0  0  0  0
  1  3  1  0  0  0  0
  1  4  1  0  0  0  0
  1  5  1  0  0  0  0
  5  6  1  0  0  0  0
  5  7  1  0  0  0  0
  5  8  1  0  0  0  0
  8  9  1  0  0  0  0
  8 10  1  0  0  0  0
  8 11  1  0  0  0  0
 11 12  1  0  0  0  0
 11 13  1  0  0  0  0
 11 14  1  0  0  0  0
 14 15  1  0  0  0  0
 14 16  1  0  0  0  0
 14 17  1  0  0  0  0
 17 18  1  0  0  0  0
 17 19  1  0  0  0  0
 17 20  1  0  0  0  0
 20 21  1  0  0  0  0
 20 22  1  0  0  0  0
 20 23  1  0  0  0  0
M  END
> <VM2 Rank>
23

> <Conf_Id>
500

> <Probability>
1.72

> <Sum Probability>
83.12

> <Delta G>
1.157

> <G>
39.074

> <E>
11.222

> <-TS>
27.852

> <U+W>
-7.558

> <U>
48.231

> <W>
-55.788

> <W(PB)>
-57.904

> <W(SA)>
2.116

> <Valence>
2.496

> <Coulomb>
45.257

> <VdW>
0.478

> <VdW6>
-6.161

> <VdW12>
6.639

> <Bond>
0.180

> <Angle>
0.891

> <Pdih>
1.425

> <Idih>
0.000

> <Tether>
0.000

$$$$
VeraChem MOL file


 23 22  0  0  0  0  0  0  0  0999 V2000     
   20.1746   18.0517   25.6040 N   0  3  0  0  0  0  0  0  0  0  0  0
   20.1634   18.7336   26.3693 H   0  0  0  0  0  0  0  0  0  0  0  0
   21.1575   17.8638   25.3820 H   0  0  0  0  0  0  0  0  0  0  0  0
   19.7810   17.1806   25.9757 H   0  0  0  0  0  0  0  0  0  0  0  0
   19.4061   18.5460   24.3954 C   0  0  0  0  0  0  0  0  0  0  0  0
   18.3657   18.6976   24.6952 H   0  0  0  0  0  0  0  0  0  0  0  0
   19.4347   17.7609   23.6353 H   0  0  0  0  0  0  0  0  0  0  0  0
   19.9731   19.8541   23.8126 C   0  0  0  0  0  0  0  0  0  0  0  0
   19.9783   20.6233   24.5962 H   0  0  0  0  0  0  0  0  0  0  0  0
   21.0207   19.7061   23.5211 H   0  0  0  0  0  0  0  0  0  0  0  0
   19.1546   20.3771   22.6057 C   0  0  0  0  0  0  0  0  0  0  0  0
   19.6093   21.3095   22.2437 H   0  0  0  0  0  0  0  0  0  0  0  0
   18.1468   20.6471   22.9504 H   0  0  0  0  0  0  0  0  0  0  0  0
   19.0254   19.3823   21.4231 C   0  0  0  0  0  0  0  0  0  0  0  0
   18.4787   18.4854   21.7440 H   0  0  0  0  0  0  0  0  0  0  0  0
   18.4072   19.8498   20.6442 H   0  0  0  0  0  0  0  0  0  0  0  0
   20.3839   18.9724   20.8071 C   0  0  0  0  0  0  0  0  0  0  0  0
   20.9894   18.4345   21.5487 H   0  0  0  0  0  0  0  0  0  0  0  0
   20.9496   19.8713   20.5246 H   0  0  0  0  0  0  0  0  0  0  0  0
   20.1982   18.0735   19.5662 C   0  0  0  0  0  0  0  0  0  0  0  0
   19.6611   17.1513   19.8239 H   0  0  0  0  0  0  0  0  0  0  0  0
   21.1709   17.7899   19.1438 H   0  0  0  0  0  0  0  0  0  0  0  0
   19.6300   18.5927   18.7834 H   0  0  0  0  0  0  0  0  0  0  0  0
  1  2  1  0  0  0  0
  1  3  1  0  0  0  0
  1  4  1  0  0  0  0
  1  5  1  0  0  0  0
  5  6  1  0  0  0  0
  5  7  1  0  0  0  0
  5  8  1  0  0  0  0
  8  9  1  0  0  0  0
  8 10  1  0  0  0  0
  8 11  1  0  0  0  0
 11 12  1  0  0  0  0
 11 13  1  0  0  0  0
 11 14  1  0  0  0  0
 14 15  1  0  0  0  0
 14 16  1  0  0  0  0
 14 17  1  0  0  0  0
 17 18  1  0  0  0  0
 17 19  1  0  0  0  0
 17 20  1  0  0  0  0
 20 21  1  0  0  0  0
 20 22  1  0  0  0  0
 20 23  1  0  0  0  0
M  END
> <VM2 Rank>
24

> <Conf_Id>
658

> <Probability>
1.66

> <Sum Probability>
84.78

> <Delta G>
1.179

> <G>
39.096

> <E>
11.243

> <-TS>
27.852

> <U+W>
-7.536

> <U>
48.231

> <W>
-55.766

> <W(PB)>
-57.888

> <W(SA)>
2.121

> <Valence>
2.496

> <Coulomb>
45.257

> <VdW>
0.478

> <VdW6>
-6.161

> <VdW12>
6.639

> <Bond>
0.180

> <Angle>
0.891

> <Pdih>
1.425

> <Idih>
0.000

> <Tether>
0.000

$$$$
VeraChem MOL file


 23 22  0  0  0  0  0  0  0  0999 V2000     
   19.3780   18.7770   26.1562 N   0  3  0  0  0  0  0  0  0  0  0  0
   19.3085   17.7554   26.2045 H   0  0  0  0  0  0  0  0  0  0  0  0
   18.6071   19.1550   26.7173 H   0  0  0  0  0  0  0  0  0  0  0  0
   20.2481   19.0426   26.6286 H   0  0  0  0  0  0  0  0  0  0  0  0
   19.3339   19.2799   24.7276 C   0  0  0  0  0  0  0  0  0  0  0  0
   19.3831   20.3718   24.7525 H   0  0  0  0  0  0  0  0  0  0  0  0
   18.3713   18.9883   24.2997 H   0  0  0  0  0  0  0  0  0  0  0  0
   20.4805   18.7293   23.8586 C   0  0  0  0  0  0  0  0  0  0  0  0
   21.4396   18.9891   24.3261 H   0  0  0  0  0  0  0  0  0  0  0  0
   20.4308   17.6326   23.8322 H   0  0  0  0  0  0  0  0  0  0  0  0
   20.4603   19.2857   22.4151 C   0  0  0  0  0  0  0  0  0  0  0  0
   21.3655   18.9381   21.9006 H   0  0  0  0  0  0  0  0  0  0  0  0
   20.5201   20.3825   22.4443 H   0  0  0  0  0  0  0  0  0  0  0  0
   19.2072   18.8508   21.6131 C   0  0  0  0  0  0  0  0  0  0  0  0
   19.1591   17.7541   21.5667 H   0  0  0  0  0  0  0  0  0  0  0  0
   18.3015   19.1775   22.1410 H   0  0  0  0  0  0  0  0  0  0  0  0
   19.1626   19.4300   20.1782 C   0  0  0  0  0  0  0  0  0  0  0  0
   19.1999   20.5276   20.2189 H   0  0  0  0  0  0  0  0  0  0  0  0
   18.1951   19.1726   19.7249 H   0  0  0  0  0  0  0  0  0  0  0  0
   20.2937   18.9043   19.2652 C   0  0  0  0  0  0  0  0  0  0  0  0
   20.2983   17.8071   19.2339 H   0  0  0  0  0  0  0  0  0  0  0  0
   21.2794   19.2433   19.6070 H   0  0  0  0  0  0  0  0  0  0  0  0
   20.1586   19.2684   18.2385 H   0  0  0  0  0  0  0  0  0  0  0  0
  1  2  1  0  0  0  0
  1  3  1  0  0  0  0
  1  4  1  0  0  0  0
  1  5  1  0  0  0  0
  5  6  1  0  0  0  0
  5  7  1  0  0  0  0
  5  8  1  0  0  0  0
  8  9  1  0  0  0  0
  8 10  1  0  0  0  0
  8 11  1  0  0  0  0
 11 12  1  0  0  0  0
 11 13  1  0  0  0  0
 11 14  1  0  0  0  0
 14 15  1  0  0  0  0
 14 16  1  0  0  0  0
 14 17  1  0  0  0  0
 17 18  1  0  0  0  0
 17 19  1  0  0  0  0
 17 20  1  0  0  0  0
 20 21  1  0  0  0  0
 20 22  1  0  0  0  0
 20 23  1  0  0  0  0
M  END
> <VM2 Rank>
25

> <Conf_Id>
703

> <Probability>
1.64

> <Sum Probability>
86.42

> <Delta G>
1.184

> <G>
39.101

> <E>
11.396

> <-TS>
27.705

> <U+W>
-7.383

> <U>
48.047

> <W>
-55.431

> <W(PB)>
-57.547

> <W(SA)>
2.116

> <Valence>
2.583

> <Coulomb>
44.791

> <VdW>
0.673

> <VdW6>
-5.789

> <VdW12>
6.462

> <Bond>
0.177

> <Angle>
0.787

> <Pdih>
1.619

> <Idih>
0.000

> <Tether>
0.000

$$$$
VeraChem MOL file


 23 22  0  0  0  0  0  0  0  0999 V2000     
   20.0523   18.2281   25.8962 N   0  3  0  0  0  0  0  0  0  0  0  0
   19.1173   17.8497   26.0790 H   0  0  0  0  0  0  0  0  0  0  0  0
   20.4194   18.5616   26.7940 H   0  0  0  0  0  0  0  0  0  0  0  0
   20.6439   17.4432   25.6055 H   0  0  0  0  0  0  0  0  0  0  0  0
   20.0229   19.3298   24.8563 C   0  0  0  0  0  0  0  0  0  0  0  0
   21.0424   19.7052   24.7333 H   0  0  0  0  0  0  0  0  0  0  0  0
   19.4018   20.1423   25.2431 H   0  0  0  0  0  0  0  0  0  0  0  0
   19.4757   18.8620   23.4961 C   0  0  0  0  0  0  0  0  0  0  0  0
   20.0958   18.0354   23.1267 H   0  0  0  0  0  0  0  0  0  0  0  0
   18.4579   18.4712   23.6267 H   0  0  0  0  0  0  0  0  0  0  0  0
   19.4622   20.0166   22.4670 C   0  0  0  0  0  0  0  0  0  0  0  0
   20.4852   20.3819   22.3052 H   0  0  0  0  0  0  0  0  0  0  0  0
   18.9030   20.8634   22.8886 H   0  0  0  0  0  0  0  0  0  0  0  0
   18.8163   19.6319   21.1107 C   0  0  0  0  0  0  0  0  0  0  0  0
   17.7608   19.3765   21.2774 H   0  0  0  0  0  0  0  0  0  0  0  0
   18.8116   20.5167   20.4593 H   0  0  0  0  0  0  0  0  0  0  0  0
   19.5003   18.4611   20.3593 C   0  0  0  0  0  0  0  0  0  0  0  0
   18.9559   18.2824   19.4216 H   0  0  0  0  0  0  0  0  0  0  0  0
   19.4101   17.5330   20.9395 H   0  0  0  0  0  0  0  0  0  0  0  0
   20.9863   18.7274   20.0284 C   0  0  0  0  0  0  0  0  0  0  0  0
   21.3962   17.9126   19.4177 H   0  0  0  0  0  0  0  0  0  0  0  0
   21.5950   18.7960   20.9386 H   0  0  0  0  0  0  0  0  0  0  0  0
   21.1036   19.6618   19.4643 H   0  0  0  0  0  0  0  0  0  0  0  0
  1  2  1  0  0  0  0
  1  3  1  0  0  0  0
  1  4  1  0  0  0  0
  1  5  1  0  0  0  0
  5  6  1  0  0  0  0
  5  7  1  0  0  0  0
  5  8  1  0  0  0  0
  8  9  1  0  0  0  0
  8 10  1  0  0  0  0
  8 11  1  0  0  0  0
 11 12  1  0  0  0  0
 11 13  1  0  0  0  0
 11 14  1  0  0  0  0
 14 15  1  0  0  0  0
 14 16  1  0  0  0  0
 14 17  1  0  0  0  0
 17 18  1  0  0  0  0
 17 19  1  0  0  0  0
 17 20  1  0  0  0  0
 20 21  1  0  0  0  0
 20 22  1  0  0  0  0
 20 23  1  0  0  0  0
M  END
> <VM2 Rank>
26

> <Conf_Id>
517

> <Probability>
1.49

> <Sum Probability>
87.92

> <Delta G>
1.241

> <G>
39.157

> <E>
11.211

> <-TS>
27.946

> <U+W>
-7.568

> <U>
48.054

> <W>
-55.621

> <W(PB)>
-57.725

> <W(SA)>
2.103

> <Valence>
2.692

> <Coulomb>
44.814

> <VdW>
0.547

> <VdW6>
-6.176

> <VdW12>
6.723

> <Bond>
0.192

> <Angle>
1.036

> <Pdih>
1.465

> <Idih>
0.000

> <Tether>
0.000

$$$$
VeraChem MOL file


 23 22  0  0  0  0  0  0  0  0999 V2000     
   19.8710   18.1527   25.8879 N   0  3  0  0  0  0  0  0  0  0  0  0
   19.3076   18.0990   26.7433 H   0  0  0  0  0  0  0  0  0  0  0  0
   20.7810   18.5420   26.1548 H   0  0  0  0  0  0  0  0  0  0  0  0
   20.0341   17.1894   25.5778 H   0  0  0  0  0  0  0  0  0  0  0  0
   19.1922   18.9842   24.8184 C   0  0  0  0  0  0  0  0  0  0  0  0
   19.0228   19.9846   25.2257 H   0  0  0  0  0  0  0  0  0  0  0  0
   18.2204   18.5310   24.6047 H   0  0  0  0  0  0  0  0  0  0  0  0
   20.0129   19.0855   23.5206 C   0  0  0  0  0  0  0  0  0  0  0  0
   20.9939   19.5264   23.7421 H   0  0  0  0  0  0  0  0  0  0  0  0
   20.1917   18.0753   23.1310 H   0  0  0  0  0  0  0  0  0  0  0  0
   19.2846   19.9426   22.4589 C   0  0  0  0  0  0  0  0  0  0  0  0
   19.0447   20.9223   22.8951 H   0  0  0  0  0  0  0  0  0  0  0  0
   18.3205   19.4812   22.2066 H   0  0  0  0  0  0  0  0  0  0  0  0
   20.1154   20.1725   21.1699 C   0  0  0  0  0  0  0  0  0  0  0  0
   19.5426   20.8210   20.4926 H   0  0  0  0  0  0  0  0  0  0  0  0
   21.0241   20.7346   21.4261 H   0  0  0  0  0  0  0  0  0  0  0  0
   20.5228   18.8867   20.4059 C   0  0  0  0  0  0  0  0  0  0  0  0
   21.1985   18.2773   21.0208 H   0  0  0  0  0  0  0  0  0  0  0  0
   21.1040   19.1765   19.5193 H   0  0  0  0  0  0  0  0  0  0  0  0
   19.3171   18.0327   19.9524 C   0  0  0  0  0  0  0  0  0  0  0  0
   18.6166   18.6268   19.3513 H   0  0  0  0  0  0  0  0  0  0  0  0
   18.7710   17.6206   20.8101 H   0  0  0  0  0  0  0  0  0  0  0  0
   19.6538   17.1876   19.3383 H   0  0  0  0  0  0  0  0  0  0  0  0
  1  2  1  0  0  0  0
  1  3  1  0  0  0  0
  1  4  1  0  0  0  0
  1  5  1  0  0  0  0
  5  6  1  0  0  0  0
  5  7  1  0  0  0  0
  5  8  1  0  0  0  0
  8  9  1  0  0  0  0
  8 10  1  0  0  0  0
  8 11  1  0  0  0  0
 11 12  1  0  0  0  0
 11 13  1  0  0  0  0
 11 14  1  0  0  0  0
 14 15  1  0  0  0  0
 14 16  1  0  0  0  0
 14 17  1  0  0  0  0
 17 18  1  0  0  0  0
 17 19  1  0  0  0  0
 17 20  1  0  0  0  0
 20 21  1  0  0  0  0
 20 22  1  0  0  0  0
 20 23  1  0  0  0  0
M  END
> <VM2 Rank>
27

> <Conf_Id>
364

> <Probability>
1.29

> <Sum Probability>
89.21

> <Delta G>
1.328

> <G>
39.244

> <E>
11.298

> <-TS>
27.946

> <U+W>
-7.481

> <U>
48.054

> <W>
-55.534

> <W(PB)>
-57.639

> <W(SA)>
2.105

> <Valence>
2.692

> <Coulomb>
44.814

> <VdW>
0.547

> <VdW6>
-6.176

> <VdW12>
6.723

> <Bond>
0.192

> <Angle>
1.036

> <Pdih>
1.465

> <Idih>
0.000

> <Tether>
0.000

$$$$
VeraChem MOL file


 23 22  0  0  0  0  0  0  0  0999 V2000     
   19.8770   18.6890   25.7958 N   0  3  0  0  0  0  0  0  0  0  0  0
   20.4449   17.9055   25.4595 H   0  0  0  0  0  0  0  0  0  0  0  0
   18.9391   18.3230   25.9881 H   0  0  0  0  0  0  0  0  0  0  0  0
   20.2736   18.9820   26.6951 H   0  0  0  0  0  0  0  0  0  0  0  0
   19.8431   19.8298   24.7974 C   0  0  0  0  0  0  0  0  0  0  0  0
   20.8663   20.1879   24.6553 H   0  0  0  0  0  0  0  0  0  0  0  0
   19.2576   20.6398   25.2409 H   0  0  0  0  0  0  0  0  0  0  0  0
   19.2334   19.4474   23.4346 C   0  0  0  0  0  0  0  0  0  0  0  0
   18.2127   19.0705   23.5821 H   0  0  0  0  0  0  0  0  0  0  0  0
   19.1479   20.3616   22.8341 H   0  0  0  0  0  0  0  0  0  0  0  0
   20.0825   18.3989   22.6729 C   0  0  0  0  0  0  0  0  0  0  0  0
   20.2002   17.5028   23.2961 H   0  0  0  0  0  0  0  0  0  0  0  0
   21.0961   18.7893   22.5111 H   0  0  0  0  0  0  0  0  0  0  0  0
   19.4614   17.9627   21.3204 C   0  0  0  0  0  0  0  0  0  0  0  0
   20.1007   17.1888   20.8735 H   0  0  0  0  0  0  0  0  0  0  0  0
   18.4938   17.4786   21.5114 H   0  0  0  0  0  0  0  0  0  0  0  0
   19.2556   19.0985   20.2857 C   0  0  0  0  0  0  0  0  0  0  0  0
   18.5189   19.8231   20.6576 H   0  0  0  0  0  0  0  0  0  0  0  0
   18.8167   18.6663   19.3756 H   0  0  0  0  0  0  0  0  0  0  0  0
   20.5630   19.8306   19.9073 C   0  0  0  0  0  0  0  0  0  0  0  0
   21.3225   19.1229   19.5507 H   0  0  0  0  0  0  0  0  0  0  0  0
   20.9781   20.3797   20.7617 H   0  0  0  0  0  0  0  0  0  0  0  0
   20.3786   20.5576   19.1058 H   0  0  0  0  0  0  0  0  0  0  0  0
  1  2  1  0  0  0  0
  1  3  1  0  0  0  0
  1  4  1  0  0  0  0
  1  5  1  0  0  0  0
  5  6  1  0  0  0  0
  5  7  1  0  0  0  0
  5  8  1  0  0  0  0
  8  9  1  0  0  0  0
  8 10  1  0  0  0  0
  8 11  1  0  0  0  0
 11 12  1  0  0  0  0
 11 13  1  0  0  0  0
 11 14  1  0  0  0  0
 14 15  1  0  0  0  0
 14 16  1  0  0  0  0
 14 17  1  0  0  0  0
 17 18  1  0  0  0  0
 17 19  1  0  0  0  0
 17 20  1  0  0  0  0
 20 21  1  0  0  0  0
 20 22  1  0  0  0  0
 20 23  1  0  0  0  0
M  END
> <VM2 Rank>
28

> <Conf_Id>
704

> <Probability>
0.88

> <Sum Probability>
90.09

> <Delta G>
1.558

> <G>
39.474

> <E>
11.436

> <-TS>
28.038

> <U+W>
-7.343

> <U>
48.503

> <W>
-55.846

> <W(PB)>
-57.927

> <W(SA)>
2.081

> <Valence>
2.824

> <Coulomb>
44.990

> <VdW>
0.689

> <VdW6>
-6.667

> <VdW12>
7.356

> <Bond>
0.219

> <Angle>
1.118

> <Pdih>
1.487

> <Idih>
0.000

> <Tether>
0.000

$$$$
VeraChem MOL file


 23 22  0  0  0  0  0  0  0  0999 V2000     
   20.0737   18.1585   25.2941 N   0  3  0  0  0  0  0  0  0  0  0  0
   20.8890   17.7162   25.7316 H   0  0  0  0  0  0  0  0  0  0  0  0
   19.5897   17.4332   24.7563 H   0  0  0  0  0  0  0  0  0  0  0  0
   19.4455   18.4438   26.0520 H   0  0  0  0  0  0  0  0  0  0  0  0
   20.4702   19.3320   24.4200 C   0  0  0  0  0  0  0  0  0  0  0  0
   21.1629   18.9682   23.6566 H   0  0  0  0  0  0  0  0  0  0  0  0
   21.0040   20.0500   25.0485 H   0  0  0  0  0  0  0  0  0  0  0  0
   19.2733   20.0321   23.7454 C   0  0  0  0  0  0  0  0  0  0  0  0
   18.6024   20.4235   24.5215 H   0  0  0  0  0  0  0  0  0  0  0  0
   19.6394   20.9094   23.1969 H   0  0  0  0  0  0  0  0  0  0  0  0
   18.4657   19.1169   22.7876 C   0  0  0  0  0  0  0  0  0  0  0  0
   17.6633   19.7085   22.3257 H   0  0  0  0  0  0  0  0  0  0  0  0
   17.9598   18.3373   23.3728 H   0  0  0  0  0  0  0  0  0  0  0  0
   19.3023   18.4404   21.6708 C   0  0  0  0  0  0  0  0  0  0  0  0
   20.0507   17.7700   22.1140 H   0  0  0  0  0  0  0  0  0  0  0  0
   18.6348   17.7991   21.0787 H   0  0  0  0  0  0  0  0  0  0  0  0
   19.9998   19.4469   20.7256 C   0  0  0  0  0  0  0  0  0  0  0  0
   20.7254   20.0520   21.2853 H   0  0  0  0  0  0  0  0  0  0  0  0
   19.2569   20.1425   20.3110 H   0  0  0  0  0  0  0  0  0  0  0  0
   20.7309   18.7302   19.5705 C   0  0  0  0  0  0  0  0  0  0  0  0
   21.5018   18.0491   19.9538 H   0  0  0  0  0  0  0  0  0  0  0  0
   21.2218   19.4581   18.9116 H   0  0  0  0  0  0  0  0  0  0  0  0
   20.0295   18.1448   18.9617 H   0  0  0  0  0  0  0  0  0  0  0  0
  1  2  1  0  0  0  0
  1  3  1  0  0  0  0
  1  4  1  0  0  0  0
  1  5  1  0  0  0  0
  5  6  1  0  0  0  0
  5  7  1  0  0  0  0
  5  8  1  0  0  0  0
  8  9  1  0  0  0  0
  8 10  1  0  0  0  0
  8 11  1  0  0  0  0
 11 12  1  0  0  0  0
 11 13  1  0  0  0  0
 11 14  1  0  0  0  0
 14 15  1  0  0  0  0
 14 16  1  0  0  0  0
 14 17  1  0  0  0  0
 17 18  1  0  0  0  0
 17 19  1  0  0  0  0
 17 20  1  0  0  0  0
 20 21  1  0  0  0  0
 20 22  1  0  0  0  0
 20 23  1  0  0  0  0
M  END
> <VM2 Rank>
29

> <Conf_Id>
76

> <Probability>
0.83

> <Sum Probability>
90.92

> <Delta G>
1.591

> <G>
39.507

> <E>
11.447

> <-TS>
28.060

> <U+W>
-7.332

> <U>
48.590

> <W>
-55.922

> <W(PB)>
-58.013

> <W(SA)>
2.090

> <Valence>
2.601

> <Coulomb>
45.520

> <VdW>
0.469

> <VdW6>
-6.867

> <VdW12>
7.336

> <Bond>
0.205

> <Angle>
0.962

> <Pdih>
1.434

> <Idih>
0.000

> <Tether>
0.000

$$$$
VeraChem MOL file


 23 22  0  0  0  0  0  0  0  0999 V2000     
   20.2298   19.8411   25.3501 N   0  3  0  0  0  0  0  0  0  0  0  0
   20.9559   19.2918   25.8208 H   0  0  0  0  0  0  0  0  0  0  0  0
   19.9043   20.5446   26.0216 H   0  0  0  0  0  0  0  0  0  0  0  0
   20.6816   20.3455   24.5812 H   0  0  0  0  0  0  0  0  0  0  0  0
   19.0945   18.9669   24.8550 C   0  0  0  0  0  0  0  0  0  0  0  0
   18.3445   19.6141   24.3935 H   0  0  0  0  0  0  0  0  0  0  0  0
   18.6385   18.4889   25.7263 H   0  0  0  0  0  0  0  0  0  0  0  0
   19.5388   17.8828   23.8517 C   0  0  0  0  0  0  0  0  0  0  0  0
   20.2526   17.2098   24.3450 H   0  0  0  0  0  0  0  0  0  0  0  0
   18.6683   17.2664   23.5907 H   0  0  0  0  0  0  0  0  0  0  0  0
   20.1762   18.4413   22.5542 C   0  0  0  0  0  0  0  0  0  0  0  0
   20.4901   17.5901   21.9363 H   0  0  0  0  0  0  0  0  0  0  0  0
   21.0917   18.9971   22.7964 H   0  0  0  0  0  0  0  0  0  0  0  0
   19.2137   19.3443   21.7414 C   0  0  0  0  0  0  0  0  0  0  0  0
   18.3102   18.7781   21.4762 H   0  0  0  0  0  0  0  0  0  0  0  0
   18.8802   20.1829   22.3665 H   0  0  0  0  0  0  0  0  0  0  0  0
   19.8527   19.9270   20.4574 C   0  0  0  0  0  0  0  0  0  0  0  0
   20.7513   20.5037   20.7176 H   0  0  0  0  0  0  0  0  0  0  0  0
   19.1491   20.6416   20.0077 H   0  0  0  0  0  0  0  0  0  0  0  0
   20.2103   18.8536   19.4043 C   0  0  0  0  0  0  0  0  0  0  0  0
   21.0056   18.1873   19.7603 H   0  0  0  0  0  0  0  0  0  0  0  0
   20.5666   19.3265   18.4800 H   0  0  0  0  0  0  0  0  0  0  0  0
   19.3350   18.2411   19.1515 H   0  0  0  0  0  0  0  0  0  0  0  0
  1  2  1  0  0  0  0
  1  3  1  0  0  0  0
  1  4  1  0  0  0  0
  1  5  1  0  0  0  0
  5  6  1  0  0  0  0
  5  7  1  0  0  0  0
  5  8  1  0  0  0  0
  8  9  1  0  0  0  0
  8 10  1  0  0  0  0
  8 11  1  0  0  0  0
 11 12  1  0  0  0  0
 11 13  1  0  0  0  0
 11 14  1  0  0  0  0
 14 15  1  0  0  0  0
 14 16  1  0  0  0  0
 14 17  1  0  0  0  0
 17 18  1  0  0  0  0
 17 19  1  0  0  0  0
 17 20  1  0  0  0  0
 20 21  1  0  0  0  0
 20 22  1  0  0  0  0
 20 23  1  0  0  0  0
M  END
> <VM2 Rank>
30

> <Conf_Id>
441

> <Probability>
0.82

> <Sum Probability>
91.74

> <Delta G>
1.598

> <G>
39.515

> <E>
11.625

> <-TS>
27.890

> <U+W>
-7.154

> <U>
48.727

> <W>
-55.881

> <W(PB)>
-57.962

> <W(SA)>
2.081

> <Valence>
2.671

> <Coulomb>
45.371

> <VdW>
0.684

> <VdW6>
-6.511

> <VdW12>
7.196

> <Bond>
0.203

> <Angle>
0.915

> <Pdih>
1.554

> <Idih>
0.000

> <Tether>
0.000

$$$$
VeraChem MOL file


 23 22  0  0  0  0  0  0  0  0999 V2000     
   20.3539   17.8787   24.9470 N   0  3  0  0  0  0  0  0  0  0  0  0
   21.1939   17.7173   25.5129 H   0  0  0  0  0  0  0  0  0  0  0  0
   20.5215   17.4522   24.0307 H   0  0  0  0  0  0  0  0  0  0  0  0
   19.5904   17.3575   25.3897 H   0  0  0  0  0  0  0  0  0  0  0  0
   20.0314   19.3551   24.8258 C   0  0  0  0  0  0  0  0  0  0  0  0
   20.8938   19.8547   24.3771 H   0  0  0  0  0  0  0  0  0  0  0  0
   19.8985   19.7509   25.8363 H   0  0  0  0  0  0  0  0  0  0  0  0
   18.7673   19.6468   23.9916 C   0  0  0  0  0  0  0  0  0  0  0  0
   17.9002   19.1798   24.4772 H   0  0  0  0  0  0  0  0  0  0  0  0
   18.5790   20.7286   24.0045 H   0  0  0  0  0  0  0  0  0  0  0  0
   18.8559   19.1609   22.5231 C   0  0  0  0  0  0  0  0  0  0  0  0
   17.9094   19.3983   22.0182 H   0  0  0  0  0  0  0  0  0  0  0  0
   18.9468   18.0675   22.5042 H   0  0  0  0  0  0  0  0  0  0  0  0
   20.0257   19.8081   21.7394 C   0  0  0  0  0  0  0  0  0  0  0  0
   19.9646   20.9004   21.8419 H   0  0  0  0  0  0  0  0  0  0  0  0
   20.9871   19.5094   22.1781 H   0  0  0  0  0  0  0  0  0  0  0  0
   20.0244   19.4549   20.2325 C   0  0  0  0  0  0  0  0  0  0  0  0
   20.8142   20.0340   19.7338 H   0  0  0  0  0  0  0  0  0  0  0  0
   19.0763   19.7728   19.7766 H   0  0  0  0  0  0  0  0  0  0  0  0
   20.2573   17.9524   19.9545 C   0  0  0  0  0  0  0  0  0  0  0  0
   21.1867   17.6034   20.4227 H   0  0  0  0  0  0  0  0  0  0  0  0
   20.3366   17.7696   18.8751 H   0  0  0  0  0  0  0  0  0  0  0  0
   19.4297   17.3393   20.3322 H   0  0  0  0  0  0  0  0  0  0  0  0
  1  2  1  0  0  0  0
  1  3  1  0  0  0  0
  1  4  1  0  0  0  0
  1  5  1  0  0  0  0
  5  6  1  0  0  0  0
  5  7  1  0  0  0  0
  5  8  1  0  0  0  0
  8  9  1  0  0  0  0
  8 10  1  0  0  0  0
  8 11  1  0  0  0  0
 11 12  1  0  0  0  0
 11 13  1  0  0  0  0
 11 14  1  0  0  0  0
 14 15  1  0  0  0  0
 14 16  1  0  0  0  0
 14 17  1  0  0  0  0
 17 18  1  0  0  0  0
 17 19  1  0  0  0  0
 17 20  1  0  0  0  0
 20 21  1  0  0  0  0
 20 22  1  0  0  0  0
 20 23  1  0  0  0  0
M  END
> <VM2 Rank>
31

> <Conf_Id>
158

> <Probability>
0.82

> <Sum Probability>
92.55

> <Delta G>
1.602

> <G>
39.518

> <E>
11.589

> <-TS>
27.929

> <U+W>
-7.190

> <U>
48.775

> <W>
-55.965

> <W(PB)>
-58.038

> <W(SA)>
2.073

> <Valence>
2.602

> <Coulomb>
45.581

> <VdW>
0.592

> <VdW6>
-6.616

> <VdW12>
7.208

> <Bond>
0.196

> <Angle>
0.832

> <Pdih>
1.574

> <Idih>
0.000

> <Tether>
0.000

$$$$
VeraChem MOL file


 23 22  0  0  0  0  0  0  0  0999 V2000     
   18.6464   19.1819   25.2779 N   0  3  0  0  0  0  0  0  0  0  0  0
   18.3243   19.8869   25.9496 H   0  0  0  0  0  0  0  0  0  0  0  0
   18.4897   18.2651   25.7084 H   0  0  0  0  0  0  0  0  0  0  0  0
   18.0319   19.2423   24.4604 H   0  0  0  0  0  0  0  0  0  0  0  0
   20.1006   19.3858   24.9009 C   0  0  0  0  0  0  0  0  0  0  0  0
   20.6915   19.3437   25.8199 H   0  0  0  0  0  0  0  0  0  0  0  0
   20.2041   20.3883   24.4782 H   0  0  0  0  0  0  0  0  0  0  0  0
   20.6347   18.3391   23.9016 C   0  0  0  0  0  0  0  0  0  0  0  0
   21.7023   18.5295   23.7290 H   0  0  0  0  0  0  0  0  0  0  0  0
   20.5724   17.3430   24.3596 H   0  0  0  0  0  0  0  0  0  0  0  0
   19.8926   18.3232   22.5412 C   0  0  0  0  0  0  0  0  0  0  0  0
   18.8378   18.0587   22.6936 H   0  0  0  0  0  0  0  0  0  0  0  0
   20.3234   17.5206   21.9287 H   0  0  0  0  0  0  0  0  0  0  0  0
   19.9912   19.6679   21.7768 C   0  0  0  0  0  0  0  0  0  0  0  0
   19.5826   20.4753   22.3985 H   0  0  0  0  0  0  0  0  0  0  0  0
   21.0467   19.9173   21.6009 H   0  0  0  0  0  0  0  0  0  0  0  0
   19.2297   19.6677   20.4290 C   0  0  0  0  0  0  0  0  0  0  0  0
   19.2519   20.6844   20.0124 H   0  0  0  0  0  0  0  0  0  0  0  0
   18.1705   19.4294   20.6000 H   0  0  0  0  0  0  0  0  0  0  0  0
   19.8208   18.6914   19.3865 C   0  0  0  0  0  0  0  0  0  0  0  0
   19.7072   17.6468   19.7011 H   0  0  0  0  0  0  0  0  0  0  0  0
   20.8883   18.8877   19.2223 H   0  0  0  0  0  0  0  0  0  0  0  0
   19.3075   18.8023   18.4226 H   0  0  0  0  0  0  0  0  0  0  0  0
  1  2  1  0  0  0  0
  1  3  1  0  0  0  0
  1  4  1  0  0  0  0
  1  5  1  0  0  0  0
  5  6  1  0  0  0  0
  5  7  1  0  0  0  0
  5  8  1  0  0  0  0
  8  9  1  0  0  0  0
  8 10  1  0  0  0  0
  8 11  1  0  0  0  0
 11 12  1  0  0  0  0
 11 13  1  0  0  0  0
 11 14  1  0  0  0  0
 14 15  1  0  0  0  0
 14 16  1  0  0  0  0
 14 17  1  0  0  0  0
 17 18  1  0  0  0  0
 17 19  1  0  0  0  0
 17 20  1  0  0  0  0
 20 21  1  0  0  0  0
 20 22  1  0  0  0  0
 20 23  1  0  0  0  0
M  END
> <VM2 Rank>
32

> <Conf_Id>
824

> <Probability>
0.79

> <Sum Probability>
93.34

> <Delta G>
1.621

> <G>
39.538

> <E>
11.647

> <-TS>
27.891

> <U+W>
-7.132

> <U>
48.727

> <W>
-55.859

> <W(PB)>
-57.939

> <W(SA)>
2.080

> <Valence>
2.672

> <Coulomb>
45.371

> <VdW>
0.684

> <VdW6>
-6.511

> <VdW12>
7.196

> <Bond>
0.203

> <Angle>
0.915

> <Pdih>
1.554

> <Idih>
0.000

> <Tether>
0.000

$$$$
VeraChem MOL file


 23 22  0  0  0  0  0  0  0  0999 V2000     
   19.9516   18.1078   25.2886 N   0  3  0  0  0  0  0  0  0  0  0  0
   20.8467   17.9563   24.8139 H   0  0  0  0  0  0  0  0  0  0  0  0
   19.6586   17.2044   25.6755 H   0  0  0  0  0  0  0  0  0  0  0  0
   20.1316   18.7294   26.0835 H   0  0  0  0  0  0  0  0  0  0  0  0
   18.9105   18.6831   24.3488 C   0  0  0  0  0  0  0  0  0  0  0  0
   17.9785   18.7914   24.9103 H   0  0  0  0  0  0  0  0  0  0  0  0
   18.7412   17.9607   23.5461 H   0  0  0  0  0  0  0  0  0  0  0  0
   19.3073   20.0462   23.7469 C   0  0  0  0  0  0  0  0  0  0  0  0
   18.4718   20.4237   23.1437 H   0  0  0  0  0  0  0  0  0  0  0  0
   19.4410   20.7723   24.5597 H   0  0  0  0  0  0  0  0  0  0  0  0
   20.5964   20.0032   22.8847 C   0  0  0  0  0  0  0  0  0  0  0  0
   21.4581   19.7925   23.5323 H   0  0  0  0  0  0  0  0  0  0  0  0
   20.7768   21.0036   22.4676 H   0  0  0  0  0  0  0  0  0  0  0  0
   20.5748   18.9697   21.7288 C   0  0  0  0  0  0  0  0  0  0  0  0
   21.5432   19.0090   21.2112 H   0  0  0  0  0  0  0  0  0  0  0  0
   20.4898   17.9526   22.1339 H   0  0  0  0  0  0  0  0  0  0  0  0
   19.4458   19.2164   20.7004 C   0  0  0  0  0  0  0  0  0  0  0  0
   19.5069   20.2465   20.3224 H   0  0  0  0  0  0  0  0  0  0  0  0
   18.4647   19.1115   21.1824 H   0  0  0  0  0  0  0  0  0  0  0  0
   19.5296   18.2305   19.5157 C   0  0  0  0  0  0  0  0  0  0  0  0
   20.4835   18.3338   18.9823 H   0  0  0  0  0  0  0  0  0  0  0  0
   18.7206   18.4178   18.7977 H   0  0  0  0  0  0  0  0  0  0  0  0
   19.4409   17.1918   19.8599 H   0  0  0  0  0  0  0  0  0  0  0  0
  1  2  1  0  0  0  0
  1  3  1  0  0  0  0
  1  4  1  0  0  0  0
  1  5  1  0  0  0  0
  5  6  1  0  0  0  0
  5  7  1  0  0  0  0
  5  8  1  0  0  0  0
  8  9  1  0  0  0  0
  8 10  1  0  0  0  0
  8 11  1  0  0  0  0
 11 12  1  0  0  0  0
 11 13  1  0  0  0  0
 11 14  1  0  0  0  0
 14 15  1  0  0  0  0
 14 16  1  0  0  0  0
 14 17  1  0  0  0  0
 17 18  1  0  0  0  0
 17 19  1  0  0  0  0
 17 20  1  0  0  0  0
 20 21  1  0  0  0  0
 20 22  1  0  0  0  0
 20 23  1  0  0  0  0
M  END
> <VM2 Rank>
33

> <Conf_Id>
192

> <Probability>
0.77

> <Sum Probability>
94.11

> <Delta G>
1.638

> <G>
39.554

> <E>
11.494

> <-TS>
28.060

> <U+W>
-7.285

> <U>
48.590

> <W>
-55.875

> <W(PB)>
-57.963

> <W(SA)>
2.087

> <Valence>
2.601

> <Coulomb>
45.520

> <VdW>
0.469

> <VdW6>
-6.867

> <VdW12>
7.336

> <Bond>
0.205

> <Angle>
0.962

> <Pdih>
1.434

> <Idih>
0.000

> <Tether>
0.000

$$$$
VeraChem MOL file


 23 22  0  0  0  0  0  0  0  0999 V2000     
   19.6749   18.6053   25.7866 N   0  3  0  0  0  0  0  0  0  0  0  0
   20.5781   19.0038   26.0627 H   0  0  0  0  0  0  0  0  0  0  0  0
   19.8559   17.6611   25.4329 H   0  0  0  0  0  0  0  0  0  0  0  0
   19.1192   18.5030   26.6426 H   0  0  0  0  0  0  0  0  0  0  0  0
   18.9696   19.4672   24.7575 C   0  0  0  0  0  0  0  0  0  0  0  0
   18.7740   20.4391   25.2187 H   0  0  0  0  0  0  0  0  0  0  0  0
   18.0082   19.0011   24.5252 H   0  0  0  0  0  0  0  0  0  0  0  0
   19.7742   19.6718   23.4592 C   0  0  0  0  0  0  0  0  0  0  0  0
   19.2345   20.3974   22.8379 H   0  0  0  0  0  0  0  0  0  0  0  0
   20.7467   20.1225   23.6974 H   0  0  0  0  0  0  0  0  0  0  0  0
   19.9776   18.3553   22.6681 C   0  0  0  0  0  0  0  0  0  0  0  0
   19.0017   17.9197   22.4157 H   0  0  0  0  0  0  0  0  0  0  0  0
   20.4800   17.6189   23.3089 H   0  0  0  0  0  0  0  0  0  0  0  0
   20.8276   18.5296   21.3826 C   0  0  0  0  0  0  0  0  0  0  0  0
   21.8353   18.8653   21.6637 H   0  0  0  0  0  0  0  0  0  0  0  0
   20.9598   17.5453   20.9126 H   0  0  0  0  0  0  0  0  0  0  0  0
   20.2498   19.5111   20.3310 C   0  0  0  0  0  0  0  0  0  0  0  0
   20.9345   19.5451   19.4720 H   0  0  0  0  0  0  0  0  0  0  0  0
   20.2268   20.5318   20.7354 H   0  0  0  0  0  0  0  0  0  0  0  0
   18.8423   19.1167   19.8290 C   0  0  0  0  0  0  0  0  0  0  0  0
   18.0961   19.1837   20.6306 H   0  0  0  0  0  0  0  0  0  0  0  0
   18.8361   18.0912   19.4375 H   0  0  0  0  0  0  0  0  0  0  0  0
   18.5203   19.7866   19.0214 H   0  0  0  0  0  0  0  0  0  0  0  0
  1  2  1  0  0  0  0
  1  3  1  0  0  0  0
  1  4  1  0  0  0  0
  1  5  1  0  0  0  0
  5  6  1  0  0  0  0
  5  7  1  0  0  0  0
  5  8  1  0  0  0  0
  8  9  1  0  0  0  0
  8 10  1  0  0  0  0
  8 11  1  0  0  0  0
 11 12  1  0  0  0  0
 11 13  1  0  0  0  0
 11 14  1  0  0  0  0
 14 15  1  0  0  0  0
 14 16  1  0  0  0  0
 14 17  1  0  0  0  0
 17 18  1  0  0  0  0
 17 19  1  0  0  0  0
 17 20  1  0  0  0  0
 20 21  1  0  0  0  0
 20 22  1  0  0  0  0
 20 23  1  0  0  0  0
M  END
> <VM2 Rank>
34

> <Conf_Id>
954

> <Probability>
0.74

> <Sum Probability>
94.85

> <Delta G>
1.663

> <G>
39.579

> <E>
11.540

> <-TS>
28.039

> <U+W>
-7.239

> <U>
48.503

> <W>
-55.741

> <W(PB)>
-57.819

> <W(SA)>
2.078

> <Valence>
2.824

> <Coulomb>
44.990

> <VdW>
0.689

> <VdW6>
-6.667

> <VdW12>
7.356

> <Bond>
0.219

> <Angle>
1.118

> <Pdih>
1.487

> <Idih>
0.000

> <Tether>
0.000

$$$$
VeraChem MOL file


 23 22  0  0  0  0  0  0  0  0999 V2000     
   19.9802   17.7232   24.9301 N   0  3  0  0  0  0  0  0  0  0  0  0
   20.8507   17.8819   25.4473 H   0  0  0  0  0  0  0  0  0  0  0  0
   20.2357   17.3334   24.0177 H   0  0  0  0  0  0  0  0  0  0  0  0
   19.4609   16.9964   25.4339 H   0  0  0  0  0  0  0  0  0  0  0  0
   19.1706   18.9970   24.7866 C   0  0  0  0  0  0  0  0  0  0  0  0
   18.9053   19.3378   25.7911 H   0  0  0  0  0  0  0  0  0  0  0  0
   18.2464   18.7533   24.2564 H   0  0  0  0  0  0  0  0  0  0  0  0
   19.9160   20.1247   24.0440 C   0  0  0  0  0  0  0  0  0  0  0  0
   19.2814   21.0208   24.0365 H   0  0  0  0  0  0  0  0  0  0  0  0
   20.8177   20.3935   24.6101 H   0  0  0  0  0  0  0  0  0  0  0  0
   20.3118   19.7666   22.5894 C   0  0  0  0  0  0  0  0  0  0  0  0
   21.0237   18.9315   22.5988 H   0  0  0  0  0  0  0  0  0  0  0  0
   20.8472   20.6205   22.1521 H   0  0  0  0  0  0  0  0  0  0  0  0
   19.0932   19.4200   21.6969 C   0  0  0  0  0  0  0  0  0  0  0  0
   18.5961   18.5144   22.0691 H   0  0  0  0  0  0  0  0  0  0  0  0
   18.3547   20.2304   21.7686 H   0  0  0  0  0  0  0  0  0  0  0  0
   19.4611   19.2206   20.2069 C   0  0  0  0  0  0  0  0  0  0  0  0
   19.9367   20.1309   19.8159 H   0  0  0  0  0  0  0  0  0  0  0  0
   18.5354   19.0859   19.6300 H   0  0  0  0  0  0  0  0  0  0  0  0
   20.3831   18.0048   19.9601 C   0  0  0  0  0  0  0  0  0  0  0  0
   19.9415   17.0853   20.3657 H   0  0  0  0  0  0  0  0  0  0  0  0
   21.3688   18.1461   20.4205 H   0  0  0  0  0  0  0  0  0  0  0  0
   20.5406   17.8547   18.8842 H   0  0  0  0  0  0  0  0  0  0  0  0
  1  2  1  0  0  0  0
  1  3  1  0  0  0  0
  1  4  1  0  0  0  0
  1  5  1  0  0  0  0
  5  6  1  0  0  0  0
  5  7  1  0  0  0  0
  5  8  1  0  0  0  0
  8  9  1  0  0  0  0
  8 10  1  0  0  0  0
  8 11  1  0  0  0  0
 11 12  1  0  0  0  0
 11 13  1  0  0  0  0
 11 14  1  0  0  0  0
 14 15  1  0  0  0  0
 14 16  1  0  0  0  0
 14 17  1  0  0  0  0
 17 18  1  0  0  0  0
 17 19  1  0  0  0  0
 17 20  1  0  0  0  0
 20 21  1  0  0  0  0
 20 22  1  0  0  0  0
 20 23  1  0  0  0  0
M  END
> <VM2 Rank>
35

> <Conf_Id>
700

> <Probability>
0.72

> <Sum Probability>
95.57

> <Delta G>
1.676

> <G>
39.592

> <E>
11.663

> <-TS>
27.929

> <U+W>
-7.116

> <U>
48.775

> <W>
-55.891

> <W(PB)>
-57.964

> <W(SA)>
2.073

> <Valence>
2.602

> <Coulomb>
45.581

> <VdW>
0.592

> <VdW6>
-6.616

> <VdW12>
7.208

> <Bond>
0.196

> <Angle>
0.832

> <Pdih>
1.574

> <Idih>
0.000

> <Tether>
0.000

$$$$
VeraChem MOL file


 23 22  0  0  0  0  0  0  0  0999 V2000     
   20.2115   17.9530   25.2450 N   0  3  0  0  0  0  0  0  0  0  0  0
   21.1329   18.0998   24.8221 H   0  0  0  0  0  0  0  0  0  0  0  0
   19.8429   17.0724   24.8720 H   0  0  0  0  0  0  0  0  0  0  0  0
   20.3618   17.8125   26.2498 H   0  0  0  0  0  0  0  0  0  0  0  0
   19.2765   19.1154   24.9736 C   0  0  0  0  0  0  0  0  0  0  0  0
   19.7140   20.0137   25.4175 H   0  0  0  0  0  0  0  0  0  0  0  0
   18.3323   18.9082   25.4846 H   0  0  0  0  0  0  0  0  0  0  0  0
   19.0051   19.3564   23.4761 C   0  0  0  0  0  0  0  0  0  0  0  0
   18.5666   18.4498   23.0402 H   0  0  0  0  0  0  0  0  0  0  0  0
   18.2503   20.1484   23.3821 H   0  0  0  0  0  0  0  0  0  0  0  0
   20.2801   19.7679   22.6986 C   0  0  0  0  0  0  0  0  0  0  0  0
   21.0152   18.9533   22.7193 H   0  0  0  0  0  0  0  0  0  0  0  0
   20.7530   20.6161   23.2128 H   0  0  0  0  0  0  0  0  0  0  0  0
   20.0013   20.1811   21.2303 C   0  0  0  0  0  0  0  0  0  0  0  0
   19.3565   21.0707   21.2256 H   0  0  0  0  0  0  0  0  0  0  0  0
   20.9470   20.4936   20.7664 H   0  0  0  0  0  0  0  0  0  0  0  0
   19.3482   19.0865   20.3482 C   0  0  0  0  0  0  0  0  0  0  0  0
   19.1980   19.4947   19.3390 H   0  0  0  0  0  0  0  0  0  0  0  0
   18.3459   18.8428   20.7252 H   0  0  0  0  0  0  0  0  0  0  0  0
   20.1933   17.7967   20.2421 C   0  0  0  0  0  0  0  0  0  0  0  0
   20.2715   17.2865   21.2101 H   0  0  0  0  0  0  0  0  0  0  0  0
   21.2078   18.0179   19.8862 H   0  0  0  0  0  0  0  0  0  0  0  0
   19.7349   17.0939   19.5345 H   0  0  0  0  0  0  0  0  0  0  0  0
  1  2  1  0  0  0  0
  1  3  1  0  0  0  0
  1  4  1  0  0  0  0
  1  5  1  0  0  0  0
  5  6  1  0  0  0  0
  5  7  1  0  0  0  0
  5  8  1  0  0  0  0
  8  9  1  0  0  0  0
  8 10  1  0  0  0  0
  8 11  1  0  0  0  0
 11 12  1  0  0  0  0
 11 13  1  0  0  0  0
 11 14  1  0  0  0  0
 14 15  1  0  0  0  0
 14 16  1  0  0  0  0
 14 17  1  0  0  0  0
 17 18  1  0  0  0  0
 17 19  1  0  0  0  0
 17 20  1  0  0  0  0
 20 21  1  0  0  0  0
 20 22  1  0  0  0  0
 20 23  1  0  0  0  0
M  END
> <VM2 Rank>
36

> <Conf_Id>
854

> <Probability>
0.69

> <Sum Probability>
96.26

> <Delta G>
1.701

> <G>
39.618

> <E>
11.563

> <-TS>
28.055

> <U+W>
-7.216

> <U>
48.780

> <W>
-55.996

> <W(PB)>
-58.046

> <W(SA)>
2.050

> <Valence>
2.784

> <Coulomb>
45.396

> <VdW>
0.600

> <VdW6>
-6.752

> <VdW12>
7.352

> <Bond>
0.213

> <Angle>
1.043

> <Pdih>
1.528

> <Idih>
0.000

> <Tether>
0.000

$$$$
VeraChem MOL file


 23 22  0  0  0  0  0  0  0  0999 V2000     
   20.0046   17.8670   25.2357 N   0  3  0  0  0  0  0  0  0  0  0  0
   19.9205   17.6290   26.2298 H   0  0  0  0  0  0  0  0  0  0  0  0
   20.9158   17.5188   24.9211 H   0  0  0  0  0  0  0  0  0  0  0  0
   19.2867   17.3317   24.7380 H   0  0  0  0  0  0  0  0  0  0  0  0
   19.8587   19.3577   25.0002 C   0  0  0  0  0  0  0  0  0  0  0  0
   20.6285   19.8637   25.5892 H   0  0  0  0  0  0  0  0  0  0  0  0
   18.8812   19.6672   25.3796 H   0  0  0  0  0  0  0  0  0  0  0  0
   19.9947   19.7681   23.5212 C   0  0  0  0  0  0  0  0  0  0  0  0
   19.9709   20.8642   23.4604 H   0  0  0  0  0  0  0  0  0  0  0  0
   20.9783   19.4532   23.1501 H   0  0  0  0  0  0  0  0  0  0  0  0
   18.8688   19.1805   22.6343 C   0  0  0  0  0  0  0  0  0  0  0  0
   17.8964   19.4273   23.0827 H   0  0  0  0  0  0  0  0  0  0  0  0
   18.9282   18.0847   22.6242 H   0  0  0  0  0  0  0  0  0  0  0  0
   18.8856   19.7168   21.1795 C   0  0  0  0  0  0  0  0  0  0  0  0
   18.0366   19.2825   20.6338 H   0  0  0  0  0  0  0  0  0  0  0  0
   18.7085   20.8010   21.1961 H   0  0  0  0  0  0  0  0  0  0  0  0
   20.1875   19.4357   20.3864 C   0  0  0  0  0  0  0  0  0  0  0  0
   21.0342   19.9615   20.8476 H   0  0  0  0  0  0  0  0  0  0  0  0
   20.0821   19.8626   19.3792 H   0  0  0  0  0  0  0  0  0  0  0  0
   20.5160   17.9311   20.2567 C   0  0  0  0  0  0  0  0  0  0  0  0
   21.3903   17.7828   19.6098 H   0  0  0  0  0  0  0  0  0  0  0  0
   19.6750   17.3801   19.8163 H   0  0  0  0  0  0  0  0  0  0  0  0
   20.7475   17.4845   21.2317 H   0  0  0  0  0  0  0  0  0  0  0  0
  1  2  1  0  0  0  0
  1  3  1  0  0  0  0
  1  4  1  0  0  0  0
  1  5  1  0  0  0  0
  5  6  1  0  0  0  0
  5  7  1  0  0  0  0
  5  8  1  0  0  0  0
  8  9  1  0  0  0  0
  8 10  1  0  0  0  0
  8 11  1  0  0  0  0
 11 12  1  0  0  0  0
 11 13  1  0  0  0  0
 11 14  1  0  0  0  0
 14 15  1  0  0  0  0
 14 16  1  0  0  0  0
 14 17  1  0  0  0  0
 17 18  1  0  0  0  0
 17 19  1  0  0  0  0
 17 20  1  0  0  0  0
 20 21  1  0  0  0  0
 20 22  1  0  0  0  0
 20 23  1  0  0  0  0
M  END
> <VM2 Rank>
37

> <Conf_Id>
753

> <Probability>
0.65

> <Sum Probability>
96.91

> <Delta G>
1.739

> <G>
39.656

> <E>
11.601

> <-TS>
28.055

> <U+W>
-7.178

> <U>
48.780

> <W>
-55.958

> <W(PB)>
-58.030

> <W(SA)>
2.071

> <Valence>
2.785

> <Coulomb>
45.396

> <VdW>
0.600

> <VdW6>
-6.752

> <VdW12>
7.352

> <Bond>
0.213

> <Angle>
1.043

> <Pdih>
1.528

> <Idih>
0.000

> <Tether>
0.000

$$$$
VeraChem MOL file


 23 22  0  0  0  0  0  0  0  0999 V2000     
   19.2153   18.1526   25.5916 N   0  3  0  0  0  0  0  0  0  0  0  0
   20.0393   18.1693   26.2011 H   0  0  0  0  0  0  0  0  0  0  0  0
   19.1204   17.1949   25.2388 H   0  0  0  0  0  0  0  0  0  0  0  0
   18.4003   18.3331   26.1876 H   0  0  0  0  0  0  0  0  0  0  0  0
   19.3243   19.1618   24.4667 C   0  0  0  0  0  0  0  0  0  0  0  0
   19.3931   20.1580   24.9118 H   0  0  0  0  0  0  0  0  0  0  0  0
   18.4042   19.1101   23.8788 H   0  0  0  0  0  0  0  0  0  0  0  0
   20.5392   18.9181   23.5522 C   0  0  0  0  0  0  0  0  0  0  0  0
   21.4545   18.9348   24.1586 H   0  0  0  0  0  0  0  0  0  0  0  0
   20.4779   17.9134   23.1149 H   0  0  0  0  0  0  0  0  0  0  0  0
   20.6642   19.9777   22.4294 C   0  0  0  0  0  0  0  0  0  0  0  0
   21.5582   19.7614   21.8295 H   0  0  0  0  0  0  0  0  0  0  0  0
   20.8459   20.9599   22.8873 H   0  0  0  0  0  0  0  0  0  0  0  0
   19.4276   20.0878   21.4969 C   0  0  0  0  0  0  0  0  0  0  0  0
   18.5704   20.4650   22.0706 H   0  0  0  0  0  0  0  0  0  0  0  0
   19.6308   20.8520   20.7341 H   0  0  0  0  0  0  0  0  0  0  0  0
   19.0167   18.7719   20.7886 C   0  0  0  0  0  0  0  0  0  0  0  0
   18.1293   18.9690   20.1710 H   0  0  0  0  0  0  0  0  0  0  0  0
   18.7067   18.0226   21.5292 H   0  0  0  0  0  0  0  0  0  0  0  0
   20.1288   18.1872   19.8886 C   0  0  0  0  0  0  0  0  0  0  0  0
   20.4641   18.9239   19.1472 H   0  0  0  0  0  0  0  0  0  0  0  0
   19.7610   17.3072   19.3452 H   0  0  0  0  0  0  0  0  0  0  0  0
   20.9989   17.8719   20.4778 H   0  0  0  0  0  0  0  0  0  0  0  0
  1  2  1  0  0  0  0
  1  3  1  0  0  0  0
  1  4  1  0  0  0  0
  1  5  1  0  0  0  0
  5  6  1  0  0  0  0
  5  7  1  0  0  0  0
  5  8  1  0  0  0  0
  8  9  1  0  0  0  0
  8 10  1  0  0  0  0
  8 11  1  0  0  0  0
 11 12  1  0  0  0  0
 11 13  1  0  0  0  0
 11 14  1  0  0  0  0
 14 15  1  0  0  0  0
 14 16  1  0  0  0  0
 14 17  1  0  0  0  0
 17 18  1  0  0  0  0
 17 19  1  0  0  0  0
 17 20  1  0  0  0  0
 20 21  1  0  0  0  0
 20 22  1  0  0  0  0
 20 23  1  0  0  0  0
M  END
> <VM2 Rank>
38

> <Conf_Id>
245

> <Probability>
0.65

> <Sum Probability>
97.55

> <Delta G>
1.739

> <G>
39.656

> <E>
11.473

> <-TS>
28.183

> <U+W>
-7.306

> <U>
48.641

> <W>
-55.947

> <W(PB)>
-58.031

> <W(SA)>
2.084

> <Valence>
2.922

> <Coulomb>
45.269

> <VdW>
0.450

> <VdW6>
-7.044

> <VdW12>
7.494

> <Bond>
0.220

> <Angle>
1.205

> <Pdih>
1.497

> <Idih>
0.000

> <Tether>
0.000

$$$$
VeraChem MOL file


 23 22  0  0  0  0  0  0  0  0999 V2000     
   20.5355   18.7020   25.6517 N   0  3  0  0  0  0  0  0  0  0  0  0
   20.9335   19.3871   26.3030 H   0  0  0  0  0  0  0  0  0  0  0  0
   21.3076   18.1050   25.3384 H   0  0  0  0  0  0  0  0  0  0  0  0
   19.8982   18.1106   26.1947 H   0  0  0  0  0  0  0  0  0  0  0  0
   19.8317   19.3729   24.4898 C   0  0  0  0  0  0  0  0  0  0  0  0
   20.5595   20.0070   23.9770 H   0  0  0  0  0  0  0  0  0  0  0  0
   19.0434   20.0125   24.8958 H   0  0  0  0  0  0  0  0  0  0  0  0
   19.2225   18.3702   23.4922 C   0  0  0  0  0  0  0  0  0  0  0  0
   20.0109   17.7191   23.0936 H   0  0  0  0  0  0  0  0  0  0  0  0
   18.5213   17.7143   24.0249 H   0  0  0  0  0  0  0  0  0  0  0  0
   18.4715   19.0654   22.3295 C   0  0  0  0  0  0  0  0  0  0  0  0
   17.6130   19.6146   22.7400 H   0  0  0  0  0  0  0  0  0  0  0  0
   18.0438   18.2991   21.6693 H   0  0  0  0  0  0  0  0  0  0  0  0
   19.3337   20.0487   21.4926 C   0  0  0  0  0  0  0  0  0  0  0  0
   18.7090   20.4685   20.6921 H   0  0  0  0  0  0  0  0  0  0  0  0
   19.6237   20.9033   22.1186 H   0  0  0  0  0  0  0  0  0  0  0  0
   20.6089   19.4344   20.8611 C   0  0  0  0  0  0  0  0  0  0  0  0
   21.2996   19.1016   21.6474 H   0  0  0  0  0  0  0  0  0  0  0  0
   21.1399   20.2218   20.3082 H   0  0  0  0  0  0  0  0  0  0  0  0
   20.3123   18.2635   19.8971 C   0  0  0  0  0  0  0  0  0  0  0  0
   19.6127   18.5695   19.1085 H   0  0  0  0  0  0  0  0  0  0  0  0
   19.8793   17.4059   20.4269 H   0  0  0  0  0  0  0  0  0  0  0  0
   21.2357   17.9208   19.4125 H   0  0  0  0  0  0  0  0  0  0  0  0
  1  2  1  0  0  0  0
  1  3  1  0  0  0  0
  1  4  1  0  0  0  0
  1  5  1  0  0  0  0
  5  6  1  0  0  0  0
  5  7  1  0  0  0  0
  5  8  1  0  0  0  0
  8  9  1  0  0  0  0
  8 10  1  0  0  0  0
  8 11  1  0  0  0  0
 11 12  1  0  0  0  0
 11 13  1  0  0  0  0
 11 14  1  0  0  0  0
 14 15  1  0  0  0  0
 14 16  1  0  0  0  0
 14 17  1  0  0  0  0
 17 18  1  0  0  0  0
 17 19  1  0  0  0  0
 17 20  1  0  0  0  0
 20 21  1  0  0  0  0
 20 22  1  0  0  0  0
 20 23  1  0  0  0  0
M  END
> <VM2 Rank>
39

> <Conf_Id>
107

> <Probability>
0.59

> <Sum Probability>
98.14

> <Delta G>
1.794

> <G>
39.710

> <E>
11.527

> <-TS>
28.184

> <U+W>
-7.252

> <U>
48.641

> <W>
-55.893

> <W(PB)>
-57.963

> <W(SA)>
2.070

> <Valence>
2.922

> <Coulomb>
45.269

> <VdW>
0.449

> <VdW6>
-7.045

> <VdW12>
7.494

> <Bond>
0.220

> <Angle>
1.205

> <Pdih>
1.497

> <Idih>
0.000

> <Tether>
0.000

$$$$
VeraChem MOL file


 23 22  0  0  0  0  0  0  0  0999 V2000     
   19.0918   18.9203   25.4295 N   0  3  0  0  0  0  0  0  0  0  0  0
   18.5163   18.2125   24.9633 H   0  0  0  0  0  0  0  0  0  0  0  0
   18.4693   19.4619   26.0385 H   0  0  0  0  0  0  0  0  0  0  0  0
   19.7487   18.4231   26.0392 H   0  0  0  0  0  0  0  0  0  0  0  0
   19.8109   19.8037   24.4292 C   0  0  0  0  0  0  0  0  0  0  0  0
   20.3793   20.5494   24.9917 H   0  0  0  0  0  0  0  0  0  0  0  0
   19.0573   20.3277   23.8356 H   0  0  0  0  0  0  0  0  0  0  0  0
   20.7637   19.0310   23.4950 C   0  0  0  0  0  0  0  0  0  0  0  0
   21.2981   19.7500   22.8610 H   0  0  0  0  0  0  0  0  0  0  0  0
   21.5339   18.5332   24.0988 H   0  0  0  0  0  0  0  0  0  0  0  0
   20.0537   17.9782   22.6041 C   0  0  0  0  0  0  0  0  0  0  0  0
   19.6554   17.1761   23.2396 H   0  0  0  0  0  0  0  0  0  0  0  0
   20.8003   17.4945   21.9603 H   0  0  0  0  0  0  0  0  0  0  0  0
   18.9008   18.5382   21.7278 C   0  0  0  0  0  0  0  0  0  0  0  0
   18.4807   17.7154   21.1331 H   0  0  0  0  0  0  0  0  0  0  0  0
   18.0830   18.8816   22.3753 H   0  0  0  0  0  0  0  0  0  0  0  0
   19.3005   19.6914   20.7726 C   0  0  0  0  0  0  0  0  0  0  0  0
   19.6306   20.5656   21.3496 H   0  0  0  0  0  0  0  0  0  0  0  0
   18.4066   20.0151   20.2213 H   0  0  0  0  0  0  0  0  0  0  0  0
   20.3946   19.2942   19.7559 C   0  0  0  0  0  0  0  0  0  0  0  0
   20.0925   18.4127   19.1757 H   0  0  0  0  0  0  0  0  0  0  0  0
   21.3449   19.0679   20.2553 H   0  0  0  0  0  0  0  0  0  0  0  0
   20.5794   20.1139   19.0497 H   0  0  0  0  0  0  0  0  0  0  0  0
  1  2  1  0  0  0  0
  1  3  1  0  0  0  0
  1  4  1  0  0  0  0
  1  5  1  0  0  0  0
  5  6  1  0  0  0  0
  5  7  1  0  0  0  0
  5  8  1  0  0  0  0
  8  9  1  0  0  0  0
  8 10  1  0  0  0  0
  8 11  1  0  0  0  0
 11 12  1  0  0  0  0
 11 13  1  0  0  0  0
 11 14  1  0  0  0  0
 14 15  1  0  0  0  0
 14 16  1  0  0  0  0
 14 17  1  0  0  0  0
 17 18  1  0  0  0  0
 17 19  1  0  0  0  0
 17 20  1  0  0  0  0
 20 21  1  0  0  0  0
 20 22  1  0  0  0  0
 20 23  1  0  0  0  0
M  END
> <VM2 Rank>
40

> <Conf_Id>
187

> <Probability>
0.33

> <Sum Probability>
98.47

> <Delta G>
2.147

> <G>
40.064

> <E>
11.688

> <-TS>
28.376

> <U+W>
-7.091

> <U>
48.991

> <W>
-56.082

> <W(PB)>
-58.124

> <W(SA)>
2.041

> <Valence>
3.025

> <Coulomb>
45.510

> <VdW>
0.456

> <VdW6>
-7.728

> <VdW12>
8.183

> <Bond>
0.246

> <Angle>
1.276

> <Pdih>
1.503

> <Idih>
0.000

> <Tether>
0.000

$$$$
VeraChem MOL file


 23 22  0  0  0  0  0  0  0  0999 V2000     
   20.0914   19.3359   25.4750 N   0  3  0  0  0  0  0  0  0  0  0  0
   19.9348   18.5004   26.0476 H   0  0  0  0  0  0  0  0  0  0  0  0
   20.0979   20.1390   26.1127 H   0  0  0  0  0  0  0  0  0  0  0  0
   21.0326   19.2588   25.0779 H   0  0  0  0  0  0  0  0  0  0  0  0
   19.0387   19.4827   24.3941 C   0  0  0  0  0  0  0  0  0  0  0  0
   19.2430   20.4050   23.8442 H   0  0  0  0  0  0  0  0  0  0  0  0
   18.0682   19.5885   24.8865 H   0  0  0  0  0  0  0  0  0  0  0  0
   18.9890   18.2932   23.4142 C   0  0  0  0  0  0  0  0  0  0  0  0
   18.7536   17.3773   23.9722 H   0  0  0  0  0  0  0  0  0  0  0  0
   18.1540   18.4428   22.7178 H   0  0  0  0  0  0  0  0  0  0  0  0
   20.3017   18.0813   22.6154 C   0  0  0  0  0  0  0  0  0  0  0  0
   20.1696   17.2323   21.9316 H   0  0  0  0  0  0  0  0  0  0  0  0
   21.0998   17.7766   23.3054 H   0  0  0  0  0  0  0  0  0  0  0  0
   20.7830   19.3207   21.8136 C   0  0  0  0  0  0  0  0  0  0  0  0
   21.0639   20.1210   22.5112 H   0  0  0  0  0  0  0  0  0  0  0  0
   21.7065   19.0565   21.2801 H   0  0  0  0  0  0  0  0  0  0  0  0
   19.7602   19.8826   20.7935 C   0  0  0  0  0  0  0  0  0  0  0  0
   20.2017   20.7614   20.3032 H   0  0  0  0  0  0  0  0  0  0  0  0
   18.8650   20.2472   21.3147 H   0  0  0  0  0  0  0  0  0  0  0  0
   19.3520   18.8607   19.7083 C   0  0  0  0  0  0  0  0  0  0  0  0
   20.2331   18.4711   19.1821 H   0  0  0  0  0  0  0  0  0  0  0  0
   18.6970   19.3313   18.9638 H   0  0  0  0  0  0  0  0  0  0  0  0
   18.8061   18.0123   20.1395 H   0  0  0  0  0  0  0  0  0  0  0  0
  1  2  1  0  0  0  0
  1  3  1  0  0  0  0
  1  4  1  0  0  0  0
  1  5  1  0  0  0  0
  5  6  1  0  0  0  0
  5  7  1  0  0  0  0
  5  8  1  0  0  0  0
  8  9  1  0  0  0  0
  8 10  1  0  0  0  0
  8 11  1  0  0  0  0
 11 12  1  0  0  0  0
 11 13  1  0  0  0  0
 11 14  1  0  0  0  0
 14 15  1  0  0  0  0
 14 16  1  0  0  0  0
 14 17  1  0  0  0  0
 17 18  1  0  0  0  0
 17 19  1  0  0  0  0
 17 20  1  0  0  0  0
 20 21  1  0  0  0  0
 20 22  1  0  0  0  0
 20 23  1  0  0  0  0
M  END
> <VM2 Rank>
41

> <Conf_Id>
106

> <Probability>
0.31

> <Sum Probability>
98.78

> <Delta G>
2.187

> <G>
40.103

> <E>
11.727

> <-TS>
28.376

> <U+W>
-7.052

> <U>
48.991

> <W>
-56.043

> <W(PB)>
-58.100

> <W(SA)>
2.057

> <Valence>
3.025

> <Coulomb>
45.511

> <VdW>
0.456

> <VdW6>
-7.727

> <VdW12>
8.183

> <Bond>
0.246

> <Angle>
1.276

> <Pdih>
1.503

> <Idih>
0.000

> <Tether>
0.000

$$$$
VeraChem MOL file


 23 22  0  0  0  0  0  0  0  0999 V2000     
   20.6331   18.0145   24.8318 N   0  3  0  0  0  0  0  0  0  0  0  0
   21.4598   17.9711   25.4374 H   0  0  0  0  0  0  0  0  0  0  0  0
   20.9552   17.8718   23.8708 H   0  0  0  0  0  0  0  0  0  0  0  0
   20.0432   17.2125   25.0757 H   0  0  0  0  0  0  0  0  0  0  0  0
   19.8896   19.3269   24.9896 C   0  0  0  0  0  0  0  0  0  0  0  0
   20.5804   20.1469   24.7758 H   0  0  0  0  0  0  0  0  0  0  0  0
   19.5923   19.3998   26.0393 H   0  0  0  0  0  0  0  0  0  0  0  0
   18.6335   19.4551   24.1027 C   0  0  0  0  0  0  0  0  0  0  0  0
   18.0717   18.5115   24.1074 H   0  0  0  0  0  0  0  0  0  0  0  0
   17.9730   20.2007   24.5649 H   0  0  0  0  0  0  0  0  0  0  0  0
   18.9159   19.9084   22.6473 C   0  0  0  0  0  0  0  0  0  0  0  0
   19.4218   20.8838   22.6599 H   0  0  0  0  0  0  0  0  0  0  0  0
   17.9511   20.0708   22.1472 H   0  0  0  0  0  0  0  0  0  0  0  0
   19.7493   18.9057   21.8143 C   0  0  0  0  0  0  0  0  0  0  0  0
   20.7688   18.8465   22.2149 H   0  0  0  0  0  0  0  0  0  0  0  0
   19.3068   17.9028   21.8910 H   0  0  0  0  0  0  0  0  0  0  0  0
   19.8257   19.3199   20.3280 C   0  0  0  0  0  0  0  0  0  0  0  0
   20.2613   20.3256   20.2450 H   0  0  0  0  0  0  0  0  0  0  0  0
   18.8128   19.3774   19.9053 H   0  0  0  0  0  0  0  0  0  0  0  0
   20.6689   18.3266   19.5003 C   0  0  0  0  0  0  0  0  0  0  0  0
   20.7100   18.6365   18.4479 H   0  0  0  0  0  0  0  0  0  0  0  0
   20.2389   17.3172   19.5374 H   0  0  0  0  0  0  0  0  0  0  0  0
   21.6990   18.2738   19.8760 H   0  0  0  0  0  0  0  0  0  0  0  0
  1  2  1  0  0  0  0
  1  3  1  0  0  0  0
  1  4  1  0  0  0  0
  1  5  1  0  0  0  0
  5  6  1  0  0  0  0
  5  7  1  0  0  0  0
  5  8  1  0  0  0  0
  8  9  1  0  0  0  0
  8 10  1  0  0  0  0
  8 11  1  0  0  0  0
 11 12  1  0  0  0  0
 11 13  1  0  0  0  0
 11 14  1  0  0  0  0
 14 15  1  0  0  0  0
 14 16  1  0  0  0  0
 14 17  1  0  0  0  0
 17 18  1  0  0  0  0
 17 19  1  0  0  0  0
 17 20  1  0  0  0  0
 20 21  1  0  0  0  0
 20 22  1  0  0  0  0
 20 23  1  0  0  0  0
M  END
> <VM2 Rank>
42

> <Conf_Id>
734

> <Probability>
0.11

> <Sum Probability>
98.88

> <Delta G>
2.812

> <G>
40.728

> <E>
13.063

> <-TS>
27.665

> <U+W>
-5.716

> <U>
50.170

> <W>
-55.886

> <W(PB)>
-57.990

> <W(SA)>
2.104

> <Valence>
3.335

> <Coulomb>
46.425

> <VdW>
0.410

> <VdW6>
-6.121

> <VdW12>
6.530

> <Bond>
0.172

> <Angle>
0.958

> <Pdih>
2.205

> <Idih>
0.000

> <Tether>
0.000

$$$$
VeraChem MOL file


 23 22  0  0  0  0  0  0  0  0999 V2000     
   19.6971   17.6250   24.7891 N   0  3  0  0  0  0  0  0  0  0  0  0
   19.1006   16.9894   25.3296 H   0  0  0  0  0  0  0  0  0  0  0  0
   20.6600   17.4692   25.1042 H   0  0  0  0  0  0  0  0  0  0  0  0
   19.6471   17.3273   23.8111 H   0  0  0  0  0  0  0  0  0  0  0  0
   19.2773   19.0721   24.9615 C   0  0  0  0  0  0  0  0  0  0  0  0
   19.3525   19.3001   26.0282 H   0  0  0  0  0  0  0  0  0  0  0  0
   18.2285   19.1682   24.6681 H   0  0  0  0  0  0  0  0  0  0  0  0
   20.1370   20.0806   24.1713 C   0  0  0  0  0  0  0  0  0  0  0  0
   20.0367   21.0594   24.6590 H   0  0  0  0  0  0  0  0  0  0  0  0
   21.1990   19.8127   24.2501 H   0  0  0  0  0  0  0  0  0  0  0  0
   19.7310   20.2475   22.6845 C   0  0  0  0  0  0  0  0  0  0  0  0
   20.3323   21.0612   22.2557 H   0  0  0  0  0  0  0  0  0  0  0  0
   18.6844   20.5772   22.6261 H   0  0  0  0  0  0  0  0  0  0  0  0
   19.9204   18.9769   21.8222 C   0  0  0  0  0  0  0  0  0  0  0  0
   20.9350   18.5801   21.9654 H   0  0  0  0  0  0  0  0  0  0  0  0
   19.2155   18.2005   22.1441 H   0  0  0  0  0  0  0  0  0  0  0  0
   19.6889   19.2630   20.3218 C   0  0  0  0  0  0  0  0  0  0  0  0
   20.3922   20.0342   19.9773 H   0  0  0  0  0  0  0  0  0  0  0  0
   18.6777   19.6670   20.1727 H   0  0  0  0  0  0  0  0  0  0  0  0
   19.8642   17.9919   19.4637 C   0  0  0  0  0  0  0  0  0  0  0  0
   19.1492   17.2133   19.7600 H   0  0  0  0  0  0  0  0  0  0  0  0
   20.8777   17.5827   19.5667 H   0  0  0  0  0  0  0  0  0  0  0  0
   19.6977   18.2153   18.4019 H   0  0  0  0  0  0  0  0  0  0  0  0
  1  2  1  0  0  0  0
  1  3  1  0  0  0  0
  1  4  1  0  0  0  0
  1  5  1  0  0  0  0
  5  6  1  0  0  0  0
  5  7  1  0  0  0  0
  5  8  1  0  0  0  0
  8  9  1  0  0  0  0
  8 10  1  0  0  0  0
  8 11  1  0  0  0  0
 11 12  1  0  0  0  0
 11 13  1  0  0  0  0
 11 14  1  0  0  0  0
 14 15  1  0  0  0  0
 14 16  1  0  0  0  0
 14 17  1  0  0  0  0
 17 18  1  0  0  0  0
 17 19  1  0  0  0  0
 17 20  1  0  0  0  0
 20 21  1  0  0  0  0
 20 22  1  0  0  0  0
 20 23  1  0  0  0  0
M  END
> <VM2 Rank>
43

> <Conf_Id>
671

> <Probability>
0.11

> <Sum Probability>
98.99

> <Delta G>
2.817

> <G>
40.734

> <E>
13.068

> <-TS>
27.666

> <U+W>
-5.711

> <U>
50.170

> <W>
-55.881

> <W(PB)>
-57.975

> <W(SA)>
2.094

> <Valence>
3.335

> <Coulomb>
46.425

> <VdW>
0.410

> <VdW6>
-6.121

> <VdW12>
6.531

> <Bond>
0.172

> <Angle>
0.958

> <Pdih>
2.206

> <Idih>
0.000

> <Tether>
0.000

$$$$
VeraChem MOL file


 23 22  0  0  0  0  0  0  0  0999 V2000     
   20.6932   18.8414   25.6434 N   0  3  0  0  0  0  0  0  0  0  0  0
   21.6669   19.1073   25.8254 H   0  0  0  0  0  0  0  0  0  0  0  0
   20.6244   17.8318   25.8072 H   0  0  0  0  0  0  0  0  0  0  0  0
   20.1204   19.3023   26.3578 H   0  0  0  0  0  0  0  0  0  0  0  0
   20.2591   19.2177   24.2413 C   0  0  0  0  0  0  0  0  0  0  0  0
   20.9289   18.7146   23.5397 H   0  0  0  0  0  0  0  0  0  0  0  0
   20.3831   20.2980   24.1274 H   0  0  0  0  0  0  0  0  0  0  0  0
   18.8023   18.8271   23.9357 C   0  0  0  0  0  0  0  0  0  0  0  0
   18.6946   17.7366   24.0070 H   0  0  0  0  0  0  0  0  0  0  0  0
   18.1510   19.2543   24.7098 H   0  0  0  0  0  0  0  0  0  0  0  0
   18.3014   19.3079   22.5503 C   0  0  0  0  0  0  0  0  0  0  0  0
   18.3338   20.4048   22.4951 H   0  0  0  0  0  0  0  0  0  0  0  0
   17.2391   19.0382   22.4716 H   0  0  0  0  0  0  0  0  0  0  0  0
   19.0462   18.6864   21.3397 C   0  0  0  0  0  0  0  0  0  0  0  0
   19.3445   17.6542   21.5696 H   0  0  0  0  0  0  0  0  0  0  0  0
   18.3400   18.6175   20.5006 H   0  0  0  0  0  0  0  0  0  0  0  0
   20.2702   19.5087   20.8679 C   0  0  0  0  0  0  0  0  0  0  0  0
   21.0116   19.6007   21.6701 H   0  0  0  0  0  0  0  0  0  0  0  0
   19.9530   20.5302   20.6157 H   0  0  0  0  0  0  0  0  0  0  0  0
   20.9436   18.8678   19.6357 C   0  0  0  0  0  0  0  0  0  0  0  0
   21.8054   19.4649   19.3104 H   0  0  0  0  0  0  0  0  0  0  0  0
   20.2434   18.8005   18.7928 H   0  0  0  0  0  0  0  0  0  0  0  0
   21.3021   17.8556   19.8640 H   0  0  0  0  0  0  0  0  0  0  0  0
  1  2  1  0  0  0  0
  1  3  1  0  0  0  0
  1  4  1  0  0  0  0
  1  5  1  0  0  0  0
  5  6  1  0  0  0  0
  5  7  1  0  0  0  0
  5  8  1  0  0  0  0
  8  9  1  0  0  0  0
  8 10  1  0  0  0  0
  8 11  1  0  0  0  0
 11 12  1  0  0  0  0
 11 13  1  0  0  0  0
 11 14  1  0  0  0  0
 14 15  1  0  0  0  0
 14 16  1  0  0  0  0
 14 17  1  0  0  0  0
 17 18  1  0  0  0  0
 17 19  1  0  0  0  0
 17 20  1  0  0  0  0
 20 21  1  0  0  0  0
 20 22  1  0  0  0  0
 20 23  1  0  0  0  0
M  END
> <VM2 Rank>
44

> <Conf_Id>
343

> <Probability>
0.10

> <Sum Probability>
99.09

> <Delta G>
2.836

> <G>
40.753

> <E>
13.107

> <-TS>
27.646

> <U+W>
-5.672

> <U>
50.133

> <W>
-55.805

> <W(PB)>
-57.921

> <W(SA)>
2.116

> <Valence>
4.276

> <Coulomb>
45.339

> <VdW>
0.519

> <VdW6>
-6.084

> <VdW12>
6.602

> <Bond>
0.193

> <Angle>
1.128

> <Pdih>
2.955

> <Idih>
0.000

> <Tether>
0.000

$$$$
VeraChem MOL file


 23 22  0  0  0  0  0  0  0  0999 V2000     
   19.0065   18.1394   25.5663 N   0  3  0  0  0  0  0  0  0  0  0  0
   19.0266   18.8470   26.3078 H   0  0  0  0  0  0  0  0  0  0  0  0
   19.7571   17.4708   25.7674 H   0  0  0  0  0  0  0  0  0  0  0  0
   18.1208   17.6314   25.6634 H   0  0  0  0  0  0  0  0  0  0  0  0
   19.1535   18.7576   24.1908 C   0  0  0  0  0  0  0  0  0  0  0  0
   18.3102   19.4354   24.0328 H   0  0  0  0  0  0  0  0  0  0  0  0
   19.0942   17.9512   23.4559 H   0  0  0  0  0  0  0  0  0  0  0  0
   20.4761   19.5238   24.0120 C   0  0  0  0  0  0  0  0  0  0  0  0
   20.5703   20.2614   24.8201 H   0  0  0  0  0  0  0  0  0  0  0  0
   21.3185   18.8288   24.1269 H   0  0  0  0  0  0  0  0  0  0  0  0
   20.5947   20.2622   22.6548 C   0  0  0  0  0  0  0  0  0  0  0  0
   21.5374   20.8267   22.6675 H   0  0  0  0  0  0  0  0  0  0  0  0
   19.7995   21.0148   22.5618 H   0  0  0  0  0  0  0  0  0  0  0  0
   20.6059   19.3354   21.4109 C   0  0  0  0  0  0  0  0  0  0  0  0
   21.2158   19.8137   20.6318 H   0  0  0  0  0  0  0  0  0  0  0  0
   21.1094   18.3886   21.6503 H   0  0  0  0  0  0  0  0  0  0  0  0
   19.2012   19.0641   20.8192 C   0  0  0  0  0  0  0  0  0  0  0  0
   18.7204   20.0175   20.5590 H   0  0  0  0  0  0  0  0  0  0  0  0
   18.5533   18.5786   21.5581 H   0  0  0  0  0  0  0  0  0  0  0  0
   19.2780   18.1745   19.5601 C   0  0  0  0  0  0  0  0  0  0  0  0
   19.7252   17.1993   19.7928 H   0  0  0  0  0  0  0  0  0  0  0  0
   19.8826   18.6497   18.7766 H   0  0  0  0  0  0  0  0  0  0  0  0
   18.2756   17.9961   19.1498 H   0  0  0  0  0  0  0  0  0  0  0  0
  1  2  1  0  0  0  0
  1  3  1  0  0  0  0
  1  4  1  0  0  0  0
  1  5  1  0  0  0  0
  5  6  1  0  0  0  0
  5  7  1  0  0  0  0
  5  8  1  0  0  0  0
  8  9  1  0  0  0  0
  8 10  1  0  0  0  0
  8 11  1  0  0  0  0
 11 12  1  0  0  0  0
 11 13  1  0  0  0  0
 11 14  1  0  0  0  0
 14 15  1  0  0  0  0
 14 16  1  0  0  0  0
 14 17  1  0  0  0  0
 17 18  1  0  0  0  0
 17 19  1  0  0  0  0
 17 20  1  0  0  0  0
 20 21  1  0  0  0  0
 20 22  1  0  0  0  0
 20 23  1  0  0  0  0
M  END
> <VM2 Rank>
45

> <Conf_Id>
861

> <Probability>
0.10

> <Sum Probability>
99.19

> <Delta G>
2.882

> <G>
40.799

> <E>
13.152

> <-TS>
27.646

> <U+W>
-5.627

> <U>
50.134

> <W>
-55.760

> <W(PB)>
-57.887

> <W(SA)>
2.126

> <Valence>
4.276

> <Coulomb>
45.339

> <VdW>
0.519

> <VdW6>
-6.084

> <VdW12>
6.603

> <Bond>
0.193

> <Angle>
1.127

> <Pdih>
2.955

> <Idih>
0.000

> <Tether>
0.000

$$$$
VeraChem MOL file


 23 22  0  0  0  0  0  0  0  0999 V2000     
   20.0625   17.8546   24.9967 N   0  3  0  0  0  0  0  0  0  0  0  0
   19.1640   17.5587   25.3916 H   0  0  0  0  0  0  0  0  0  0  0  0
   20.7949   17.4771   25.6075 H   0  0  0  0  0  0  0  0  0  0  0  0
   20.1603   17.3938   24.0881 H   0  0  0  0  0  0  0  0  0  0  0  0
   20.1536   19.3635   24.8769 C   0  0  0  0  0  0  0  0  0  0  0  0
   21.1484   19.6237   24.5055 H   0  0  0  0  0  0  0  0  0  0  0  0
   20.0525   19.7697   25.8870 H   0  0  0  0  0  0  0  0  0  0  0  0
   19.0752   19.9954   23.9722 C   0  0  0  0  0  0  0  0  0  0  0  0
   18.0972   19.5401   24.1774 H   0  0  0  0  0  0  0  0  0  0  0  0
   18.9803   21.0523   24.2546 H   0  0  0  0  0  0  0  0  0  0  0  0
   19.3923   19.9357   22.4559 C   0  0  0  0  0  0  0  0  0  0  0  0
   20.3490   20.4414   22.2689 H   0  0  0  0  0  0  0  0  0  0  0  0
   18.6275   20.5176   21.9232 H   0  0  0  0  0  0  0  0  0  0  0  0
   19.4315   18.5033   21.8673 C   0  0  0  0  0  0  0  0  0  0  0  0
   20.3102   17.9665   22.2458 H   0  0  0  0  0  0  0  0  0  0  0  0
   18.5458   17.9480   22.2056 H   0  0  0  0  0  0  0  0  0  0  0  0
   19.4642   18.4799   20.3200 C   0  0  0  0  0  0  0  0  0  0  0  0
   18.5734   18.9851   19.9213 H   0  0  0  0  0  0  0  0  0  0  0  0
   19.4028   17.4364   19.9806 H   0  0  0  0  0  0  0  0  0  0  0  0
   20.7368   19.1246   19.7250 C   0  0  0  0  0  0  0  0  0  0  0  0
   20.7843   20.1985   19.9444 H   0  0  0  0  0  0  0  0  0  0  0  0
   20.7514   19.0097   18.6334 H   0  0  0  0  0  0  0  0  0  0  0  0
   21.6431   18.6513   20.1244 H   0  0  0  0  0  0  0  0  0  0  0  0
  1  2  1  0  0  0  0
  1  3  1  0  0  0  0
  1  4  1  0  0  0  0
  1  5  1  0  0  0  0
  5  6  1  0  0  0  0
  5  7  1  0  0  0  0
  5  8  1  0  0  0  0
  8  9  1  0  0  0  0
  8 10  1  0  0  0  0
  8 11  1  0  0  0  0
 11 12  1  0  0  0  0
 11 13  1  0  0  0  0
 11 14  1  0  0  0  0
 14 15  1  0  0  0  0
 14 16  1  0  0  0  0
 14 17  1  0  0  0  0
 17 18  1  0  0  0  0
 17 19  1  0  0  0  0
 17 20  1  0  0  0  0
 20 21  1  0  0  0  0
 20 22  1  0  0  0  0
 20 23  1  0  0  0  0
M  END
> <VM2 Rank>
46

> <Conf_Id>
868

> <Probability>
0.05

> <Sum Probability>
99.24

> <Delta G>
3.293

> <G>
41.209

> <E>
13.408

> <-TS>
27.801

> <U+W>
-5.371

> <U>
50.658

> <W>
-56.029

> <W(PB)>
-58.111

> <W(SA)>
2.082

> <Valence>
3.782

> <Coulomb>
46.354

> <VdW>
0.522

> <VdW6>
-6.754

> <VdW12>
7.276

> <Bond>
0.207

> <Angle>
1.136

> <Pdih>
2.439

> <Idih>
0.000

> <Tether>
0.000

$$$$
VeraChem MOL file


 23 22  0  0  0  0  0  0  0  0999 V2000     
   20.3685   18.3573   25.8665 N   0  3  0  0  0  0  0  0  0  0  0  0
   20.5986   18.8005   26.7625 H   0  0  0  0  0  0  0  0  0  0  0  0
   21.2124   17.8685   25.5508 H   0  0  0  0  0  0  0  0  0  0  0  0
   19.6605   17.6421   26.0615 H   0  0  0  0  0  0  0  0  0  0  0  0
   19.8851   19.3683   24.8466 C   0  0  0  0  0  0  0  0  0  0  0  0
   20.6736   20.1133   24.7099 H   0  0  0  0  0  0  0  0  0  0  0  0
   19.0059   19.8702   25.2596 H   0  0  0  0  0  0  0  0  0  0  0  0
   19.5302   18.7351   23.4896 C   0  0  0  0  0  0  0  0  0  0  0  0
   20.4093   18.2135   23.0948 H   0  0  0  0  0  0  0  0  0  0  0  0
   18.7503   17.9763   23.6367 H   0  0  0  0  0  0  0  0  0  0  0  0
   19.0313   19.8008   22.4842 C   0  0  0  0  0  0  0  0  0  0  0  0
   19.7781   20.5986   22.3695 H   0  0  0  0  0  0  0  0  0  0  0  0
   18.1387   20.2799   22.9103 H   0  0  0  0  0  0  0  0  0  0  0  0
   18.6590   19.2162   21.0965 C   0  0  0  0  0  0  0  0  0  0  0  0
   18.3077   18.1803   21.2003 H   0  0  0  0  0  0  0  0  0  0  0  0
   17.8011   19.7813   20.7065 H   0  0  0  0  0  0  0  0  0  0  0  0
   19.7871   19.2925   20.0359 C   0  0  0  0  0  0  0  0  0  0  0  0
   20.0598   20.3429   19.8629 H   0  0  0  0  0  0  0  0  0  0  0  0
   19.3922   18.9199   19.0803 H   0  0  0  0  0  0  0  0  0  0  0  0
   21.0548   18.4869   20.3947 C   0  0  0  0  0  0  0  0  0  0  0  0
   21.5815   18.9318   21.2478 H   0  0  0  0  0  0  0  0  0  0  0  0
   21.7540   18.4757   19.5486 H   0  0  0  0  0  0  0  0  0  0  0  0
   20.8072   17.4459   20.6393 H   0  0  0  0  0  0  0  0  0  0  0  0
  1  2  1  0  0  0  0
  1  3  1  0  0  0  0
  1  4  1  0  0  0  0
  1  5  1  0  0  0  0
  5  6  1  0  0  0  0
  5  7  1  0  0  0  0
  5  8  1  0  0  0  0
  8  9  1  0  0  0  0
  8 10  1  0  0  0  0
  8 11  1  0  0  0  0
 11 12  1  0  0  0  0
 11 13  1  0  0  0  0
 11 14  1  0  0  0  0
 14 15  1  0  0  0  0
 14 16  1  0  0  0  0
 14 17  1  0  0  0  0
 17 18  1  0  0  0  0
 17 19  1  0  0  0  0
 17 20  1  0  0  0  0
 20 21  1  0  0  0  0
 20 22  1  0  0  0  0
 20 23  1  0  0  0  0
M  END
> <VM2 Rank>
47

> <Conf_Id>
462

> <Probability>
0.05

> <Sum Probability>
99.28

> <Delta G>
3.302

> <G>
41.218

> <E>
13.357

> <-TS>
27.861

> <U+W>
-5.422

> <U>
50.253

> <W>
-55.675

> <W(PB)>
-57.772

> <W(SA)>
2.097

> <Valence>
4.702

> <Coulomb>
44.992

> <VdW>
0.559

> <VdW6>
-6.152

> <VdW12>
6.711

> <Bond>
0.198

> <Angle>
1.163

> <Pdih>
3.340

> <Idih>
0.000

> <Tether>
0.000

$$$$
VeraChem MOL file


 23 22  0  0  0  0  0  0  0  0999 V2000     
   19.5597   18.0207   25.8296 N   0  3  0  0  0  0  0  0  0  0  0  0
   19.3378   17.0887   25.4652 H   0  0  0  0  0  0  0  0  0  0  0  0
   19.0151   18.1416   26.6903 H   0  0  0  0  0  0  0  0  0  0  0  0
   20.5480   18.0110   26.1017 H   0  0  0  0  0  0  0  0  0  0  0  0
   19.2625   19.1093   24.8183 C   0  0  0  0  0  0  0  0  0  0  0  0
   19.4924   20.0724   25.2819 H   0  0  0  0  0  0  0  0  0  0  0  0
   18.1921   19.0812   24.5970 H   0  0  0  0  0  0  0  0  0  0  0  0
   20.0649   18.9576   23.5139 C   0  0  0  0  0  0  0  0  0  0  0  0
   21.1383   18.9697   23.7454 H   0  0  0  0  0  0  0  0  0  0  0  0
   19.8479   17.9800   23.0692 H   0  0  0  0  0  0  0  0  0  0  0  0
   19.7386   20.0951   22.5165 C   0  0  0  0  0  0  0  0  0  0  0  0
   19.9928   21.0513   22.9948 H   0  0  0  0  0  0  0  0  0  0  0  0
   18.6584   20.1329   22.3185 H   0  0  0  0  0  0  0  0  0  0  0  0
   20.5214   19.9911   21.1813 C   0  0  0  0  0  0  0  0  0  0  0  0
   20.7536   21.0098   20.8410 H   0  0  0  0  0  0  0  0  0  0  0  0
   21.4934   19.5059   21.3454 H   0  0  0  0  0  0  0  0  0  0  0  0
   19.7579   19.2803   20.0346 C   0  0  0  0  0  0  0  0  0  0  0  0
   20.3730   19.3280   19.1250 H   0  0  0  0  0  0  0  0  0  0  0  0
   18.8361   19.8337   19.8071 H   0  0  0  0  0  0  0  0  0  0  0  0
   19.4108   17.8028   20.3198 C   0  0  0  0  0  0  0  0  0  0  0  0
   20.3028   17.2360   20.6164 H   0  0  0  0  0  0  0  0  0  0  0  0
   18.9937   17.3271   19.4228 H   0  0  0  0  0  0  0  0  0  0  0  0
   18.6599   17.7162   21.1146 H   0  0  0  0  0  0  0  0  0  0  0  0
  1  2  1  0  0  0  0
  1  3  1  0  0  0  0
  1  4  1  0  0  0  0
  1  5  1  0  0  0  0
  5  6  1  0  0  0  0
  5  7  1  0  0  0  0
  5  8  1  0  0  0  0
  8  9  1  0  0  0  0
  8 10  1  0  0  0  0
  8 11  1  0  0  0  0
 11 12  1  0  0  0  0
 11 13  1  0  0  0  0
 11 14  1  0  0  0  0
 14 15  1  0  0  0  0
 14 16  1  0  0  0  0
 14 17  1  0  0  0  0
 17 18  1  0  0  0  0
 17 19  1  0  0  0  0
 17 20  1  0  0  0  0
 20 21  1  0  0  0  0
 20 22  1  0  0  0  0
 20 23  1  0  0  0  0
M  END
> <VM2 Rank>
48

> <Conf_Id>
273

> <Probability>
0.04

> <Sum Probability>
99.33

> <Delta G>
3.353

> <G>
41.269

> <E>
13.408

> <-TS>
27.862

> <U+W>
-5.371

> <U>
50.253

> <W>
-55.624

> <W(PB)>
-57.711

> <W(SA)>
2.087

> <Valence>
4.702

> <Coulomb>
44.992

> <VdW>
0.559

> <VdW6>
-6.152

> <VdW12>
6.711

> <Bond>
0.198

> <Angle>
1.163

> <Pdih>
3.340

> <Idih>
0.000

> <Tether>
0.000

$$$$
VeraChem MOL file


 23 22  0  0  0  0  0  0  0  0999 V2000     
   20.1977   17.9108   25.0029 N   0  3  0  0  0  0  0  0  0  0  0  0
   19.9033   17.1063   25.5670 H   0  0  0  0  0  0  0  0  0  0  0  0
   21.0074   18.3252   25.4754 H   0  0  0  0  0  0  0  0  0  0  0  0
   20.5255   17.5455   24.1047 H   0  0  0  0  0  0  0  0  0  0  0  0
   19.0749   18.9149   24.8278 C   0  0  0  0  0  0  0  0  0  0  0  0
   18.7801   19.2405   25.8291 H   0  0  0  0  0  0  0  0  0  0  0  0
   18.2210   18.4063   24.3723 H   0  0  0  0  0  0  0  0  0  0  0  0
   19.4550   20.1533   23.9895 C   0  0  0  0  0  0  0  0  0  0  0  0
   18.7516   20.9572   24.2442 H   0  0  0  0  0  0  0  0  0  0  0  0
   20.4479   20.5177   24.2845 H   0  0  0  0  0  0  0  0  0  0  0  0
   19.3922   19.9357   22.4559 C   0  0  0  0  0  0  0  0  0  0  0  0
   19.5584   20.9048   21.9657 H   0  0  0  0  0  0  0  0  0  0  0  0
   18.3770   19.6212   22.1791 H   0  0  0  0  0  0  0  0  0  0  0  0
   20.4243   18.9162   21.9125 C   0  0  0  0  0  0  0  0  0  0  0  0
   21.4130   19.1405   22.3361 H   0  0  0  0  0  0  0  0  0  0  0  0
   20.1581   17.9033   22.2388 H   0  0  0  0  0  0  0  0  0  0  0  0
   20.5378   18.9265   20.3689 C   0  0  0  0  0  0  0  0  0  0  0  0
   21.3460   18.2447   20.0690 H   0  0  0  0  0  0  0  0  0  0  0  0
   20.8364   19.9265   20.0244 H   0  0  0  0  0  0  0  0  0  0  0  0
   19.2342   18.4996   19.6566 C   0  0  0  0  0  0  0  0  0  0  0  0
   18.9020   17.5112   19.9997 H   0  0  0  0  0  0  0  0  0  0  0  0
   19.3899   18.4433   18.5714 H   0  0  0  0  0  0  0  0  0  0  0  0
   18.4236   19.2166   19.8368 H   0  0  0  0  0  0  0  0  0  0  0  0
  1  2  1  0  0  0  0
  1  3  1  0  0  0  0
  1  4  1  0  0  0  0
  1  5  1  0  0  0  0
  5  6  1  0  0  0  0
  5  7  1  0  0  0  0
  5  8  1  0  0  0  0
  8  9  1  0  0  0  0
  8 10  1  0  0  0  0
  8 11  1  0  0  0  0
 11 12  1  0  0  0  0
 11 13  1  0  0  0  0
 11 14  1  0  0  0  0
 14 15  1  0  0  0  0
 14 16  1  0  0  0  0
 14 17  1  0  0  0  0
 17 18  1  0  0  0  0
 17 19  1  0  0  0  0
 17 20  1  0  0  0  0
 20 21  1  0  0  0  0
 20 22  1  0  0  0  0
 20 23  1  0  0  0  0
M  END
> <VM2 Rank>
49

> <Conf_Id>
544

> <Probability>
0.04

> <Sum Probability>
99.37

> <Delta G>
3.366

> <G>
41.282

> <E>
13.481

> <-TS>
27.801

> <U+W>
-5.298

> <U>
50.658

> <W>
-55.956

> <W(PB)>
-58.038

> <W(SA)>
2.082

> <Valence>
3.782

> <Coulomb>
46.354

> <VdW>
0.522

> <VdW6>
-6.753

> <VdW12>
7.276

> <Bond>
0.207

> <Angle>
1.137

> <Pdih>
2.439

> <Idih>
0.000

> <Tether>
0.000

$$$$
VeraChem MOL file


 23 22  0  0  0  0  0  0  0  0999 V2000     
   18.8079   18.3035   25.1311 N   0  3  0  0  0  0  0  0  0  0  0  0
   19.3792   18.2854   25.9820 H   0  0  0  0  0  0  0  0  0  0  0  0
   19.0384   17.4624   24.5939 H   0  0  0  0  0  0  0  0  0  0  0  0
   17.8299   18.2126   25.4264 H   0  0  0  0  0  0  0  0  0  0  0  0
   19.0376   19.5674   24.3255 C   0  0  0  0  0  0  0  0  0  0  0  0
   18.7346   20.4132   24.9488 H   0  0  0  0  0  0  0  0  0  0  0  0
   18.3778   19.5366   23.4569 H   0  0  0  0  0  0  0  0  0  0  0  0
   20.5029   19.7645   23.8823 C   0  0  0  0  0  0  0  0  0  0  0  0
   20.6177   20.7601   23.4337 H   0  0  0  0  0  0  0  0  0  0  0  0
   21.1331   19.7662   24.7817 H   0  0  0  0  0  0  0  0  0  0  0  0
   21.0326   18.6855   22.8999 C   0  0  0  0  0  0  0  0  0  0  0  0
   20.6711   17.6895   23.1864 H   0  0  0  0  0  0  0  0  0  0  0  0
   22.1255   18.6412   23.0054 H   0  0  0  0  0  0  0  0  0  0  0  0
   20.7230   18.9510   21.4035 C   0  0  0  0  0  0  0  0  0  0  0  0
   21.1819   19.9011   21.0970 H   0  0  0  0  0  0  0  0  0  0  0  0
   21.2174   18.1696   20.8100 H   0  0  0  0  0  0  0  0  0  0  0  0
   19.2183   18.9703   21.0491 C   0  0  0  0  0  0  0  0  0  0  0  0
   18.7399   19.8497   21.4987 H   0  0  0  0  0  0  0  0  0  0  0  0
   18.7241   18.0810   21.4644 H   0  0  0  0  0  0  0  0  0  0  0  0
   18.9936   19.0148   19.5226 C   0  0  0  0  0  0  0  0  0  0  0  0
   19.4559   19.9076   19.0817 H   0  0  0  0  0  0  0  0  0  0  0  0
   17.9213   19.0405   19.2893 H   0  0  0  0  0  0  0  0  0  0  0  0
   19.4229   18.1306   19.0336 H   0  0  0  0  0  0  0  0  0  0  0  0
  1  2  1  0  0  0  0
  1  3  1  0  0  0  0
  1  4  1  0  0  0  0
  1  5  1  0  0  0  0
  5  6  1  0  0  0  0
  5  7  1  0  0  0  0
  5  8  1  0  0  0  0
  8  9  1  0  0  0  0
  8 10  1  0  0  0  0
  8 11  1  0  0  0  0
 11 12  1  0  0  0  0
 11 13  1  0  0  0  0
 11 14  1  0  0  0  0
 14 15  1  0  0  0  0
 14 16  1  0  0  0  0
 14 17  1  0  0  0  0
 17 18  1  0  0  0  0
 17 19  1  0  0  0  0
 17 20  1  0  0  0  0
 20 21  1  0  0  0  0
 20 22  1  0  0  0  0
 20 23  1  0  0  0  0
M  END
> <VM2 Rank>
50

> <Conf_Id>
686

> <Probability>
0.04

> <Sum Probability>
99.41

> <Delta G>
3.401

> <G>
41.317

> <E>
13.418

> <-TS>
27.899

> <U+W>
-5.361

> <U>
50.743

> <W>
-56.104

> <W(PB)>
-58.187

> <W(SA)>
2.083

> <Valence>
4.299

> <Coulomb>
45.941

> <VdW>
0.503

> <VdW6>
-6.823

> <VdW12>
7.326

> <Bond>
0.216

> <Angle>
1.354

> <Pdih>
2.729

> <Idih>
0.000

> <Tether>
0.000

$$$$
VeraChem MOL file


 23 22  0  0  0  0  0  0  0  0999 V2000     
   19.5926   17.9219   25.7385 N   0  3  0  0  0  0  0  0  0  0  0  0
   20.5131   17.4723   25.7020 H   0  0  0  0  0  0  0  0  0  0  0  0
   18.9056   17.2293   25.4236 H   0  0  0  0  0  0  0  0  0  0  0  0
   19.3928   18.1118   26.7265 H   0  0  0  0  0  0  0  0  0  0  0  0
   19.5467   19.1849   24.9026 C   0  0  0  0  0  0  0  0  0  0  0  0
   20.2793   19.8864   25.3108 H   0  0  0  0  0  0  0  0  0  0  0  0
   18.5518   19.6254   25.0107 H   0  0  0  0  0  0  0  0  0  0  0  0
   19.8432   18.9345   23.4133 C   0  0  0  0  0  0  0  0  0  0  0  0
   20.8370   18.4791   23.3100 H   0  0  0  0  0  0  0  0  0  0  0  0
   19.1097   18.2191   23.0214 H   0  0  0  0  0  0  0  0  0  0  0  0
   19.7825   20.2463   22.5984 C   0  0  0  0  0  0  0  0  0  0  0  0
   20.4206   20.9973   23.0848 H   0  0  0  0  0  0  0  0  0  0  0  0
   18.7603   20.6483   22.6298 H   0  0  0  0  0  0  0  0  0  0  0  0
   20.2365   20.1064   21.1222 C   0  0  0  0  0  0  0  0  0  0  0  0
   20.1937   21.1061   20.6679 H   0  0  0  0  0  0  0  0  0  0  0  0
   21.2929   19.8075   21.0782 H   0  0  0  0  0  0  0  0  0  0  0  0
   19.3719   19.1490   20.2619 C   0  0  0  0  0  0  0  0  0  0  0  0
   19.3158   19.5511   19.2406 H   0  0  0  0  0  0  0  0  0  0  0  0
   18.3384   19.1280   20.6350 H   0  0  0  0  0  0  0  0  0  0  0  0
   19.9425   17.7139   20.1770 C   0  0  0  0  0  0  0  0  0  0  0  0
   19.3064   17.0851   19.5408 H   0  0  0  0  0  0  0  0  0  0  0  0
   20.0044   17.2348   21.1602 H   0  0  0  0  0  0  0  0  0  0  0  0
   20.9494   17.7181   19.7396 H   0  0  0  0  0  0  0  0  0  0  0  0
  1  2  1  0  0  0  0
  1  3  1  0  0  0  0
  1  4  1  0  0  0  0
  1  5  1  0  0  0  0
  5  6  1  0  0  0  0
  5  7  1  0  0  0  0
  5  8  1  0  0  0  0
  8  9  1  0  0  0  0
  8 10  1  0  0  0  0
  8 11  1  0  0  0  0
 11 12  1  0  0  0  0
 11 13  1  0  0  0  0
 11 14  1  0  0  0  0
 14 15  1  0  0  0  0
 14 16  1  0  0  0  0
 14 17  1  0  0  0  0
 17 18  1  0  0  0  0
 17 19  1  0  0  0  0
 17 20  1  0  0  0  0
 20 21  1  0  0  0  0
 20 22  1  0  0  0  0
 20 23  1  0  0  0  0
M  END
> <VM2 Rank>
51

> <Conf_Id>
550

> <Probability>
0.04

> <Sum Probability>
99.45

> <Delta G>
3.401

> <G>
41.318

> <E>
13.465

> <-TS>
27.853

> <U+W>
-5.314

> <U>
50.301

> <W>
-55.615

> <W(PB)>
-57.714

> <W(SA)>
2.099

> <Valence>
4.724

> <Coulomb>
45.004

> <VdW>
0.574

> <VdW6>
-6.145

> <VdW12>
6.719

> <Bond>
0.198

> <Angle>
1.201

> <Pdih>
3.325

> <Idih>
0.000

> <Tether>
0.000

$$$$
VeraChem MOL file


 23 22  0  0  0  0  0  0  0  0999 V2000     
   20.4226   18.2673   25.7763 N   0  3  0  0  0  0  0  0  0  0  0  0
   21.4196   18.2754   25.5383 H   0  0  0  0  0  0  0  0  0  0  0  0
   20.0979   17.2995   25.6831 H   0  0  0  0  0  0  0  0  0  0  0  0
   20.3517   18.5108   26.7702 H   0  0  0  0  0  0  0  0  0  0  0  0
   19.6253   19.2176   24.9061 C   0  0  0  0  0  0  0  0  0  0  0  0
   20.0033   20.2293   25.0768 H   0  0  0  0  0  0  0  0  0  0  0  0
   18.5828   19.1804   25.2335 H   0  0  0  0  0  0  0  0  0  0  0  0
   19.7101   18.8791   23.4072 C   0  0  0  0  0  0  0  0  0  0  0  0
   20.7619   18.9065   23.0967 H   0  0  0  0  0  0  0  0  0  0  0  0
   19.3431   17.8575   23.2418 H   0  0  0  0  0  0  0  0  0  0  0  0
   18.8870   19.8738   22.5576 C   0  0  0  0  0  0  0  0  0  0  0  0
   19.3174   20.8801   22.6552 H   0  0  0  0  0  0  0  0  0  0  0  0
   17.8696   19.9360   22.9685 H   0  0  0  0  0  0  0  0  0  0  0  0
   18.7819   19.5013   21.0559 C   0  0  0  0  0  0  0  0  0  0  0  0
   18.2555   18.5439   20.9397 H   0  0  0  0  0  0  0  0  0  0  0  0
   18.1395   20.2515   20.5743 H   0  0  0  0  0  0  0  0  0  0  0  0
   20.1335   19.4658   20.2967 C   0  0  0  0  0  0  0  0  0  0  0  0
   20.8448   20.1707   20.7493 H   0  0  0  0  0  0  0  0  0  0  0  0
   19.9674   19.8223   19.2704 H   0  0  0  0  0  0  0  0  0  0  0  0
   20.7555   18.0521   20.2140 C   0  0  0  0  0  0  0  0  0  0  0  0
   21.6965   18.0794   19.6495 H   0  0  0  0  0  0  0  0  0  0  0  0
   20.0797   17.3564   19.7001 H   0  0  0  0  0  0  0  0  0  0  0  0
   20.9752   17.6386   21.2043 H   0  0  0  0  0  0  0  0  0  0  0  0
  1  2  1  0  0  0  0
  1  3  1  0  0  0  0
  1  4  1  0  0  0  0
  1  5  1  0  0  0  0
  5  6  1  0  0  0  0
  5  7  1  0  0  0  0
  5  8  1  0  0  0  0
  8  9  1  0  0  0  0
  8 10  1  0  0  0  0
  8 11  1  0  0  0  0
 11 12  1  0  0  0  0
 11 13  1  0  0  0  0
 11 14  1  0  0  0  0
 14 15  1  0  0  0  0
 14 16  1  0  0  0  0
 14 17  1  0  0  0  0
 17 18  1  0  0  0  0
 17 19  1  0  0  0  0
 17 20  1  0  0  0  0
 20 21  1  0  0  0  0
 20 22  1  0  0  0  0
 20 23  1  0  0  0  0
M  END
> <VM2 Rank>
52

> <Conf_Id>
359

> <Probability>
0.04

> <Sum Probability>
99.48

> <Delta G>
3.454

> <G>
41.370

> <E>
13.518

> <-TS>
27.852

> <U+W>
-5.261

> <U>
50.301

> <W>
-55.563

> <W(PB)>
-57.697

> <W(SA)>
2.134

> <Valence>
4.724

> <Coulomb>
45.004

> <VdW>
0.574

> <VdW6>
-6.145

> <VdW12>
6.719

> <Bond>
0.198

> <Angle>
1.201

> <Pdih>
3.325

> <Idih>
0.000

> <Tether>
0.000

$$$$
VeraChem MOL file


 23 22  0  0  0  0  0  0  0  0999 V2000     
   20.7499   19.1125   25.2201 N   0  3  0  0  0  0  0  0  0  0  0  0
   21.4773   19.7318   25.5931 H   0  0  0  0  0  0  0  0  0  0  0  0
   21.2259   18.3735   24.6944 H   0  0  0  0  0  0  0  0  0  0  0  0
   20.2958   18.6677   26.0242 H   0  0  0  0  0  0  0  0  0  0  0  0
   19.7560   19.8667   24.3582 C   0  0  0  0  0  0  0  0  0  0  0  0
   20.3082   20.3402   23.5449 H   0  0  0  0  0  0  0  0  0  0  0  0
   19.3208   20.6575   24.9752 H   0  0  0  0  0  0  0  0  0  0  0  0
   18.6231   18.9815   23.7965 C   0  0  0  0  0  0  0  0  0  0  0  0
   18.1100   18.5073   24.6437 H   0  0  0  0  0  0  0  0  0  0  0  0
   17.8720   19.6165   23.3082 H   0  0  0  0  0  0  0  0  0  0  0  0
   19.0926   17.8773   22.8115 C   0  0  0  0  0  0  0  0  0  0  0  0
   18.3494   17.0682   22.8335 H   0  0  0  0  0  0  0  0  0  0  0  0
   20.0297   17.4224   23.1573 H   0  0  0  0  0  0  0  0  0  0  0  0
   19.2375   18.3320   21.3358 C   0  0  0  0  0  0  0  0  0  0  0  0
   19.4908   17.4500   20.7313 H   0  0  0  0  0  0  0  0  0  0  0  0
   18.2661   18.6862   20.9641 H   0  0  0  0  0  0  0  0  0  0  0  0
   20.3064   19.4235   21.0986 C   0  0  0  0  0  0  0  0  0  0  0  0
   21.2510   19.1337   21.5794 H   0  0  0  0  0  0  0  0  0  0  0  0
   19.9837   20.3678   21.5553 H   0  0  0  0  0  0  0  0  0  0  0  0
   20.5505   19.6635   19.5934 C   0  0  0  0  0  0  0  0  0  0  0  0
   20.9140   18.7519   19.1014 H   0  0  0  0  0  0  0  0  0  0  0  0
   21.3023   20.4491   19.4431 H   0  0  0  0  0  0  0  0  0  0  0  0
   19.6277   19.9793   19.0895 H   0  0  0  0  0  0  0  0  0  0  0  0
  1  2  1  0  0  0  0
  1  3  1  0  0  0  0
  1  4  1  0  0  0  0
  1  5  1  0  0  0  0
  5  6  1  0  0  0  0
  5  7  1  0  0  0  0
  5  8  1  0  0  0  0
  8  9  1  0  0  0  0
  8 10  1  0  0  0  0
  8 11  1  0  0  0  0
 11 12  1  0  0  0  0
 11 13  1  0  0  0  0
 11 14  1  0  0  0  0
 14 15  1  0  0  0  0
 14 16  1  0  0  0  0
 14 17  1  0  0  0  0
 17 18  1  0  0  0  0
 17 19  1  0  0  0  0
 17 20  1  0  0  0  0
 20 21  1  0  0  0  0
 20 22  1  0  0  0  0
 20 23  1  0  0  0  0
M  END
> <VM2 Rank>
53

> <Conf_Id>
134

> <Probability>
0.04

> <Sum Probability>
99.52

> <Delta G>
3.460

> <G>
41.377

> <E>
13.478

> <-TS>
27.899

> <U+W>
-5.301

> <U>
50.742

> <W>
-56.044

> <W(PB)>
-58.112

> <W(SA)>
2.068

> <Valence>
4.299

> <Coulomb>
45.940

> <VdW>
0.503

> <VdW6>
-6.823

> <VdW12>
7.326

> <Bond>
0.215

> <Angle>
1.353

> <Pdih>
2.730

> <Idih>
0.000

> <Tether>
0.000

$$$$
VeraChem MOL file


 23 22  0  0  0  0  0  0  0  0999 V2000     
   19.0032   18.0593   25.0903 N   0  3  0  0  0  0  0  0  0  0  0  0
   19.6920   17.3464   25.3515 H   0  0  0  0  0  0  0  0  0  0  0  0
   18.5831   17.7634   24.2052 H   0  0  0  0  0  0  0  0  0  0  0  0
   18.2632   18.0321   25.8000 H   0  0  0  0  0  0  0  0  0  0  0  0
   19.6316   19.4357   24.9866 C   0  0  0  0  0  0  0  0  0  0  0  0
   20.0446   19.6712   25.9713 H   0  0  0  0  0  0  0  0  0  0  0  0
   18.8455   20.1630   24.7667 H   0  0  0  0  0  0  0  0  0  0  0  0
   20.7546   19.5427   23.9338 C   0  0  0  0  0  0  0  0  0  0  0  0
   21.4049   20.3786   24.2241 H   0  0  0  0  0  0  0  0  0  0  0  0
   21.3868   18.6453   23.9648 H   0  0  0  0  0  0  0  0  0  0  0  0
   20.2617   19.8064   22.4877 C   0  0  0  0  0  0  0  0  0  0  0  0
   21.1463   19.9765   21.8611 H   0  0  0  0  0  0  0  0  0  0  0  0
   19.6847   20.7411   22.4633 H   0  0  0  0  0  0  0  0  0  0  0  0
   19.4128   18.6605   21.8817 C   0  0  0  0  0  0  0  0  0  0  0  0
   19.9520   17.7073   21.9707 H   0  0  0  0  0  0  0  0  0  0  0  0
   18.4841   18.5565   22.4556 H   0  0  0  0  0  0  0  0  0  0  0  0
   19.0244   18.8973   20.4018 C   0  0  0  0  0  0  0  0  0  0  0  0
   18.5015   19.8589   20.3029 H   0  0  0  0  0  0  0  0  0  0  0  0
   18.3039   18.1241   20.1002 H   0  0  0  0  0  0  0  0  0  0  0  0
   20.2276   18.8551   19.4320 C   0  0  0  0  0  0  0  0  0  0  0  0
   19.8841   18.9257   18.3918 H   0  0  0  0  0  0  0  0  0  0  0  0
   20.7869   17.9164   19.5370 H   0  0  0  0  0  0  0  0  0  0  0  0
   20.9186   19.6888   19.6064 H   0  0  0  0  0  0  0  0  0  0  0  0
  1  2  1  0  0  0  0
  1  3  1  0  0  0  0
  1  4  1  0  0  0  0
  1  5  1  0  0  0  0
  5  6  1  0  0  0  0
  5  7  1  0  0  0  0
  5  8  1  0  0  0  0
  8  9  1  0  0  0  0
  8 10  1  0  0  0  0
  8 11  1  0  0  0  0
 11 12  1  0  0  0  0
 11 13  1  0  0  0  0
 11 14  1  0  0  0  0
 14 15  1  0  0  0  0
 14 16  1  0  0  0  0
 14 17  1  0  0  0  0
 17 18  1  0  0  0  0
 17 19  1  0  0  0  0
 17 20  1  0  0  0  0
 20 21  1  0  0  0  0
 20 22  1  0  0  0  0
 20 23  1  0  0  0  0
M  END
> <VM2 Rank>
54

> <Conf_Id>
511

> <Probability>
0.03

> <Sum Probability>
99.55

> <Delta G>
3.518

> <G>
41.434

> <E>
13.748

> <-TS>
27.687

> <U+W>
-5.032

> <U>
50.916

> <W>
-55.948

> <W(PB)>
-58.032

> <W(SA)>
2.084

> <Valence>
3.987

> <Coulomb>
46.335

> <VdW>
0.594

> <VdW6>
-6.628

> <VdW12>
7.222

> <Bond>
0.215

> <Angle>
1.275

> <Pdih>
2.498

> <Idih>
0.000

> <Tether>
0.000

$$$$
VeraChem MOL file


 23 22  0  0  0  0  0  0  0  0999 V2000     
   20.7892   18.8021   25.1717 N   0  3  0  0  0  0  0  0  0  0  0  0
   20.7902   17.8031   25.4014 H   0  0  0  0  0  0  0  0  0  0  0  0
   21.2730   19.2838   25.9372 H   0  0  0  0  0  0  0  0  0  0  0  0
   21.3622   18.9194   24.3318 H   0  0  0  0  0  0  0  0  0  0  0  0
   19.3817   19.3317   24.9753 C   0  0  0  0  0  0  0  0  0  0  0  0
   19.4358   20.4085   24.7938 H   0  0  0  0  0  0  0  0  0  0  0  0
   18.8488   19.1736   25.9169 H   0  0  0  0  0  0  0  0  0  0  0  0
   18.5993   18.6463   23.8356 C   0  0  0  0  0  0  0  0  0  0  0  0
   18.7883   17.5646   23.8463 H   0  0  0  0  0  0  0  0  0  0  0  0
   17.5285   18.7663   24.0474 H   0  0  0  0  0  0  0  0  0  0  0  0
   18.8709   19.2280   22.4243 C   0  0  0  0  0  0  0  0  0  0  0  0
   18.6161   20.2967   22.4147 H   0  0  0  0  0  0  0  0  0  0  0  0
   18.1780   18.7420   21.7258 H   0  0  0  0  0  0  0  0  0  0  0  0
   20.3250   19.0400   21.9233 C   0  0  0  0  0  0  0  0  0  0  0  0
   21.0061   19.6056   22.5705 H   0  0  0  0  0  0  0  0  0  0  0  0
   20.6143   17.9829   22.0010 H   0  0  0  0  0  0  0  0  0  0  0  0
   20.5448   19.5296   20.4711 C   0  0  0  0  0  0  0  0  0  0  0  0
   21.6213   19.5040   20.2513 H   0  0  0  0  0  0  0  0  0  0  0  0
   20.2387   20.5814   20.3820 H   0  0  0  0  0  0  0  0  0  0  0  0
   19.8052   18.6793   19.4128 C   0  0  0  0  0  0  0  0  0  0  0  0
   20.0690   17.6177   19.5043 H   0  0  0  0  0  0  0  0  0  0  0  0
   20.0770   19.0057   18.4006 H   0  0  0  0  0  0  0  0  0  0  0  0
   18.7164   18.7727   19.5061 H   0  0  0  0  0  0  0  0  0  0  0  0
  1  2  1  0  0  0  0
  1  3  1  0  0  0  0
  1  4  1  0  0  0  0
  1  5  1  0  0  0  0
  5  6  1  0  0  0  0
  5  7  1  0  0  0  0
  5  8  1  0  0  0  0
  8  9  1  0  0  0  0
  8 10  1  0  0  0  0
  8 11  1  0  0  0  0
 11 12  1  0  0  0  0
 11 13  1  0  0  0  0
 11 14  1  0  0  0  0
 14 15  1  0  0  0  0
 14 16  1  0  0  0  0
 14 17  1  0  0  0  0
 17 18  1  0  0  0  0
 17 19  1  0  0  0  0
 17 20  1  0  0  0  0
 20 21  1  0  0  0  0
 20 22  1  0  0  0  0
 20 23  1  0  0  0  0
M  END
> <VM2 Rank>
55

> <Conf_Id>
867

> <Probability>
0.03

> <Sum Probability>
99.59

> <Delta G>
3.522

> <G>
41.438

> <E>
13.751

> <-TS>
27.687

> <U+W>
-5.028

> <U>
50.916

> <W>
-55.944

> <W(PB)>
-58.002

> <W(SA)>
2.058

> <Valence>
3.987

> <Coulomb>
46.335

> <VdW>
0.594

> <VdW6>
-6.628

> <VdW12>
7.222

> <Bond>
0.215

> <Angle>
1.275

> <Pdih>
2.498

> <Idih>
0.000

> <Tether>
0.000

$$$$
VeraChem MOL file


 23 22  0  0  0  0  0  0  0  0999 V2000     
   20.2007   18.0337   25.4169 N   0  3  0  0  0  0  0  0  0  0  0  0
   20.0960   18.6917   26.1959 H   0  0  0  0  0  0  0  0  0  0  0  0
   21.0246   17.4583   25.6218 H   0  0  0  0  0  0  0  0  0  0  0  0
   19.3881   17.4093   25.4386 H   0  0  0  0  0  0  0  0  0  0  0  0
   20.3292   18.7483   24.0871 C   0  0  0  0  0  0  0  0  0  0  0  0
   20.4725   17.9910   23.3143 H   0  0  0  0  0  0  0  0  0  0  0  0
   21.2273   19.3707   24.1253 H   0  0  0  0  0  0  0  0  0  0  0  0
   19.1076   19.6264   23.7543 C   0  0  0  0  0  0  0  0  0  0  0  0
   18.1923   19.0199   23.7523 H   0  0  0  0  0  0  0  0  0  0  0  0
   18.9890   20.3632   24.5599 H   0  0  0  0  0  0  0  0  0  0  0  0
   19.2453   20.3858   22.4101 C   0  0  0  0  0  0  0  0  0  0  0  0
   20.2744   20.7464   22.2800 H   0  0  0  0  0  0  0  0  0  0  0  0
   18.6255   21.2911   22.4707 H   0  0  0  0  0  0  0  0  0  0  0  0
   18.7795   19.5920   21.1593 C   0  0  0  0  0  0  0  0  0  0  0  0
   17.7199   19.3278   21.2807 H   0  0  0  0  0  0  0  0  0  0  0  0
   18.8199   20.2611   20.2887 H   0  0  0  0  0  0  0  0  0  0  0  0
   19.5767   18.3062   20.8274 C   0  0  0  0  0  0  0  0  0  0  0  0
   19.1359   17.8468   19.9317 H   0  0  0  0  0  0  0  0  0  0  0  0
   19.4547   17.5654   21.6276 H   0  0  0  0  0  0  0  0  0  0  0  0
   21.0770   18.5646   20.5589 C   0  0  0  0  0  0  0  0  0  0  0  0
   21.5902   18.9457   21.4498 H   0  0  0  0  0  0  0  0  0  0  0  0
   21.2110   19.2942   19.7498 H   0  0  0  0  0  0  0  0  0  0  0  0
   21.5795   17.6359   20.2591 H   0  0  0  0  0  0  0  0  0  0  0  0
  1  2  1  0  0  0  0
  1  3  1  0  0  0  0
  1  4  1  0  0  0  0
  1  5  1  0  0  0  0
  5  6  1  0  0  0  0
  5  7  1  0  0  0  0
  5  8  1  0  0  0  0
  8  9  1  0  0  0  0
  8 10  1  0  0  0  0
  8 11  1  0  0  0  0
 11 12  1  0  0  0  0
 11 13  1  0  0  0  0
 11 14  1  0  0  0  0
 14 15  1  0  0  0  0
 14 16  1  0  0  0  0
 14 17  1  0  0  0  0
 17 18  1  0  0  0  0
 17 19  1  0  0  0  0
 17 20  1  0  0  0  0
 20 21  1  0  0  0  0
 20 22  1  0  0  0  0
 20 23  1  0  0  0  0
M  END
> <VM2 Rank>
56

> <Conf_Id>
172

> <Probability>
0.03

> <Sum Probability>
99.62

> <Delta G>
3.566

> <G>
41.483

> <E>
13.153

> <-TS>
28.330

> <U+W>
-5.626

> <U>
50.461

> <W>
-56.086

> <W(PB)>
-58.153

> <W(SA)>
2.066

> <Valence>
4.630

> <Coulomb>
45.564

> <VdW>
0.266

> <VdW6>
-7.363

> <VdW12>
7.629

> <Bond>
0.225

> <Angle>
1.702

> <Pdih>
2.703

> <Idih>
0.000

> <Tether>
0.000

$$$$
VeraChem MOL file


 23 22  0  0  0  0  0  0  0  0999 V2000     
   19.9419   17.9259   25.4050 N   0  3  0  0  0  0  0  0  0  0  0  0
   20.9527   18.0602   25.5096 H   0  0  0  0  0  0  0  0  0  0  0  0
   19.7552   16.9300   25.5639 H   0  0  0  0  0  0  0  0  0  0  0  0
   19.4892   18.4390   26.1683 H   0  0  0  0  0  0  0  0  0  0  0  0
   19.4485   18.3819   24.0470 C   0  0  0  0  0  0  0  0  0  0  0  0
   18.3745   18.1838   23.9956 H   0  0  0  0  0  0  0  0  0  0  0  0
   19.9439   17.7712   23.2902 H   0  0  0  0  0  0  0  0  0  0  0  0
   19.7099   19.8770   23.7817 C   0  0  0  0  0  0  0  0  0  0  0  0
   19.2090   20.4547   24.5699 H   0  0  0  0  0  0  0  0  0  0  0  0
   20.7820   20.0974   23.8702 H   0  0  0  0  0  0  0  0  0  0  0  0
   19.1797   20.3585   22.4072 C   0  0  0  0  0  0  0  0  0  0  0  0
   18.9687   21.4340   22.4864 H   0  0  0  0  0  0  0  0  0  0  0  0
   18.2122   19.8882   22.1861 H   0  0  0  0  0  0  0  0  0  0  0  0
   20.1657   20.1689   21.2224 C   0  0  0  0  0  0  0  0  0  0  0  0
   19.7309   20.6402   20.3302 H   0  0  0  0  0  0  0  0  0  0  0  0
   21.0868   20.7291   21.4339 H   0  0  0  0  0  0  0  0  0  0  0  0
   20.5426   18.7082   20.8715 C   0  0  0  0  0  0  0  0  0  0  0  0
   21.0908   18.2463   21.7023 H   0  0  0  0  0  0  0  0  0  0  0  0
   21.2469   18.7253   20.0280 H   0  0  0  0  0  0  0  0  0  0  0  0
   19.3277   17.8366   20.4792 C   0  0  0  0  0  0  0  0  0  0  0  0
   19.6561   16.8353   20.1717 H   0  0  0  0  0  0  0  0  0  0  0  0
   18.7799   18.2822   19.6388 H   0  0  0  0  0  0  0  0  0  0  0  0
   18.6285   17.7133   21.3147 H   0  0  0  0  0  0  0  0  0  0  0  0
  1  2  1  0  0  0  0
  1  3  1  0  0  0  0
  1  4  1  0  0  0  0
  1  5  1  0  0  0  0
  5  6  1  0  0  0  0
  5  7  1  0  0  0  0
  5  8  1  0  0  0  0
  8  9  1  0  0  0  0
  8 10  1  0  0  0  0
  8 11  1  0  0  0  0
 11 12  1  0  0  0  0
 11 13  1  0  0  0  0
 11 14  1  0  0  0  0
 14 15  1  0  0  0  0
 14 16  1  0  0  0  0
 14 17  1  0  0  0  0
 17 18  1  0  0  0  0
 17 19  1  0  0  0  0
 17 20  1  0  0  0  0
 20 21  1  0  0  0  0
 20 22  1  0  0  0  0
 20 23  1  0  0  0  0
M  END
> <VM2 Rank>
57

> <Conf_Id>
371

> <Probability>
0.03

> <Sum Probability>
99.65

> <Delta G>
3.584

> <G>
41.501

> <E>
13.171

> <-TS>
28.330

> <U+W>
-5.608

> <U>
50.461

> <W>
-56.068

> <W(PB)>
-58.143

> <W(SA)>
2.075

> <Valence>
4.630

> <Coulomb>
45.564

> <VdW>
0.266

> <VdW6>
-7.363

> <VdW12>
7.629

> <Bond>
0.225

> <Angle>
1.702

> <Pdih>
2.703

> <Idih>
0.000

> <Tether>
0.000

$$$$
VeraChem MOL file


 23 22  0  0  0  0  0  0  0  0999 V2000     
   18.9351   18.5707   25.5061 N   0  3  0  0  0  0  0  0  0  0  0  0
   18.3143   19.3434   25.2471 H   0  0  0  0  0  0  0  0  0  0  0  0
   18.9669   18.5422   26.5308 H   0  0  0  0  0  0  0  0  0  0  0  0
   18.4851   17.7033   25.1968 H   0  0  0  0  0  0  0  0  0  0  0  0
   20.3174   18.7344   24.9046 C   0  0  0  0  0  0  0  0  0  0  0  0
   20.9321   17.8998   25.2527 H   0  0  0  0  0  0  0  0  0  0  0  0
   20.7489   19.6606   25.2936 H   0  0  0  0  0  0  0  0  0  0  0  0
   20.3235   18.7665   23.3640 C   0  0  0  0  0  0  0  0  0  0  0  0
   21.3659   18.7992   23.0204 H   0  0  0  0  0  0  0  0  0  0  0  0
   19.8900   17.8321   22.9865 H   0  0  0  0  0  0  0  0  0  0  0  0
   19.5540   19.9813   22.7916 C   0  0  0  0  0  0  0  0  0  0  0  0
   19.8980   20.8922   23.3010 H   0  0  0  0  0  0  0  0  0  0  0  0
   18.4846   19.8856   23.0228 H   0  0  0  0  0  0  0  0  0  0  0  0
   19.7269   20.1852   21.2642 C   0  0  0  0  0  0  0  0  0  0  0  0
   19.1843   21.1006   20.9903 H   0  0  0  0  0  0  0  0  0  0  0  0
   20.7807   20.3845   21.0256 H   0  0  0  0  0  0  0  0  0  0  0  0
   19.1878   19.0257   20.3869 C   0  0  0  0  0  0  0  0  0  0  0  0
   18.7774   19.4509   19.4602 H   0  0  0  0  0  0  0  0  0  0  0  0
   18.3470   18.5264   20.8880 H   0  0  0  0  0  0  0  0  0  0  0  0
   20.2712   17.9932   19.9966 C   0  0  0  0  0  0  0  0  0  0  0  0
   21.0859   18.4722   19.4382 H   0  0  0  0  0  0  0  0  0  0  0  0
   19.8431   17.2121   19.3552 H   0  0  0  0  0  0  0  0  0  0  0  0
   20.7070   17.5002   20.8723 H   0  0  0  0  0  0  0  0  0  0  0  0
  1  2  1  0  0  0  0
  1  3  1  0  0  0  0
  1  4  1  0  0  0  0
  1  5  1  0  0  0  0
  5  6  1  0  0  0  0
  5  7  1  0  0  0  0
  5  8  1  0  0  0  0
  8  9  1  0  0  0  0
  8 10  1  0  0  0  0
  8 11  1  0  0  0  0
 11 12  1  0  0  0  0
 11 13  1  0  0  0  0
 11 14  1  0  0  0  0
 14 15  1  0  0  0  0
 14 16  1  0  0  0  0
 14 17  1  0  0  0  0
 17 18  1  0  0  0  0
 17 19  1  0  0  0  0
 17 20  1  0  0  0  0
 20 21  1  0  0  0  0
 20 22  1  0  0  0  0
 20 23  1  0  0  0  0
M  END
> <VM2 Rank>
58

> <Conf_Id>
761

> <Probability>
0.03

> <Sum Probability>
99.67

> <Delta G>
3.638

> <G>
41.555

> <E>
13.601

> <-TS>
27.954

> <U+W>
-5.178

> <U>
50.700

> <W>
-55.878

> <W(PB)>
-57.963

> <W(SA)>
2.085

> <Valence>
4.817

> <Coulomb>
45.214

> <VdW>
0.668

> <VdW6>
-6.661

> <VdW12>
7.329

> <Bond>
0.218

> <Angle>
1.218

> <Pdih>
3.381

> <Idih>
0.000

> <Tether>
0.000

$$$$
VeraChem MOL file


 23 22  0  0  0  0  0  0  0  0999 V2000     
   19.6557   19.2720   25.7989 N   0  3  0  0  0  0  0  0  0  0  0  0
   19.0749   19.3471   26.6409 H   0  0  0  0  0  0  0  0  0  0  0  0
   19.8817   20.2271   25.5052 H   0  0  0  0  0  0  0  0  0  0  0  0
   20.5343   18.8256   26.0808 H   0  0  0  0  0  0  0  0  0  0  0  0
   18.9561   18.4959   24.7000 C   0  0  0  0  0  0  0  0  0  0  0  0
   18.0202   19.0098   24.4646 H   0  0  0  0  0  0  0  0  0  0  0  0
   18.7109   17.5072   25.0974 H   0  0  0  0  0  0  0  0  0  0  0  0
   19.7967   18.3369   23.4182 C   0  0  0  0  0  0  0  0  0  0  0  0
   20.7374   17.8250   23.6607 H   0  0  0  0  0  0  0  0  0  0  0  0
   19.2550   17.6750   22.7332 H   0  0  0  0  0  0  0  0  0  0  0  0
   20.0974   19.6925   22.7293 C   0  0  0  0  0  0  0  0  0  0  0  0
   20.7077   20.3015   23.4094 H   0  0  0  0  0  0  0  0  0  0  0  0
   19.1670   20.2546   22.5687 H   0  0  0  0  0  0  0  0  0  0  0  0
   20.8668   19.5449   21.3906 C   0  0  0  0  0  0  0  0  0  0  0  0
   21.5639   20.3896   21.3015 H   0  0  0  0  0  0  0  0  0  0  0  0
   21.4955   18.6439   21.4089 H   0  0  0  0  0  0  0  0  0  0  0  0
   19.9716   19.5448   20.1250 C   0  0  0  0  0  0  0  0  0  0  0  0
   20.6208   19.5101   19.2389 H   0  0  0  0  0  0  0  0  0  0  0  0
   19.4226   20.4948   20.0622 H   0  0  0  0  0  0  0  0  0  0  0  0
   18.9718   18.3700   20.0521 C   0  0  0  0  0  0  0  0  0  0  0  0
   18.1999   18.4548   20.8269 H   0  0  0  0  0  0  0  0  0  0  0  0
   19.4834   17.4062   20.1707 H   0  0  0  0  0  0  0  0  0  0  0  0
   18.4608   18.3613   19.0806 H   0  0  0  0  0  0  0  0  0  0  0  0
  1  2  1  0  0  0  0
  1  3  1  0  0  0  0
  1  4  1  0  0  0  0
  1  5  1  0  0  0  0
  5  6  1  0  0  0  0
  5  7  1  0  0  0  0
  5  8  1  0  0  0  0
  8  9  1  0  0  0  0
  8 10  1  0  0  0  0
  8 11  1  0  0  0  0
 11 12  1  0  0  0  0
 11 13  1  0  0  0  0
 11 14  1  0  0  0  0
 14 15  1  0  0  0  0
 14 16  1  0  0  0  0
 14 17  1  0  0  0  0
 17 18  1  0  0  0  0
 17 19  1  0  0  0  0
 17 20  1  0  0  0  0
 20 21  1  0  0  0  0
 20 22  1  0  0  0  0
 20 23  1  0  0  0  0
M  END
> <VM2 Rank>
59

> <Conf_Id>
283

> <Probability>
0.03

> <Sum Probability>
99.70

> <Delta G>
3.653

> <G>
41.569

> <E>
13.583

> <-TS>
27.986

> <U+W>
-5.196

> <U>
50.626

> <W>
-55.822

> <W(PB)>
-57.895

> <W(SA)>
2.073

> <Valence>
4.837

> <Coulomb>
45.097

> <VdW>
0.692

> <VdW6>
-6.655

> <VdW12>
7.347

> <Bond>
0.223

> <Angle>
1.167

> <Pdih>
3.447

> <Idih>
0.000

> <Tether>
0.000

$$$$
VeraChem MOL file


 23 22  0  0  0  0  0  0  0  0999 V2000     
   19.4177   19.1731   25.7880 N   0  3  0  0  0  0  0  0  0  0  0  0
   18.6056   19.6964   25.4469 H   0  0  0  0  0  0  0  0  0  0  0  0
   19.7069   19.6102   26.6696 H   0  0  0  0  0  0  0  0  0  0  0  0
   19.0952   18.2271   26.0153 H   0  0  0  0  0  0  0  0  0  0  0  0
   20.5435   19.1563   24.7723 C   0  0  0  0  0  0  0  0  0  0  0  0
   21.3848   18.6195   25.2192 H   0  0  0  0  0  0  0  0  0  0  0  0
   20.8549   20.1890   24.5937 H   0  0  0  0  0  0  0  0  0  0  0  0
   20.1655   18.4902   23.4351 C   0  0  0  0  0  0  0  0  0  0  0  0
   21.0674   18.4289   22.8158 H   0  0  0  0  0  0  0  0  0  0  0  0
   19.8487   17.4553   23.6203 H   0  0  0  0  0  0  0  0  0  0  0  0
   19.0481   19.2559   22.6815 C   0  0  0  0  0  0  0  0  0  0  0  0
   19.3155   20.3163   22.5754 H   0  0  0  0  0  0  0  0  0  0  0  0
   18.1357   19.2314   23.2922 H   0  0  0  0  0  0  0  0  0  0  0  0
   18.7163   18.6501   21.2925 C   0  0  0  0  0  0  0  0  0  0  0  0
   18.9116   17.5689   21.2911 H   0  0  0  0  0  0  0  0  0  0  0  0
   17.6358   18.7554   21.1224 H   0  0  0  0  0  0  0  0  0  0  0  0
   19.4429   19.3249   20.1009 C   0  0  0  0  0  0  0  0  0  0  0  0
   19.1604   20.3857   20.0502 H   0  0  0  0  0  0  0  0  0  0  0  0
   19.0806   18.8693   19.1687 H   0  0  0  0  0  0  0  0  0  0  0  0
   20.9821   19.2065   20.1437 C   0  0  0  0  0  0  0  0  0  0  0  0
   21.4037   19.7878   20.9730 H   0  0  0  0  0  0  0  0  0  0  0  0
   21.4223   19.5935   19.2157 H   0  0  0  0  0  0  0  0  0  0  0  0
   21.2963   18.1605   20.2534 H   0  0  0  0  0  0  0  0  0  0  0  0
  1  2  1  0  0  0  0
  1  3  1  0  0  0  0
  1  4  1  0  0  0  0
  1  5  1  0  0  0  0
  5  6  1  0  0  0  0
  5  7  1  0  0  0  0
  5  8  1  0  0  0  0
  8  9  1  0  0  0  0
  8 10  1  0  0  0  0
  8 11  1  0  0  0  0
 11 12  1  0  0  0  0
 11 13  1  0  0  0  0
 11 14  1  0  0  0  0
 14 15  1  0  0  0  0
 14 16  1  0  0  0  0
 14 17  1  0  0  0  0
 17 18  1  0  0  0  0
 17 19  1  0  0  0  0
 17 20  1  0  0  0  0
 20 21  1  0  0  0  0
 20 22  1  0  0  0  0
 20 23  1  0  0  0  0
M  END
> <VM2 Rank>
60

> <Conf_Id>
285

> <Probability>
0.02

> <Sum Probability>
99.72

> <Delta G>
3.697

> <G>
41.614

> <E>
13.627

> <-TS>
27.986

> <U+W>
-5.152

> <U>
50.626

> <W>
-55.777

> <W(PB)>
-57.841

> <W(SA)>
2.064

> <Valence>
4.837

> <Coulomb>
45.097

> <VdW>
0.692

> <VdW6>
-6.655

> <VdW12>
7.347

> <Bond>
0.223

> <Angle>
1.166

> <Pdih>
3.447

> <Idih>
0.000

> <Tether>
0.000

$$$$
VeraChem MOL file


 23 22  0  0  0  0  0  0  0  0999 V2000     
   20.4427   19.1981   25.5748 N   0  3  0  0  0  0  0  0  0  0  0  0
   20.3513   20.1911   25.3399 H   0  0  0  0  0  0  0  0  0  0  0  0
   21.3968   18.9151   25.3295 H   0  0  0  0  0  0  0  0  0  0  0  0
   20.3612   19.1225   26.5943 H   0  0  0  0  0  0  0  0  0  0  0  0
   19.4035   18.3541   24.8630 C   0  0  0  0  0  0  0  0  0  0  0  0
   18.4145   18.6891   25.1873 H   0  0  0  0  0  0  0  0  0  0  0  0
   19.5362   17.3189   25.1891 H   0  0  0  0  0  0  0  0  0  0  0  0
   19.4959   18.4220   23.3264 C   0  0  0  0  0  0  0  0  0  0  0  0
   20.4911   18.0823   23.0139 H   0  0  0  0  0  0  0  0  0  0  0  0
   18.7679   17.7179   22.9021 H   0  0  0  0  0  0  0  0  0  0  0  0
   19.2199   19.8422   22.7764 C   0  0  0  0  0  0  0  0  0  0  0  0
   20.0201   20.5247   23.0927 H   0  0  0  0  0  0  0  0  0  0  0  0
   18.2938   20.2245   23.2279 H   0  0  0  0  0  0  0  0  0  0  0  0
   19.0725   19.9128   21.2343 C   0  0  0  0  0  0  0  0  0  0  0  0
   18.2105   19.3146   20.9085 H   0  0  0  0  0  0  0  0  0  0  0  0
   18.8260   20.9515   20.9740 H   0  0  0  0  0  0  0  0  0  0  0  0
   20.3400   19.5053   20.4393 C   0  0  0  0  0  0  0  0  0  0  0  0
   21.2448   19.7327   21.0200 H   0  0  0  0  0  0  0  0  0  0  0  0
   20.3986   20.1257   19.5340 H   0  0  0  0  0  0  0  0  0  0  0  0
   20.3416   18.0225   19.9998 C   0  0  0  0  0  0  0  0  0  0  0  0
   19.4739   17.8011   19.3649 H   0  0  0  0  0  0  0  0  0  0  0  0
   20.3173   17.3379   20.8546 H   0  0  0  0  0  0  0  0  0  0  0  0
   21.2449   17.7956   19.4189 H   0  0  0  0  0  0  0  0  0  0  0  0
  1  2  1  0  0  0  0
  1  3  1  0  0  0  0
  1  4  1  0  0  0  0
  1  5  1  0  0  0  0
  5  6  1  0  0  0  0
  5  7  1  0  0  0  0
  5  8  1  0  0  0  0
  8  9  1  0  0  0  0
  8 10  1  0  0  0  0
  8 11  1  0  0  0  0
 11 12  1  0  0  0  0
 11 13  1  0  0  0  0
 11 14  1  0  0  0  0
 14 15  1  0  0  0  0
 14 16  1  0  0  0  0
 14 17  1  0  0  0  0
 17 18  1  0  0  0  0
 17 19  1  0  0  0  0
 17 20  1  0  0  0  0
 20 21  1  0  0  0  0
 20 22  1  0  0  0  0
 20 23  1  0  0  0  0
M  END
> <VM2 Rank>
61

> <Conf_Id>
931

> <Probability>
0.02

> <Sum Probability>
99.75

> <Delta G>
3.706

> <G>
41.623

> <E>
13.669

> <-TS>
27.953

> <U+W>
-5.110

> <U>
50.700

> <W>
-55.810

> <W(PB)>
-57.884

> <W(SA)>
2.074

> <Valence>
4.818

> <Coulomb>
45.214

> <VdW>
0.668

> <VdW6>
-6.660

> <VdW12>
7.328

> <Bond>
0.218

> <Angle>
1.219

> <Pdih>
3.381

> <Idih>
0.000

> <Tether>
0.000

$$$$
VeraChem MOL file


 23 22  0  0  0  0  0  0  0  0999 V2000     
   20.0185   18.7465   25.7758 N   0  3  0  0  0  0  0  0  0  0  0  0
   20.5178   17.8528   25.7254 H   0  0  0  0  0  0  0  0  0  0  0  0
   19.6823   18.8469   26.7396 H   0  0  0  0  0  0  0  0  0  0  0  0
   20.7083   19.4879   25.6212 H   0  0  0  0  0  0  0  0  0  0  0  0
   18.8825   18.8151   24.7737 C   0  0  0  0  0  0  0  0  0  0  0  0
   18.3791   19.7780   24.8953 H   0  0  0  0  0  0  0  0  0  0  0  0
   18.1707   18.0247   25.0272 H   0  0  0  0  0  0  0  0  0  0  0  0
   19.3316   18.6454   23.3092 C   0  0  0  0  0  0  0  0  0  0  0  0
   19.8610   17.6902   23.1956 H   0  0  0  0  0  0  0  0  0  0  0  0
   18.4302   18.5882   22.6869 H   0  0  0  0  0  0  0  0  0  0  0  0
   20.2231   19.8118   22.8175 C   0  0  0  0  0  0  0  0  0  0  0  0
   21.0724   19.9360   23.5020 H   0  0  0  0  0  0  0  0  0  0  0  0
   19.6531   20.7500   22.8644 H   0  0  0  0  0  0  0  0  0  0  0  0
   20.7888   19.6244   21.3858 C   0  0  0  0  0  0  0  0  0  0  0  0
   21.4346   20.4871   21.1707 H   0  0  0  0  0  0  0  0  0  0  0  0
   21.4488   18.7466   21.3524 H   0  0  0  0  0  0  0  0  0  0  0  0
   19.7184   19.5335   20.2676 C   0  0  0  0  0  0  0  0  0  0  0  0
   20.1078   20.0323   19.3689 H   0  0  0  0  0  0  0  0  0  0  0  0
   18.8165   20.0916   20.5551 H   0  0  0  0  0  0  0  0  0  0  0  0
   19.3531   18.0802   19.8845 C   0  0  0  0  0  0  0  0  0  0  0  0
   18.9369   17.5222   20.7303 H   0  0  0  0  0  0  0  0  0  0  0  0
   20.2360   17.5368   19.5236 H   0  0  0  0  0  0  0  0  0  0  0  0
   18.6058   18.0715   19.0804 H   0  0  0  0  0  0  0  0  0  0  0  0
  1  2  1  0  0  0  0
  1  3  1  0  0  0  0
  1  4  1  0  0  0  0
  1  5  1  0  0  0  0
  5  6  1  0  0  0  0
  5  7  1  0  0  0  0
  5  8  1  0  0  0  0
  8  9  1  0  0  0  0
  8 10  1  0  0  0  0
  8 11  1  0  0  0  0
 11 12  1  0  0  0  0
 11 13  1  0  0  0  0
 11 14  1  0  0  0  0
 14 15  1  0  0  0  0
 14 16  1  0  0  0  0
 14 17  1  0  0  0  0
 17 18  1  0  0  0  0
 17 19  1  0  0  0  0
 17 20  1  0  0  0  0
 20 21  1  0  0  0  0
 20 22  1  0  0  0  0
 20 23  1  0  0  0  0
M  END
> <VM2 Rank>
62

> <Conf_Id>
111

> <Probability>
0.02

> <Sum Probability>
99.77

> <Delta G>
3.712

> <G>
41.629

> <E>
13.680

> <-TS>
27.949

> <U+W>
-5.099

> <U>
50.701

> <W>
-55.800

> <W(PB)>
-57.867

> <W(SA)>
2.067

> <Valence>
4.881

> <Coulomb>
45.095

> <VdW>
0.726

> <VdW6>
-6.620

> <VdW12>
7.345

> <Bond>
0.222

> <Angle>
1.260

> <Pdih>
3.398

> <Idih>
0.000

> <Tether>
0.000

$$$$
VeraChem MOL file


 23 22  0  0  0  0  0  0  0  0999 V2000     
   20.8280   18.8084   25.2416 N   0  3  0  0  0  0  0  0  0  0  0  0
   21.0150   18.8504   26.2492 H   0  0  0  0  0  0  0  0  0  0  0  0
   21.2198   19.6602   24.8287 H   0  0  0  0  0  0  0  0  0  0  0  0
   21.3636   18.0171   24.8710 H   0  0  0  0  0  0  0  0  0  0  0  0
   19.3462   18.6722   24.9501 C   0  0  0  0  0  0  0  0  0  0  0  0
   18.8325   19.5295   25.3934 H   0  0  0  0  0  0  0  0  0  0  0  0
   18.9919   17.7668   25.4505 H   0  0  0  0  0  0  0  0  0  0  0  0
   19.0147   18.5887   23.4477 C   0  0  0  0  0  0  0  0  0  0  0  0
   19.5347   17.7288   23.0108 H   0  0  0  0  0  0  0  0  0  0  0  0
   17.9407   18.3854   23.3426 H   0  0  0  0  0  0  0  0  0  0  0  0
   19.3619   19.8943   22.6876 C   0  0  0  0  0  0  0  0  0  0  0  0
   20.4279   20.1358   22.7918 H   0  0  0  0  0  0  0  0  0  0  0  0
   18.8151   20.7203   23.1633 H   0  0  0  0  0  0  0  0  0  0  0  0
   18.9781   19.8544   21.1852 C   0  0  0  0  0  0  0  0  0  0  0  0
   18.1039   19.2069   21.0311 H   0  0  0  0  0  0  0  0  0  0  0  0
   18.6552   20.8618   20.8881 H   0  0  0  0  0  0  0  0  0  0  0  0
   20.1265   19.4342   20.2324 C   0  0  0  0  0  0  0  0  0  0  0  0
   20.9553   20.1512   20.3154 H   0  0  0  0  0  0  0  0  0  0  0  0
   19.7642   19.5074   19.1974 H   0  0  0  0  0  0  0  0  0  0  0  0
   20.6607   18.0048   20.4694 C   0  0  0  0  0  0  0  0  0  0  0  0
   19.8450   17.2703   20.4621 H   0  0  0  0  0  0  0  0  0  0  0  0
   21.1905   17.9311   21.4268 H   0  0  0  0  0  0  0  0  0  0  0  0
   21.3710   17.7255   19.6805 H   0  0  0  0  0  0  0  0  0  0  0  0
  1  2  1  0  0  0  0
  1  3  1  0  0  0  0
  1  4  1  0  0  0  0
  1  5  1  0  0  0  0
  5  6  1  0  0  0  0
  5  7  1  0  0  0  0
  5  8  1  0  0  0  0
  8  9  1  0  0  0  0
  8 10  1  0  0  0  0
  8 11  1  0  0  0  0
 11 12  1  0  0  0  0
 11 13  1  0  0  0  0
 11 14  1  0  0  0  0
 14 15  1  0  0  0  0
 14 16  1  0  0  0  0
 14 17  1  0  0  0  0
 17 18  1  0  0  0  0
 17 19  1  0  0  0  0
 17 20  1  0  0  0  0
 20 21  1  0  0  0  0
 20 22  1  0  0  0  0
 20 23  1  0  0  0  0
M  END
> <VM2 Rank>
63

> <Conf_Id>
669

> <Probability>
0.02

> <Sum Probability>
99.79

> <Delta G>
3.762

> <G>
41.678

> <E>
13.725

> <-TS>
27.954

> <U+W>
-5.054

> <U>
50.975

> <W>
-56.030

> <W(PB)>
-58.076

> <W(SA)>
2.047

> <Valence>
4.792

> <Coulomb>
45.573

> <VdW>
0.610

> <VdW6>
-6.731

> <VdW12>
7.341

> <Bond>
0.224

> <Angle>
1.226

> <Pdih>
3.342

> <Idih>
0.000

> <Tether>
0.000

$$$$
VeraChem MOL file


 23 22  0  0  0  0  0  0  0  0999 V2000     
   18.9665   18.0342   25.1572 N   0  3  0  0  0  0  0  0  0  0  0  0
   18.1203   18.3710   24.6881 H   0  0  0  0  0  0  0  0  0  0  0  0
   18.7275   17.8990   26.1454 H   0  0  0  0  0  0  0  0  0  0  0  0
   19.1792   17.1086   24.7719 H   0  0  0  0  0  0  0  0  0  0  0  0
   20.1257   18.9964   24.9856 C   0  0  0  0  0  0  0  0  0  0  0  0
   20.9767   18.5924   25.5407 H   0  0  0  0  0  0  0  0  0  0  0  0
   19.8452   19.9507   25.4395 H   0  0  0  0  0  0  0  0  0  0  0  0
   20.5337   19.2205   23.5168 C   0  0  0  0  0  0  0  0  0  0  0  0
   21.4397   19.8408   23.5016 H   0  0  0  0  0  0  0  0  0  0  0  0
   20.8112   18.2597   23.0689 H   0  0  0  0  0  0  0  0  0  0  0  0
   19.4243   19.9201   22.6905 C   0  0  0  0  0  0  0  0  0  0  0  0
   19.1863   20.8745   23.1805 H   0  0  0  0  0  0  0  0  0  0  0  0
   18.4971   19.3322   22.7039 H   0  0  0  0  0  0  0  0  0  0  0  0
   19.8384   20.2125   21.2245 C   0  0  0  0  0  0  0  0  0  0  0  0
   19.3745   21.1612   20.9211 H   0  0  0  0  0  0  0  0  0  0  0  0
   20.9223   20.3800   21.1596 H   0  0  0  0  0  0  0  0  0  0  0  0
   19.4040   19.1337   20.1995 C   0  0  0  0  0  0  0  0  0  0  0  0
   19.6865   19.4755   19.1939 H   0  0  0  0  0  0  0  0  0  0  0  0
   18.3083   19.0495   20.1948 H   0  0  0  0  0  0  0  0  0  0  0  0
   20.0234   17.7396   20.4400 C   0  0  0  0  0  0  0  0  0  0  0  0
   21.1165   17.7997   20.5197 H   0  0  0  0  0  0  0  0  0  0  0  0
   19.7840   17.0652   19.6076 H   0  0  0  0  0  0  0  0  0  0  0  0
   19.6295   17.2812   21.3552 H   0  0  0  0  0  0  0  0  0  0  0  0
  1  2  1  0  0  0  0
  1  3  1  0  0  0  0
  1  4  1  0  0  0  0
  1  5  1  0  0  0  0
  5  6  1  0  0  0  0
  5  7  1  0  0  0  0
  5  8  1  0  0  0  0
  8  9  1  0  0  0  0
  8 10  1  0  0  0  0
  8 11  1  0  0  0  0
 11 12  1  0  0  0  0
 11 13  1  0  0  0  0
 11 14  1  0  0  0  0
 14 15  1  0  0  0  0
 14 16  1  0  0  0  0
 14 17  1  0  0  0  0
 17 18  1  0  0  0  0
 17 19  1  0  0  0  0
 17 20  1  0  0  0  0
 20 21  1  0  0  0  0
 20 22  1  0  0  0  0
 20 23  1  0  0  0  0
M  END
> <VM2 Rank>
64

> <Conf_Id>
730

> <Probability>
0.02

> <Sum Probability>
99.81

> <Delta G>
3.796

> <G>
41.712

> <E>
13.759

> <-TS>
27.953

> <U+W>
-5.020

> <U>
50.975

> <W>
-55.995

> <W(PB)>
-58.046

> <W(SA)>
2.051

> <Valence>
4.792

> <Coulomb>
45.573

> <VdW>
0.610

> <VdW6>
-6.731

> <VdW12>
7.341

> <Bond>
0.224

> <Angle>
1.227

> <Pdih>
3.341

> <Idih>
0.000

> <Tether>
0.000

$$$$
VeraChem MOL file


 23 22  0  0  0  0  0  0  0  0999 V2000     
   19.5368   18.5464   25.7539 N   0  3  0  0  0  0  0  0  0  0  0  0
   19.6271   18.8242   26.7371 H   0  0  0  0  0  0  0  0  0  0  0  0
   19.8229   17.5639   25.6938 H   0  0  0  0  0  0  0  0  0  0  0  0
   18.5397   18.5862   25.5224 H   0  0  0  0  0  0  0  0  0  0  0  0
   20.3635   19.4312   24.8411 C   0  0  0  0  0  0  0  0  0  0  0  0
   21.4030   19.3692   25.1745 H   0  0  0  0  0  0  0  0  0  0  0  0
   20.0258   20.4630   24.9702 H   0  0  0  0  0  0  0  0  0  0  0  0
   20.2819   19.0406   23.3525 C   0  0  0  0  0  0  0  0  0  0  0  0
   21.0034   19.6585   22.8041 H   0  0  0  0  0  0  0  0  0  0  0  0
   20.5955   17.9956   23.2291 H   0  0  0  0  0  0  0  0  0  0  0  0
   18.8685   19.2481   22.7558 C   0  0  0  0  0  0  0  0  0  0  0  0
   18.6005   20.3120   22.8166 H   0  0  0  0  0  0  0  0  0  0  0  0
   18.1313   18.7122   23.3680 H   0  0  0  0  0  0  0  0  0  0  0  0
   18.7151   18.7617   21.2912 C   0  0  0  0  0  0  0  0  0  0  0  0
   18.8760   17.6762   21.2351 H   0  0  0  0  0  0  0  0  0  0  0  0
   17.6677   18.9200   20.9991 H   0  0  0  0  0  0  0  0  0  0  0  0
   19.6175   19.4916   20.2630 C   0  0  0  0  0  0  0  0  0  0  0  0
   19.8332   20.5146   20.6016 H   0  0  0  0  0  0  0  0  0  0  0  0
   19.0607   19.5969   19.3213 H   0  0  0  0  0  0  0  0  0  0  0  0
   20.9326   18.7375   19.9564 C   0  0  0  0  0  0  0  0  0  0  0  0
   21.5257   19.2865   19.2136 H   0  0  0  0  0  0  0  0  0  0  0  0
   20.7256   17.7408   19.5456 H   0  0  0  0  0  0  0  0  0  0  0  0
   21.5542   18.6109   20.8495 H   0  0  0  0  0  0  0  0  0  0  0  0
  1  2  1  0  0  0  0
  1  3  1  0  0  0  0
  1  4  1  0  0  0  0
  1  5  1  0  0  0  0
  5  6  1  0  0  0  0
  5  7  1  0  0  0  0
  5  8  1  0  0  0  0
  8  9  1  0  0  0  0
  8 10  1  0  0  0  0
  8 11  1  0  0  0  0
 11 12  1  0  0  0  0
 11 13  1  0  0  0  0
 11 14  1  0  0  0  0
 14 15  1  0  0  0  0
 14 16  1  0  0  0  0
 14 17  1  0  0  0  0
 17 18  1  0  0  0  0
 17 19  1  0  0  0  0
 17 20  1  0  0  0  0
 20 21  1  0  0  0  0
 20 22  1  0  0  0  0
 20 23  1  0  0  0  0
M  END
> <VM2 Rank>
65

> <Conf_Id>
456

> <Probability>
0.02

> <Sum Probability>
99.83

> <Delta G>
3.803

> <G>
41.719

> <E>
13.770

> <-TS>
27.949

> <U+W>
-5.009

> <U>
50.701

> <W>
-55.710

> <W(PB)>
-57.768

> <W(SA)>
2.058

> <Valence>
4.880

> <Coulomb>
45.095

> <VdW>
0.726

> <VdW6>
-6.620

> <VdW12>
7.346

> <Bond>
0.222

> <Angle>
1.260

> <Pdih>
3.398

> <Idih>
0.000

> <Tether>
0.000

$$$$
VeraChem MOL file


 23 22  0  0  0  0  0  0  0  0999 V2000     
   20.9898   18.9138   24.7565 N   0  3  0  0  0  0  0  0  0  0  0  0
   20.8632   19.5284   25.5670 H   0  0  0  0  0  0  0  0  0  0  0  0
   21.3551   19.4906   23.9931 H   0  0  0  0  0  0  0  0  0  0  0  0
   21.7213   18.2391   25.0045 H   0  0  0  0  0  0  0  0  0  0  0  0
   19.6962   18.2254   24.3672 C   0  0  0  0  0  0  0  0  0  0  0  0
   19.3785   17.6137   25.2159 H   0  0  0  0  0  0  0  0  0  0  0  0
   19.8997   17.5548   23.5295 H   0  0  0  0  0  0  0  0  0  0  0  0
   18.5643   19.2015   23.9929 C   0  0  0  0  0  0  0  0  0  0  0  0
   17.6582   18.6211   23.7744 H   0  0  0  0  0  0  0  0  0  0  0  0
   18.3250   19.8129   24.8731 H   0  0  0  0  0  0  0  0  0  0  0  0
   18.8692   20.1420   22.7963 C   0  0  0  0  0  0  0  0  0  0  0  0
   19.7360   20.7800   23.0142 H   0  0  0  0  0  0  0  0  0  0  0  0
   18.0184   20.8308   22.7005 H   0  0  0  0  0  0  0  0  0  0  0  0
   19.0530   19.4264   21.4321 C   0  0  0  0  0  0  0  0  0  0  0  0
   18.3714   18.5675   21.3623 H   0  0  0  0  0  0  0  0  0  0  0  0
   18.7446   20.1218   20.6392 H   0  0  0  0  0  0  0  0  0  0  0  0
   20.5068   18.9831   21.1386 C   0  0  0  0  0  0  0  0  0  0  0  0
   20.8469   18.2488   21.8772 H   0  0  0  0  0  0  0  0  0  0  0  0
   21.1805   19.8477   21.2160 H   0  0  0  0  0  0  0  0  0  0  0  0
   20.6368   18.3648   19.7303 C   0  0  0  0  0  0  0  0  0  0  0  0
   19.9973   17.4783   19.6282 H   0  0  0  0  0  0  0  0  0  0  0  0
   21.6724   18.0571   19.5361 H   0  0  0  0  0  0  0  0  0  0  0  0
   20.3487   19.0854   18.9538 H   0  0  0  0  0  0  0  0  0  0  0  0
  1  2  1  0  0  0  0
  1  3  1  0  0  0  0
  1  4  1  0  0  0  0
  1  5  1  0  0  0  0
  5  6  1  0  0  0  0
  5  7  1  0  0  0  0
  5  8  1  0  0  0  0
  8  9  1  0  0  0  0
  8 10  1  0  0  0  0
  8 11  1  0  0  0  0
 11 12  1  0  0  0  0
 11 13  1  0  0  0  0
 11 14  1  0  0  0  0
 14 15  1  0  0  0  0
 14 16  1  0  0  0  0
 14 17  1  0  0  0  0
 17 18  1  0  0  0  0
 17 19  1  0  0  0  0
 17 20  1  0  0  0  0
 20 21  1  0  0  0  0
 20 22  1  0  0  0  0
 20 23  1  0  0  0  0
M  END
> <VM2 Rank>
66

> <Conf_Id>
124

> <Probability>
0.02

> <Sum Probability>
99.85

> <Delta G>
3.856

> <G>
41.773

> <E>
13.753

> <-TS>
28.020

> <U+W>
-5.026

> <U>
51.112

> <W>
-56.138

> <W(PB)>
-58.230

> <W(SA)>
2.093

> <Valence>
4.455

> <Coulomb>
46.320

> <VdW>
0.337

> <VdW6>
-7.022

> <VdW12>
7.359

> <Bond>
0.222

> <Angle>
1.455

> <Pdih>
2.778

> <Idih>
0.000

> <Tether>
0.000

$$$$
VeraChem MOL file


 23 22  0  0  0  0  0  0  0  0999 V2000     
   20.3026   18.1968   25.6539 N   0  3  0  0  0  0  0  0  0  0  0  0
   20.9550   18.5636   26.3551 H   0  0  0  0  0  0  0  0  0  0  0  0
   20.7190   17.3381   25.2797 H   0  0  0  0  0  0  0  0  0  0  0  0
   19.4498   17.9255   26.1540 H   0  0  0  0  0  0  0  0  0  0  0  0
   20.0202   19.2102   24.5634 C   0  0  0  0  0  0  0  0  0  0  0  0
   20.9728   19.4747   24.0980 H   0  0  0  0  0  0  0  0  0  0  0  0
   19.6073   20.1062   25.0347 H   0  0  0  0  0  0  0  0  0  0  0  0
   19.0407   18.6893   23.4944 C   0  0  0  0  0  0  0  0  0  0  0  0
   19.4508   17.7841   23.0333 H   0  0  0  0  0  0  0  0  0  0  0  0
   18.1063   18.3897   23.9874 H   0  0  0  0  0  0  0  0  0  0  0  0
   18.7135   19.7534   22.4161 C   0  0  0  0  0  0  0  0  0  0  0  0
   18.3314   20.6484   22.9266 H   0  0  0  0  0  0  0  0  0  0  0  0
   17.8873   19.3987   21.7847 H   0  0  0  0  0  0  0  0  0  0  0  0
   19.9137   20.1669   21.5207 C   0  0  0  0  0  0  0  0  0  0  0  0
   19.7926   21.2276   21.2605 H   0  0  0  0  0  0  0  0  0  0  0  0
   20.8576   20.1085   22.0774 H   0  0  0  0  0  0  0  0  0  0  0  0
   20.0360   19.3765   20.1928 C   0  0  0  0  0  0  0  0  0  0  0  0
   20.8631   19.8042   19.6091 H   0  0  0  0  0  0  0  0  0  0  0  0
   19.1298   19.5255   19.5892 H   0  0  0  0  0  0  0  0  0  0  0  0
   20.2894   17.8639   20.3726 C   0  0  0  0  0  0  0  0  0  0  0  0
   19.4079   17.3590   20.7860 H   0  0  0  0  0  0  0  0  0  0  0  0
   21.1433   17.6808   21.0375 H   0  0  0  0  0  0  0  0  0  0  0  0
   20.5103   17.3948   19.4051 H   0  0  0  0  0  0  0  0  0  0  0  0
  1  2  1  0  0  0  0
  1  3  1  0  0  0  0
  1  4  1  0  0  0  0
  1  5  1  0  0  0  0
  5  6  1  0  0  0  0
  5  7  1  0  0  0  0
  5  8  1  0  0  0  0
  8  9  1  0  0  0  0
  8 10  1  0  0  0  0
  8 11  1  0  0  0  0
 11 12  1  0  0  0  0
 11 13  1  0  0  0  0
 11 14  1  0  0  0  0
 14 15  1  0  0  0  0
 14 16  1  0  0  0  0
 14 17  1  0  0  0  0
 17 18  1  0  0  0  0
 17 19  1  0  0  0  0
 17 20  1  0  0  0  0
 20 21  1  0  0  0  0
 20 22  1  0  0  0  0
 20 23  1  0  0  0  0
M  END
> <VM2 Rank>
67

> <Conf_Id>
915

> <Probability>
0.02

> <Sum Probability>
99.87

> <Delta G>
3.869

> <G>
41.785

> <E>
13.890

> <-TS>
27.895

> <U+W>
-4.889

> <U>
51.036

> <W>
-55.925

> <W(PB)>
-57.988

> <W(SA)>
2.063

> <Valence>
5.117

> <Coulomb>
45.321

> <VdW>
0.598

> <VdW6>
-6.707

> <VdW12>
7.304

> <Bond>
0.233

> <Angle>
1.409

> <Pdih>
3.475

> <Idih>
0.000

> <Tether>
0.000

$$$$
VeraChem MOL file


 23 22  0  0  0  0  0  0  0  0999 V2000     
   19.7362   17.9610   25.6279 N   0  3  0  0  0  0  0  0  0  0  0  0
   18.9642   17.7351   26.2642 H   0  0  0  0  0  0  0  0  0  0  0  0
   20.4879   18.3574   26.2012 H   0  0  0  0  0  0  0  0  0  0  0  0
   20.0811   17.0726   25.2504 H   0  0  0  0  0  0  0  0  0  0  0  0
   19.3014   18.9111   24.5306 C   0  0  0  0  0  0  0  0  0  0  0  0
   18.9201   19.8203   25.0033 H   0  0  0  0  0  0  0  0  0  0  0  0
   18.4817   18.4382   23.9842 H   0  0  0  0  0  0  0  0  0  0  0  0
   20.4407   19.2719   23.5583 C   0  0  0  0  0  0  0  0  0  0  0  0
   21.2703   19.7064   24.1317 H   0  0  0  0  0  0  0  0  0  0  0  0
   20.8297   18.3579   23.0961 H   0  0  0  0  0  0  0  0  0  0  0  0
   20.0005   20.2890   22.4747 C   0  0  0  0  0  0  0  0  0  0  0  0
   20.8805   20.6441   21.9210 H   0  0  0  0  0  0  0  0  0  0  0  0
   19.5953   21.1744   22.9841 H   0  0  0  0  0  0  0  0  0  0  0  0
   18.9348   19.7597   21.4761 C   0  0  0  0  0  0  0  0  0  0  0  0
   18.2703   19.0323   21.9596 H   0  0  0  0  0  0  0  0  0  0  0  0
   18.2890   20.6021   21.1919 H   0  0  0  0  0  0  0  0  0  0  0  0
   19.5115   19.1582   20.1690 C   0  0  0  0  0  0  0  0  0  0  0  0
   20.0889   19.9244   19.6329 H   0  0  0  0  0  0  0  0  0  0  0  0
   18.6734   18.8930   19.5094 H   0  0  0  0  0  0  0  0  0  0  0  0
   20.3908   17.9060   20.3775 C   0  0  0  0  0  0  0  0  0  0  0  0
   19.8696   17.1509   20.9799 H   0  0  0  0  0  0  0  0  0  0  0  0
   21.3350   18.1607   20.8739 H   0  0  0  0  0  0  0  0  0  0  0  0
   20.6428   17.4497   19.4115 H   0  0  0  0  0  0  0  0  0  0  0  0
  1  2  1  0  0  0  0
  1  3  1  0  0  0  0
  1  4  1  0  0  0  0
  1  5  1  0  0  0  0
  5  6  1  0  0  0  0
  5  7  1  0  0  0  0
  5  8  1  0  0  0  0
  8  9  1  0  0  0  0
  8 10  1  0  0  0  0
  8 11  1  0  0  0  0
 11 12  1  0  0  0  0
 11 13  1  0  0  0  0
 11 14  1  0  0  0  0
 14 15  1  0  0  0  0
 14 16  1  0  0  0  0
 14 17  1  0  0  0  0
 17 18  1  0  0  0  0
 17 19  1  0  0  0  0
 17 20  1  0  0  0  0
 20 21  1  0  0  0  0
 20 22  1  0  0  0  0
 20 23  1  0  0  0  0
M  END
> <VM2 Rank>
68

> <Conf_Id>
666

> <Probability>
0.02

> <Sum Probability>
99.89

> <Delta G>
3.871

> <G>
41.788

> <E>
13.893

> <-TS>
27.895

> <U+W>
-4.886

> <U>
51.036

> <W>
-55.922

> <W(PB)>
-57.980

> <W(SA)>
2.057

> <Valence>
5.117

> <Coulomb>
45.322

> <VdW>
0.598

> <VdW6>
-6.707

> <VdW12>
7.305

> <Bond>
0.233

> <Angle>
1.410

> <Pdih>
3.474

> <Idih>
0.000

> <Tether>
0.000

$$$$
VeraChem MOL file


 23 22  0  0  0  0  0  0  0  0999 V2000     
   18.8163   18.0089   24.6575 N   0  3  0  0  0  0  0  0  0  0  0  0
   18.4069   18.5056   25.4552 H   0  0  0  0  0  0  0  0  0  0  0  0
   18.7618   17.0070   24.8695 H   0  0  0  0  0  0  0  0  0  0  0  0
   18.2105   18.1816   23.8498 H   0  0  0  0  0  0  0  0  0  0  0  0
   20.2416   18.4525   24.3919 C   0  0  0  0  0  0  0  0  0  0  0  0
   20.6388   17.8626   23.5630 H   0  0  0  0  0  0  0  0  0  0  0  0
   20.8321   18.2187   25.2820 H   0  0  0  0  0  0  0  0  0  0  0  0
   20.3732   19.9546   24.0754 C   0  0  0  0  0  0  0  0  0  0  0  0
   20.0397   20.5268   24.9513 H   0  0  0  0  0  0  0  0  0  0  0  0
   21.4370   20.1944   23.9468 H   0  0  0  0  0  0  0  0  0  0  0  0
   19.5860   20.4404   22.8290 C   0  0  0  0  0  0  0  0  0  0  0  0
   19.7024   21.5319   22.7772 H   0  0  0  0  0  0  0  0  0  0  0  0
   18.5090   20.2693   22.9582 H   0  0  0  0  0  0  0  0  0  0  0  0
   20.0698   19.8496   21.4785 C   0  0  0  0  0  0  0  0  0  0  0  0
   19.8554   20.5841   20.6898 H   0  0  0  0  0  0  0  0  0  0  0  0
   21.1618   19.7289   21.4897 H   0  0  0  0  0  0  0  0  0  0  0  0
   19.3864   18.5169   21.0875 C   0  0  0  0  0  0  0  0  0  0  0  0
   18.2953   18.6471   21.0842 H   0  0  0  0  0  0  0  0  0  0  0  0
   19.6102   17.7343   21.8209 H   0  0  0  0  0  0  0  0  0  0  0  0
   19.8426   18.0341   19.6942 C   0  0  0  0  0  0  0  0  0  0  0  0
   19.3488   17.0899   19.4301 H   0  0  0  0  0  0  0  0  0  0  0  0
   20.9271   17.8650   19.6709 H   0  0  0  0  0  0  0  0  0  0  0  0
   19.5949   18.7714   18.9194 H   0  0  0  0  0  0  0  0  0  0  0  0
  1  2  1  0  0  0  0
  1  3  1  0  0  0  0
  1  4  1  0  0  0  0
  1  5  1  0  0  0  0
  5  6  1  0  0  0  0
  5  7  1  0  0  0  0
  5  8  1  0  0  0  0
  8  9  1  0  0  0  0
  8 10  1  0  0  0  0
  8 11  1  0  0  0  0
 11 12  1  0  0  0  0
 11 13  1  0  0  0  0
 11 14  1  0  0  0  0
 14 15  1  0  0  0  0
 14 16  1  0  0  0  0
 14 17  1  0  0  0  0
 17 18  1  0  0  0  0
 17 19  1  0  0  0  0
 17 20  1  0  0  0  0
 20 21  1  0  0  0  0
 20 22  1  0  0  0  0
 20 23  1  0  0  0  0
M  END
> <VM2 Rank>
69

> <Conf_Id>
126

> <Probability>
0.02

> <Sum Probability>
99.90

> <Delta G>
3.925

> <G>
41.841

> <E>
13.821

> <-TS>
28.020

> <U+W>
-4.958

> <U>
51.112

> <W>
-56.070

> <W(PB)>
-58.128

> <W(SA)>
2.058

> <Valence>
4.455

> <Coulomb>
46.320

> <VdW>
0.337

> <VdW6>
-7.022

> <VdW12>
7.359

> <Bond>
0.222

> <Angle>
1.454

> <Pdih>
2.779

> <Idih>
0.000

> <Tether>
0.000

$$$$
VeraChem MOL file


 23 22  0  0  0  0  0  0  0  0999 V2000     
   20.0560   17.7786   25.2513 N   0  3  0  0  0  0  0  0  0  0  0  0
   20.3399   18.3535   26.0511 H   0  0  0  0  0  0  0  0  0  0  0  0
   20.9026   17.3310   24.8862 H   0  0  0  0  0  0  0  0  0  0  0  0
   19.4581   17.0311   25.6197 H   0  0  0  0  0  0  0  0  0  0  0  0
   19.3457   18.5968   24.1922 C   0  0  0  0  0  0  0  0  0  0  0  0
   18.4430   19.0200   24.6409 H   0  0  0  0  0  0  0  0  0  0  0  0
   19.0448   17.9189   23.3893 H   0  0  0  0  0  0  0  0  0  0  0  0
   20.2177   19.7290   23.6175 C   0  0  0  0  0  0  0  0  0  0  0  0
   20.5327   20.3877   24.4376 H   0  0  0  0  0  0  0  0  0  0  0  0
   21.1389   19.3174   23.1876 H   0  0  0  0  0  0  0  0  0  0  0  0
   19.4735   20.5762   22.5581 C   0  0  0  0  0  0  0  0  0  0  0  0
   20.1441   21.3712   22.2039 H   0  0  0  0  0  0  0  0  0  0  0  0
   18.6348   21.0901   23.0481 H   0  0  0  0  0  0  0  0  0  0  0  0
   18.9230   19.7949   21.3342 C   0  0  0  0  0  0  0  0  0  0  0  0
   18.1750   19.0551   21.6493 H   0  0  0  0  0  0  0  0  0  0  0  0
   18.3734   20.5143   20.7115 H   0  0  0  0  0  0  0  0  0  0  0  0
   20.0026   19.1265   20.4436 C   0  0  0  0  0  0  0  0  0  0  0  0
   20.9292   19.7170   20.4583 H   0  0  0  0  0  0  0  0  0  0  0  0
   19.6508   19.1440   19.4025 H   0  0  0  0  0  0  0  0  0  0  0  0
   20.2975   17.6550   20.8171 C   0  0  0  0  0  0  0  0  0  0  0  0
   19.3825   17.0496   20.7847 H   0  0  0  0  0  0  0  0  0  0  0  0
   20.7324   17.5611   21.8174 H   0  0  0  0  0  0  0  0  0  0  0  0
   21.0108   17.2166   20.1072 H   0  0  0  0  0  0  0  0  0  0  0  0
  1  2  1  0  0  0  0
  1  3  1  0  0  0  0
  1  4  1  0  0  0  0
  1  5  1  0  0  0  0
  5  6  1  0  0  0  0
  5  7  1  0  0  0  0
  5  8  1  0  0  0  0
  8  9  1  0  0  0  0
  8 10  1  0  0  0  0
  8 11  1  0  0  0  0
 11 12  1  0  0  0  0
 11 13  1  0  0  0  0
 11 14  1  0  0  0  0
 14 15  1  0  0  0  0
 14 16  1  0  0  0  0
 14 17  1  0  0  0  0
 17 18  1  0  0  0  0
 17 19  1  0  0  0  0
 17 20  1  0  0  0  0
 20 21  1  0  0  0  0
 20 22  1  0  0  0  0
 20 23  1  0  0  0  0
M  END
> <VM2 Rank>
70

> <Conf_Id>
765

> <Probability>
0.02

> <Sum Probability>
99.92

> <Delta G>
3.977

> <G>
41.893

> <E>
13.665

> <-TS>
28.229

> <U+W>
-5.114

> <U>
51.053

> <W>
-56.167

> <W(PB)>
-58.205

> <W(SA)>
2.037

> <Valence>
5.021

> <Coulomb>
45.787

> <VdW>
0.245

> <VdW6>
-7.353

> <VdW12>
7.597

> <Bond>
0.229

> <Angle>
1.631

> <Pdih>
3.162

> <Idih>
0.000

> <Tether>
0.000

$$$$
VeraChem MOL file


 23 22  0  0  0  0  0  0  0  0999 V2000     
   20.2367   17.8538   25.2597 N   0  3  0  0  0  0  0  0  0  0  0  0
   19.5683   18.0327   26.0161 H   0  0  0  0  0  0  0  0  0  0  0  0
   21.1570   17.7380   25.6972 H   0  0  0  0  0  0  0  0  0  0  0  0
   19.9876   16.9504   24.8447 H   0  0  0  0  0  0  0  0  0  0  0  0
   20.2380   18.9680   24.2329 C   0  0  0  0  0  0  0  0  0  0  0  0
   20.9915   18.7288   23.4780 H   0  0  0  0  0  0  0  0  0  0  0  0
   20.5371   19.8913   24.7362 H   0  0  0  0  0  0  0  0  0  0  0  0
   18.8689   19.1677   23.5560 C   0  0  0  0  0  0  0  0  0  0  0  0
   18.5471   18.2390   23.0695 H   0  0  0  0  0  0  0  0  0  0  0  0
   18.1177   19.3828   24.3275 H   0  0  0  0  0  0  0  0  0  0  0  0
   18.8734   20.3265   22.5307 C   0  0  0  0  0  0  0  0  0  0  0  0
   19.0602   21.2670   23.0674 H   0  0  0  0  0  0  0  0  0  0  0  0
   17.8673   20.4238   22.1001 H   0  0  0  0  0  0  0  0  0  0  0  0
   19.9079   20.2047   21.3791 C   0  0  0  0  0  0  0  0  0  0  0  0
   19.8325   21.1214   20.7780 H   0  0  0  0  0  0  0  0  0  0  0  0
   20.9323   20.2024   21.7749 H   0  0  0  0  0  0  0  0  0  0  0  0
   19.6925   18.9976   20.4295 C   0  0  0  0  0  0  0  0  0  0  0  0
   20.0078   19.2925   19.4187 H   0  0  0  0  0  0  0  0  0  0  0  0
   18.6230   18.7574   20.3532 H   0  0  0  0  0  0  0  0  0  0  0  0
   20.4986   17.7387   20.8262 C   0  0  0  0  0  0  0  0  0  0  0  0
   20.1824   17.3323   21.7923 H   0  0  0  0  0  0  0  0  0  0  0  0
   21.5720   17.9607   20.8843 H   0  0  0  0  0  0  0  0  0  0  0  0
   20.3635   16.9473   20.0776 H   0  0  0  0  0  0  0  0  0  0  0  0
  1  2  1  0  0  0  0
  1  3  1  0  0  0  0
  1  4  1  0  0  0  0
  1  5  1  0  0  0  0
  5  6  1  0  0  0  0
  5  7  1  0  0  0  0
  5  8  1  0  0  0  0
  8  9  1  0  0  0  0
  8 10  1  0  0  0  0
  8 11  1  0  0  0  0
 11 12  1  0  0  0  0
 11 13  1  0  0  0  0
 11 14  1  0  0  0  0
 14 15  1  0  0  0  0
 14 16  1  0  0  0  0
 14 17  1  0  0  0  0
 17 18  1  0  0  0  0
 17 19  1  0  0  0  0
 17 20  1  0  0  0  0
 20 21  1  0  0  0  0
 20 22  1  0  0  0  0
 20 23  1  0  0  0  0
M  END
> <VM2 Rank>
71

> <Conf_Id>
880

> <Probability>
0.01

> <Sum Probability>
99.93

> <Delta G>
4.047

> <G>
41.963

> <E>
13.735

> <-TS>
28.229

> <U+W>
-5.044

> <U>
51.053

> <W>
-56.097

> <W(PB)>
-58.132

> <W(SA)>
2.034

> <Valence>
5.021

> <Coulomb>
45.787

> <VdW>
0.245

> <VdW6>
-7.352

> <VdW12>
7.597

> <Bond>
0.229

> <Angle>
1.631

> <Pdih>
3.162

> <Idih>
0.000

> <Tether>
0.000

$$$$
VeraChem MOL file


 23 22  0  0  0  0  0  0  0  0999 V2000     
   20.0681   19.3083   25.5078 N   0  3  0  0  0  0  0  0  0  0  0  0
   20.0833   20.2578   25.1233 H   0  0  0  0  0  0  0  0  0  0  0  0
   20.8493   19.2388   26.1686 H   0  0  0  0  0  0  0  0  0  0  0  0
   19.2055   19.2154   26.0534 H   0  0  0  0  0  0  0  0  0  0  0  0
   20.1593   18.2612   24.4153 C   0  0  0  0  0  0  0  0  0  0  0  0
   20.1769   17.2799   24.8971 H   0  0  0  0  0  0  0  0  0  0  0  0
   21.1099   18.3973   23.8939 H   0  0  0  0  0  0  0  0  0  0  0  0
   18.9940   18.3117   23.4053 C   0  0  0  0  0  0  0  0  0  0  0  0
   19.1117   17.4840   22.6977 H   0  0  0  0  0  0  0  0  0  0  0  0
   18.0554   18.1154   23.9402 H   0  0  0  0  0  0  0  0  0  0  0  0
   18.8667   19.6592   22.6434 C   0  0  0  0  0  0  0  0  0  0  0  0
   18.6724   20.4541   23.3757 H   0  0  0  0  0  0  0  0  0  0  0  0
   17.9750   19.6339   22.0022 H   0  0  0  0  0  0  0  0  0  0  0  0
   20.1042   20.0616   21.7944 C   0  0  0  0  0  0  0  0  0  0  0  0
   20.1643   21.1587   21.7863 H   0  0  0  0  0  0  0  0  0  0  0  0
   21.0344   19.7237   22.2678 H   0  0  0  0  0  0  0  0  0  0  0  0
   20.0645   19.5939   20.3170 C   0  0  0  0  0  0  0  0  0  0  0  0
   20.9423   20.0063   19.8002 H   0  0  0  0  0  0  0  0  0  0  0  0
   19.1870   20.0255   19.8155 H   0  0  0  0  0  0  0  0  0  0  0  0
   20.0593   18.0611   20.1309 C   0  0  0  0  0  0  0  0  0  0  0  0
   19.1028   17.6258   20.4438 H   0  0  0  0  0  0  0  0  0  0  0  0
   20.8664   17.5881   20.7050 H   0  0  0  0  0  0  0  0  0  0  0  0
   20.2032   17.8034   19.0736 H   0  0  0  0  0  0  0  0  0  0  0  0
  1  2  1  0  0  0  0
  1  3  1  0  0  0  0
  1  4  1  0  0  0  0
  1  5  1  0  0  0  0
  5  6  1  0  0  0  0
  5  7  1  0  0  0  0
  5  8  1  0  0  0  0
  8  9  1  0  0  0  0
  8 10  1  0  0  0  0
  8 11  1  0  0  0  0
 11 12  1  0  0  0  0
 11 13  1  0  0  0  0
 11 14  1  0  0  0  0
 14 15  1  0  0  0  0
 14 16  1  0  0  0  0
 14 17  1  0  0  0  0
 17 18  1  0  0  0  0
 17 19  1  0  0  0  0
 17 20  1  0  0  0  0
 20 21  1  0  0  0  0
 20 22  1  0  0  0  0
 20 23  1  0  0  0  0
M  END
> <VM2 Rank>
72

> <Conf_Id>
127

> <Probability>
0.01

> <Sum Probability>
99.94

> <Delta G>
4.170

> <G>
42.087

> <E>
14.191

> <-TS>
27.895

> <U+W>
-4.588

> <U>
51.455

> <W>
-56.042

> <W(PB)>
-58.082

> <W(SA)>
2.040

> <Valence>
5.238

> <Coulomb>
45.552

> <VdW>
0.665

> <VdW6>
-7.395

> <VdW12>
8.060

> <Bond>
0.274

> <Angle>
1.687

> <Pdih>
3.277

> <Idih>
0.000

> <Tether>
0.000

$$$$
VeraChem MOL file


 23 22  0  0  0  0  0  0  0  0999 V2000     
   20.3752   18.5204   25.2079 N   0  3  0  0  0  0  0  0  0  0  0  0
   21.0908   19.1833   24.8950 H   0  0  0  0  0  0  0  0  0  0  0  0
   20.8658   17.7114   25.6037 H   0  0  0  0  0  0  0  0  0  0  0  0
   19.8645   18.9662   25.9766 H   0  0  0  0  0  0  0  0  0  0  0  0
   19.4505   18.1205   24.0752 C   0  0  0  0  0  0  0  0  0  0  0  0
   18.7351   17.3938   24.4698 H   0  0  0  0  0  0  0  0  0  0  0  0
   20.0503   17.6250   23.3075 H   0  0  0  0  0  0  0  0  0  0  0  0
   18.6861   19.3067   23.4533 C   0  0  0  0  0  0  0  0  0  0  0  0
   17.9791   18.9307   22.7039 H   0  0  0  0  0  0  0  0  0  0  0  0
   18.0702   19.7803   24.2291 H   0  0  0  0  0  0  0  0  0  0  0  0
   19.6035   20.3778   22.8109 C   0  0  0  0  0  0  0  0  0  0  0  0
   20.1798   20.8733   23.6037 H   0  0  0  0  0  0  0  0  0  0  0  0
   18.9743   21.1642   22.3718 H   0  0  0  0  0  0  0  0  0  0  0  0
   20.5928   19.8610   21.7313 C   0  0  0  0  0  0  0  0  0  0  0  0
   21.2216   20.7121   21.4353 H   0  0  0  0  0  0  0  0  0  0  0  0
   21.2860   19.1237   22.1575 H   0  0  0  0  0  0  0  0  0  0  0  0
   19.9279   19.2983   20.4480 C   0  0  0  0  0  0  0  0  0  0  0  0
   20.5904   19.5078   19.5964 H   0  0  0  0  0  0  0  0  0  0  0  0
   18.9903   19.8315   20.2382 H   0  0  0  0  0  0  0  0  0  0  0  0
   19.6800   17.7724   20.4875 C   0  0  0  0  0  0  0  0  0  0  0  0
   20.6119   17.2268   20.6844 H   0  0  0  0  0  0  0  0  0  0  0  0
   19.2893   17.4244   19.5225 H   0  0  0  0  0  0  0  0  0  0  0  0
   18.9515   17.4912   21.2548 H   0  0  0  0  0  0  0  0  0  0  0  0
  1  2  1  0  0  0  0
  1  3  1  0  0  0  0
  1  4  1  0  0  0  0
  1  5  1  0  0  0  0
  5  6  1  0  0  0  0
  5  7  1  0  0  0  0
  5  8  1  0  0  0  0
  8  9  1  0  0  0  0
  8 10  1  0  0  0  0
  8 11  1  0  0  0  0
 11 12  1  0  0  0  0
 11 13  1  0  0  0  0
 11 14  1  0  0  0  0
 14 15  1  0  0  0  0
 14 16  1  0  0  0  0
 14 17  1  0  0  0  0
 17 18  1  0  0  0  0
 17 19  1  0  0  0  0
 17 20  1  0  0  0  0
 20 21  1  0  0  0  0
 20 22  1  0  0  0  0
 20 23  1  0  0  0  0
M  END
> <VM2 Rank>
73

> <Conf_Id>
352

> <Probability>
0.01

> <Sum Probability>
99.95

> <Delta G>
4.279

> <G>
42.195

> <E>
13.814

> <-TS>
28.381

> <U+W>
-4.965

> <U>
51.195

> <W>
-56.160

> <W(PB)>
-58.178

> <W(SA)>
2.018

> <Valence>
5.115

> <Coulomb>
45.778

> <VdW>
0.302

> <VdW6>
-7.950

> <VdW12>
8.251

> <Bond>
0.252

> <Angle>
1.729

> <Pdih>
3.133

> <Idih>
0.000

> <Tether>
0.000

$$$$
VeraChem MOL file


 23 22  0  0  0  0  0  0  0  0999 V2000     
   19.4908   18.1523   25.1675 N   0  3  0  0  0  0  0  0  0  0  0  0
   19.4738   18.8035   25.9587 H   0  0  0  0  0  0  0  0  0  0  0  0
   19.6888   17.2216   25.5499 H   0  0  0  0  0  0  0  0  0  0  0  0
   18.5435   18.1232   24.7787 H   0  0  0  0  0  0  0  0  0  0  0  0
   20.5109   18.5618   24.1236 C   0  0  0  0  0  0  0  0  0  0  0  0
   20.5006   17.8123   23.3280 H   0  0  0  0  0  0  0  0  0  0  0  0
   21.4969   18.5433   24.5958 H   0  0  0  0  0  0  0  0  0  0  0  0
   20.2553   19.9598   23.5248 C   0  0  0  0  0  0  0  0  0  0  0  0
   20.2919   20.7050   24.3304 H   0  0  0  0  0  0  0  0  0  0  0  0
   21.0759   20.2196   22.8451 H   0  0  0  0  0  0  0  0  0  0  0  0
   18.9029   20.0863   22.7790 C   0  0  0  0  0  0  0  0  0  0  0  0
   18.8215   21.1006   22.3648 H   0  0  0  0  0  0  0  0  0  0  0  0
   18.0861   20.0019   23.5082 H   0  0  0  0  0  0  0  0  0  0  0  0
   18.6585   19.0559   21.6431 C   0  0  0  0  0  0  0  0  0  0  0  0
   18.6611   18.0313   22.0379 H   0  0  0  0  0  0  0  0  0  0  0  0
   17.6373   19.2203   21.2720 H   0  0  0  0  0  0  0  0  0  0  0  0
   19.6230   19.1714   20.4341 C   0  0  0  0  0  0  0  0  0  0  0  0
   19.9195   20.2183   20.2806 H   0  0  0  0  0  0  0  0  0  0  0  0
   19.0758   18.8774   19.5274 H   0  0  0  0  0  0  0  0  0  0  0  0
   20.8746   18.2695   20.5419 C   0  0  0  0  0  0  0  0  0  0  0  0
   20.5918   17.2184   20.6835 H   0  0  0  0  0  0  0  0  0  0  0  0
   21.5254   18.5624   21.3721 H   0  0  0  0  0  0  0  0  0  0  0  0
   21.4700   18.3319   19.6219 H   0  0  0  0  0  0  0  0  0  0  0  0
  1  2  1  0  0  0  0
  1  3  1  0  0  0  0
  1  4  1  0  0  0  0
  1  5  1  0  0  0  0
  5  6  1  0  0  0  0
  5  7  1  0  0  0  0
  5  8  1  0  0  0  0
  8  9  1  0  0  0  0
  8 10  1  0  0  0  0
  8 11  1  0  0  0  0
 11 12  1  0  0  0  0
 11 13  1  0  0  0  0
 11 14  1  0  0  0  0
 14 15  1  0  0  0  0
 14 16  1  0  0  0  0
 14 17  1  0  0  0  0
 17 18  1  0  0  0  0
 17 19  1  0  0  0  0
 17 20  1  0  0  0  0
 20 21  1  0  0  0  0
 20 22  1  0  0  0  0
 20 23  1  0  0  0  0
M  END
> <VM2 Rank>
74

> <Conf_Id>
758

> <Probability>
0.01

> <Sum Probability>
99.96

> <Delta G>
4.289

> <G>
42.206

> <E>
13.825

> <-TS>
28.381

> <U+W>
-4.955

> <U>
51.195

> <W>
-56.149

> <W(PB)>
-58.166

> <W(SA)>
2.017

> <Valence>
5.115

> <Coulomb>
45.778

> <VdW>
0.302

> <VdW6>
-7.950

> <VdW12>
8.252

> <Bond>
0.252

> <Angle>
1.729

> <Pdih>
3.133

> <Idih>
0.000

> <Tether>
0.000

$$$$
VeraChem MOL file


 23 22  0  0  0  0  0  0  0  0999 V2000     
   20.1346   17.6277   24.2543 N   0  3  0  0  0  0  0  0  0  0  0  0
   19.3079   17.0324   24.1407 H   0  0  0  0  0  0  0  0  0  0  0  0
   20.7765   17.1300   24.8807 H   0  0  0  0  0  0  0  0  0  0  0  0
   20.5898   17.6930   23.3392 H   0  0  0  0  0  0  0  0  0  0  0  0
   19.7693   18.9960   24.7956 C   0  0  0  0  0  0  0  0  0  0  0  0
   20.6914   19.5518   24.9855 H   0  0  0  0  0  0  0  0  0  0  0  0
   19.2666   18.8369   25.7535 H   0  0  0  0  0  0  0  0  0  0  0  0
   18.8464   19.8182   23.8719 C   0  0  0  0  0  0  0  0  0  0  0  0
   18.0464   19.1829   23.4713 H   0  0  0  0  0  0  0  0  0  0  0  0
   18.3417   20.5708   24.4921 H   0  0  0  0  0  0  0  0  0  0  0  0
   19.5848   20.5682   22.7305 C   0  0  0  0  0  0  0  0  0  0  0  0
   20.2990   21.2737   23.1772 H   0  0  0  0  0  0  0  0  0  0  0  0
   18.8552   21.1865   22.1896 H   0  0  0  0  0  0  0  0  0  0  0  0
   20.3402   19.6830   21.7066 C   0  0  0  0  0  0  0  0  0  0  0  0
   20.8245   20.3441   20.9745 H   0  0  0  0  0  0  0  0  0  0  0  0
   21.1582   19.1462   22.2023 H   0  0  0  0  0  0  0  0  0  0  0  0
   19.4251   18.6927   20.9477 C   0  0  0  0  0  0  0  0  0  0  0  0
   18.6239   19.2478   20.4399 H   0  0  0  0  0  0  0  0  0  0  0  0
   18.9344   18.0050   21.6478 H   0  0  0  0  0  0  0  0  0  0  0  0
   20.2156   17.8711   19.9075 C   0  0  0  0  0  0  0  0  0  0  0  0
   20.6842   18.5256   19.1610 H   0  0  0  0  0  0  0  0  0  0  0  0
   19.5514   17.1772   19.3760 H   0  0  0  0  0  0  0  0  0  0  0  0
   21.0062   17.2796   20.3871 H   0  0  0  0  0  0  0  0  0  0  0  0
  1  2  1  0  0  0  0
  1  3  1  0  0  0  0
  1  4  1  0  0  0  0
  1  5  1  0  0  0  0
  5  6  1  0  0  0  0
  5  7  1  0  0  0  0
  5  8  1  0  0  0  0
  8  9  1  0  0  0  0
  8 10  1  0  0  0  0
  8 11  1  0  0  0  0
 11 12  1  0  0  0  0
 11 13  1  0  0  0  0
 11 14  1  0  0  0  0
 14 15  1  0  0  0  0
 14 16  1  0  0  0  0
 14 17  1  0  0  0  0
 17 18  1  0  0  0  0
 17 19  1  0  0  0  0
 17 20  1  0  0  0  0
 20 21  1  0  0  0  0
 20 22  1  0  0  0  0
 20 23  1  0  0  0  0
M  END
> <VM2 Rank>
75

> <Conf_Id>
487

> <Probability>
0.01

> <Sum Probability>
99.97

> <Delta G>
4.444

> <G>
42.360

> <E>
14.084

> <-TS>
28.276

> <U+W>
-4.695

> <U>
50.876

> <W>
-55.571

> <W(PB)>
-57.630

> <W(SA)>
2.059

> <Valence>
3.812

> <Coulomb>
46.852

> <VdW>
0.213

> <VdW6>
-7.415

> <VdW12>
7.628

> <Bond>
0.215

> <Angle>
1.471

> <Pdih>
2.126

> <Idih>
0.000

> <Tether>
0.000

$$$$
VeraChem MOL file


 23 22  0  0  0  0  0  0  0  0999 V2000     
   20.3657   17.7238   24.2646 N   0  3  0  0  0  0  0  0  0  0  0  0
   20.2189   16.8978   24.8549 H   0  0  0  0  0  0  0  0  0  0  0  0
   21.3762   17.8929   24.2349 H   0  0  0  0  0  0  0  0  0  0  0  0
   20.0710   17.4773   23.3152 H   0  0  0  0  0  0  0  0  0  0  0  0
   19.6111   18.9301   24.7882 C   0  0  0  0  0  0  0  0  0  0  0  0
   20.0021   19.1427   25.7869 H   0  0  0  0  0  0  0  0  0  0  0  0
   18.5556   18.6631   24.8878 H   0  0  0  0  0  0  0  0  0  0  0  0
   19.7484   20.1935   23.9130 C   0  0  0  0  0  0  0  0  0  0  0  0
   19.5217   21.0616   24.5461 H   0  0  0  0  0  0  0  0  0  0  0  0
   20.7909   20.3247   23.5965 H   0  0  0  0  0  0  0  0  0  0  0  0
   18.7877   20.2368   22.6942 C   0  0  0  0  0  0  0  0  0  0  0  0
   18.9042   21.2070   22.1919 H   0  0  0  0  0  0  0  0  0  0  0  0
   17.7522   20.2145   23.0611 H   0  0  0  0  0  0  0  0  0  0  0  0
   18.9636   19.1105   21.6439 C   0  0  0  0  0  0  0  0  0  0  0  0
   18.7308   18.1367   22.0917 H   0  0  0  0  0  0  0  0  0  0  0  0
   18.2124   19.2577   20.8554 H   0  0  0  0  0  0  0  0  0  0  0  0
   20.3660   19.0841   20.9906 C   0  0  0  0  0  0  0  0  0  0  0  0
   21.1430   18.9238   21.7486 H   0  0  0  0  0  0  0  0  0  0  0  0
   20.5748   20.0593   20.5288 H   0  0  0  0  0  0  0  0  0  0  0  0
   20.4735   17.9782   19.9195 C   0  0  0  0  0  0  0  0  0  0  0  0
   20.3001   16.9858   20.3553 H   0  0  0  0  0  0  0  0  0  0  0  0
   21.4723   17.9759   19.4639 H   0  0  0  0  0  0  0  0  0  0  0  0
   19.7391   18.1322   19.1181 H   0  0  0  0  0  0  0  0  0  0  0  0
  1  2  1  0  0  0  0
  1  3  1  0  0  0  0
  1  4  1  0  0  0  0
  1  5  1  0  0  0  0
  5  6  1  0  0  0  0
  5  7  1  0  0  0  0
  5  8  1  0  0  0  0
  8  9  1  0  0  0  0
  8 10  1  0  0  0  0
  8 11  1  0  0  0  0
 11 12  1  0  0  0  0
 11 13  1  0  0  0  0
 11 14  1  0  0  0  0
 14 15  1  0  0  0  0
 14 16  1  0  0  0  0
 14 17  1  0  0  0  0
 17 18  1  0  0  0  0
 17 19  1  0  0  0  0
 17 20  1  0  0  0  0
 20 21  1  0  0  0  0
 20 22  1  0  0  0  0
 20 23  1  0  0  0  0
M  END
> <VM2 Rank>
76

> <Conf_Id>
102

> <Probability>
0.01

> <Sum Probability>
99.98

> <Delta G>
4.547

> <G>
42.464

> <E>
14.187

> <-TS>
28.276

> <U+W>
-4.592

> <U>
50.877

> <W>
-55.468

> <W(PB)>
-57.490

> <W(SA)>
2.022

> <Valence>
3.812

> <Coulomb>
46.852

> <VdW>
0.213

> <VdW6>
-7.416

> <VdW12>
7.629

> <Bond>
0.215

> <Angle>
1.471

> <Pdih>
2.127

> <Idih>
0.000

> <Tether>
0.000

$$$$
VeraChem MOL file


 23 22  0  0  0  0  0  0  0  0999 V2000     
   19.4993   17.6997   24.7627 N   0  3  0  0  0  0  0  0  0  0  0  0
   20.1849   17.2599   24.1421 H   0  0  0  0  0  0  0  0  0  0  0  0
   18.7839   16.9948   24.9707 H   0  0  0  0  0  0  0  0  0  0  0  0
   19.9789   17.9064   25.6447 H   0  0  0  0  0  0  0  0  0  0  0  0
   18.8974   18.9472   24.1453 C   0  0  0  0  0  0  0  0  0  0  0  0
   18.1655   19.3433   24.8544 H   0  0  0  0  0  0  0  0  0  0  0  0
   18.3651   18.6532   23.2389 H   0  0  0  0  0  0  0  0  0  0  0  0
   19.9370   20.0410   23.8248 C   0  0  0  0  0  0  0  0  0  0  0  0
   19.4167   20.9710   23.5599 H   0  0  0  0  0  0  0  0  0  0  0  0
   20.4958   20.2617   24.7440 H   0  0  0  0  0  0  0  0  0  0  0  0
   20.9400   19.6670   22.7006 C   0  0  0  0  0  0  0  0  0  0  0  0
   21.2418   18.6152   22.7787 H   0  0  0  0  0  0  0  0  0  0  0  0
   21.8599   20.2439   22.8687 H   0  0  0  0  0  0  0  0  0  0  0  0
   20.4539   19.9896   21.2614 C   0  0  0  0  0  0  0  0  0  0  0  0
   20.2581   21.0681   21.1866 H   0  0  0  0  0  0  0  0  0  0  0  0
   21.2779   19.7894   20.5627 H   0  0  0  0  0  0  0  0  0  0  0  0
   19.1992   19.2230   20.7750 C   0  0  0  0  0  0  0  0  0  0  0  0
   18.9569   19.5647   19.7590 H   0  0  0  0  0  0  0  0  0  0  0  0
   18.3293   19.4869   21.3895 H   0  0  0  0  0  0  0  0  0  0  0  0
   19.3891   17.6894   20.7443 C   0  0  0  0  0  0  0  0  0  0  0  0
   19.5481   17.2796   21.7481 H   0  0  0  0  0  0  0  0  0  0  0  0
   20.2499   17.4125   20.1219 H   0  0  0  0  0  0  0  0  0  0  0  0
   18.5008   17.2005   20.3240 H   0  0  0  0  0  0  0  0  0  0  0  0
  1  2  1  0  0  0  0
  1  3  1  0  0  0  0
  1  4  1  0  0  0  0
  1  5  1  0  0  0  0
  5  6  1  0  0  0  0
  5  7  1  0  0  0  0
  5  8  1  0  0  0  0
  8  9  1  0  0  0  0
  8 10  1  0  0  0  0
  8 11  1  0  0  0  0
 11 12  1  0  0  0  0
 11 13  1  0  0  0  0
 11 14  1  0  0  0  0
 14 15  1  0  0  0  0
 14 16  1  0  0  0  0
 14 17  1  0  0  0  0
 17 18  1  0  0  0  0
 17 19  1  0  0  0  0
 17 20  1  0  0  0  0
 20 21  1  0  0  0  0
 20 22  1  0  0  0  0
 20 23  1  0  0  0  0
M  END
> <VM2 Rank>
77

> <Conf_Id>
496

> <Probability>
0.01

> <Sum Probability>
99.98

> <Delta G>
4.550

> <G>
42.467

> <E>
13.891

> <-TS>
28.576

> <U+W>
-4.889

> <U>
51.403

> <W>
-56.291

> <W(PB)>
-58.317

> <W(SA)>
2.025

> <Valence>
4.890

> <Coulomb>
46.339

> <VdW>
0.174

> <VdW6>
-8.062

> <VdW12>
8.235

> <Bond>
0.255

> <Angle>
1.788

> <Pdih>
2.848

> <Idih>
0.000

> <Tether>
0.000

$$$$
VeraChem MOL file


 23 22  0  0  0  0  0  0  0  0999 V2000     
   20.7212   18.2082   24.8185 N   0  3  0  0  0  0  0  0  0  0  0  0
   21.7063   18.2109   25.1040 H   0  0  0  0  0  0  0  0  0  0  0  0
   20.5996   17.4324   24.1612 H   0  0  0  0  0  0  0  0  0  0  0  0
   20.1699   17.9860   25.6536 H   0  0  0  0  0  0  0  0  0  0  0  0
   20.3080   19.5342   24.2096 C   0  0  0  0  0  0  0  0  0  0  0  0
   20.9602   19.7330   23.3572 H   0  0  0  0  0  0  0  0  0  0  0  0
   20.4863   20.3091   24.9602 H   0  0  0  0  0  0  0  0  0  0  0  0
   18.8288   19.5798   23.7743 C   0  0  0  0  0  0  0  0  0  0  0  0
   18.2090   19.3101   24.6398 H   0  0  0  0  0  0  0  0  0  0  0  0
   18.5558   20.6127   23.5207 H   0  0  0  0  0  0  0  0  0  0  0  0
   18.4770   18.6421   22.5883 C   0  0  0  0  0  0  0  0  0  0  0  0
   17.4099   18.3920   22.6659 H   0  0  0  0  0  0  0  0  0  0  0  0
   19.0040   17.6839   22.6766 H   0  0  0  0  0  0  0  0  0  0  0  0
   18.7012   19.2603   21.1816 C   0  0  0  0  0  0  0  0  0  0  0  0
   18.3189   18.5583   20.4278 H   0  0  0  0  0  0  0  0  0  0  0  0
   18.0808   20.1622   21.0875 H   0  0  0  0  0  0  0  0  0  0  0  0
   20.1624   19.6238   20.8189 C   0  0  0  0  0  0  0  0  0  0  0  0
   20.5384   20.4060   21.4903 H   0  0  0  0  0  0  0  0  0  0  0  0
   20.1692   20.0694   19.8143 H   0  0  0  0  0  0  0  0  0  0  0  0
   21.1174   18.4086   20.8229 C   0  0  0  0  0  0  0  0  0  0  0  0
   21.2183   17.9745   21.8240 H   0  0  0  0  0  0  0  0  0  0  0  0
   22.1197   18.7063   20.4887 H   0  0  0  0  0  0  0  0  0  0  0  0
   20.7575   17.6239   20.1448 H   0  0  0  0  0  0  0  0  0  0  0  0
  1  2  1  0  0  0  0
  1  3  1  0  0  0  0
  1  4  1  0  0  0  0
  1  5  1  0  0  0  0
  5  6  1  0  0  0  0
  5  7  1  0  0  0  0
  5  8  1  0  0  0  0
  8  9  1  0  0  0  0
  8 10  1  0  0  0  0
  8 11  1  0  0  0  0
 11 12  1  0  0  0  0
 11 13  1  0  0  0  0
 11 14  1  0  0  0  0
 14 15  1  0  0  0  0
 14 16  1  0  0  0  0
 14 17  1  0  0  0  0
 17 18  1  0  0  0  0
 17 19  1  0  0  0  0
 17 20  1  0  0  0  0
 20 21  1  0  0  0  0
 20 22  1  0  0  0  0
 20 23  1  0  0  0  0
M  END
> <VM2 Rank>
78

> <Conf_Id>
568

> <Probability>
0.01

> <Sum Probability>
99.99

> <Delta G>
4.562

> <G>
42.479

> <E>
13.903

> <-TS>
28.576

> <U+W>
-4.876

> <U>
51.402

> <W>
-56.278

> <W(PB)>
-58.290

> <W(SA)>
2.011

> <Valence>
4.891

> <Coulomb>
46.338

> <VdW>
0.173

> <VdW6>
-8.061

> <VdW12>
8.234

> <Bond>
0.254

> <Angle>
1.788

> <Pdih>
2.849

> <Idih>
0.000

> <Tether>
0.000

$$$$
VeraChem MOL file


 23 22  0  0  0  0  0  0  0  0999 V2000     
   19.3637   17.7797   24.5918 N   0  3  0  0  0  0  0  0  0  0  0  0
   18.7178   17.7196   23.7999 H   0  0  0  0  0  0  0  0  0  0  0  0
   18.8667   17.4285   25.4175 H   0  0  0  0  0  0  0  0  0  0  0  0
   20.1333   17.1284   24.4077 H   0  0  0  0  0  0  0  0  0  0  0  0
   19.8647   19.1953   24.7981 C   0  0  0  0  0  0  0  0  0  0  0  0
   20.5521   19.1700   25.6480 H   0  0  0  0  0  0  0  0  0  0  0  0
   19.0148   19.8271   25.0696 H   0  0  0  0  0  0  0  0  0  0  0  0
   20.5936   19.7988   23.5793 C   0  0  0  0  0  0  0  0  0  0  0  0
   21.2084   20.6326   23.9430 H   0  0  0  0  0  0  0  0  0  0  0  0
   21.3008   19.0723   23.1596 H   0  0  0  0  0  0  0  0  0  0  0  0
   19.6500   20.3559   22.4799 C   0  0  0  0  0  0  0  0  0  0  0  0
   20.2550   20.8972   21.7404 H   0  0  0  0  0  0  0  0  0  0  0  0
   18.9937   21.1139   22.9292 H   0  0  0  0  0  0  0  0  0  0  0  0
   18.7684   19.3131   21.7421 C   0  0  0  0  0  0  0  0  0  0  0  0
   18.0317   18.8945   22.4385 H   0  0  0  0  0  0  0  0  0  0  0  0
   18.1761   19.8390   20.9806 H   0  0  0  0  0  0  0  0  0  0  0  0
   19.5444   18.1614   21.0528 C   0  0  0  0  0  0  0  0  0  0  0  0
   18.8193   17.4801   20.5860 H   0  0  0  0  0  0  0  0  0  0  0  0
   20.0860   17.5626   21.7960 H   0  0  0  0  0  0  0  0  0  0  0  0
   20.5312   18.6530   19.9700 C   0  0  0  0  0  0  0  0  0  0  0  0
   21.3417   19.2500   20.4063 H   0  0  0  0  0  0  0  0  0  0  0  0
   20.0185   19.2664   19.2178 H   0  0  0  0  0  0  0  0  0  0  0  0
   20.9902   17.8008   19.4523 H   0  0  0  0  0  0  0  0  0  0  0  0
  1  2  1  0  0  0  0
  1  3  1  0  0  0  0
  1  4  1  0  0  0  0
  1  5  1  0  0  0  0
  5  6  1  0  0  0  0
  5  7  1  0  0  0  0
  5  8  1  0  0  0  0
  8  9  1  0  0  0  0
  8 10  1  0  0  0  0
  8 11  1  0  0  0  0
 11 12  1  0  0  0  0
 11 13  1  0  0  0  0
 11 14  1  0  0  0  0
 14 15  1  0  0  0  0
 14 16  1  0  0  0  0
 14 17  1  0  0  0  0
 17 18  1  0  0  0  0
 17 19  1  0  0  0  0
 17 20  1  0  0  0  0
 20 21  1  0  0  0  0
 20 22  1  0  0  0  0
 20 23  1  0  0  0  0
M  END
> <VM2 Rank>
79

> <Conf_Id>
184

> <Probability>
0.00

> <Sum Probability>
99.99

> <Delta G>
4.664

> <G>
42.580

> <E>
14.117

> <-TS>
28.464

> <U+W>
-4.662

> <U>
51.396

> <W>
-56.059

> <W(PB)>
-58.085

> <W(SA)>
2.026

> <Valence>
4.231

> <Coulomb>
46.940

> <VdW>
0.225

> <VdW6>
-8.093

> <VdW12>
8.318

> <Bond>
0.258

> <Angle>
1.779

> <Pdih>
2.194

> <Idih>
0.000

> <Tether>
0.000

$$$$
VeraChem MOL file


 23 22  0  0  0  0  0  0  0  0999 V2000     
   20.7730   18.3660   24.6561 N   0  3  0  0  0  0  0  0  0  0  0  0
   21.3303   18.8062   23.9189 H   0  0  0  0  0  0  0  0  0  0  0  0
   20.7081   17.3675   24.4342 H   0  0  0  0  0  0  0  0  0  0  0  0
   21.3064   18.4437   25.5288 H   0  0  0  0  0  0  0  0  0  0  0  0
   19.4030   19.0033   24.7771 C   0  0  0  0  0  0  0  0  0  0  0  0
   19.5313   20.0421   25.0928 H   0  0  0  0  0  0  0  0  0  0  0  0
   18.8725   18.4716   25.5716 H   0  0  0  0  0  0  0  0  0  0  0  0
   18.5586   18.9520   23.4866 C   0  0  0  0  0  0  0  0  0  0  0  0
   18.6093   17.9523   23.0371 H   0  0  0  0  0  0  0  0  0  0  0  0
   17.5084   19.0930   23.7745 H   0  0  0  0  0  0  0  0  0  0  0  0
   18.9115   20.0485   22.4462 C   0  0  0  0  0  0  0  0  0  0  0  0
   18.8003   21.0335   22.9202 H   0  0  0  0  0  0  0  0  0  0  0  0
   18.1608   20.0256   21.6449 H   0  0  0  0  0  0  0  0  0  0  0  0
   20.3259   19.9612   21.8130 C   0  0  0  0  0  0  0  0  0  0  0  0
   20.4281   20.7762   21.0832 H   0  0  0  0  0  0  0  0  0  0  0  0
   21.0853   20.1652   22.5777 H   0  0  0  0  0  0  0  0  0  0  0  0
   20.6504   18.6216   21.1032 C   0  0  0  0  0  0  0  0  0  0  0  0
   20.6366   17.7918   21.8211 H   0  0  0  0  0  0  0  0  0  0  0  0
   21.6779   18.6697   20.7163 H   0  0  0  0  0  0  0  0  0  0  0  0
   19.6937   18.3044   19.9318 C   0  0  0  0  0  0  0  0  0  0  0  0
   19.6775   19.1244   19.2022 H   0  0  0  0  0  0  0  0  0  0  0  0
   18.6683   18.1375   20.2843 H   0  0  0  0  0  0  0  0  0  0  0  0
   20.0153   17.3951   19.4078 H   0  0  0  0  0  0  0  0  0  0  0  0
  1  2  1  0  0  0  0
  1  3  1  0  0  0  0
  1  4  1  0  0  0  0
  1  5  1  0  0  0  0
  5  6  1  0  0  0  0
  5  7  1  0  0  0  0
  5  8  1  0  0  0  0
  8  9  1  0  0  0  0
  8 10  1  0  0  0  0
  8 11  1  0  0  0  0
 11 12  1  0  0  0  0
 11 13  1  0  0  0  0
 11 14  1  0  0  0  0
 14 15  1  0  0  0  0
 14 16  1  0  0  0  0
 14 17  1  0  0  0  0
 17 18  1  0  0  0  0
 17 19  1  0  0  0  0
 17 20  1  0  0  0  0
 20 21  1  0  0  0  0
 20 22  1  0  0  0  0
 20 23  1  0  0  0  0
M  END
> <VM2 Rank>
80

> <Conf_Id>
876

> <Probability>
0.00

> <Sum Probability>
100.00

> <Delta G>
4.718

> <G>
42.634

> <E>
14.171

> <-TS>
28.463

> <U+W>
-4.608

> <U>
51.396

> <W>
-56.005

> <W(PB)>
-58.024

> <W(SA)>
2.020

> <Valence>
4.232

> <Coulomb>
46.940

> <VdW>
0.225

> <VdW6>
-8.093

> <VdW12>
8.318

> <Bond>
0.258

> <Angle>
1.778

> <Pdih>
2.195

> <Idih>
0.000

> <Tether>
0.000

$$$$
VeraChem MOL file


 23 22  0  0  0  0  0  0  0  0999 V2000     
   20.9847   18.3676   24.3647 N   0  3  0  0  0  0  0  0  0  0  0  0
   20.6630   17.5963   24.9585 H   0  0  0  0  0  0  0  0  0  0  0  0
   21.9270   18.6182   24.6829 H   0  0  0  0  0  0  0  0  0  0  0  0
   21.0717   18.0043   23.4109 H   0  0  0  0  0  0  0  0  0  0  0  0
   20.0385   19.5504   24.4198 C   0  0  0  0  0  0  0  0  0  0  0  0
   20.4465   20.3472   23.7942 H   0  0  0  0  0  0  0  0  0  0  0  0
   20.0187   19.9124   25.4513 H   0  0  0  0  0  0  0  0  0  0  0  0
   18.6027   19.2175   23.9708 C   0  0  0  0  0  0  0  0  0  0  0  0
   18.1717   18.5027   24.6843 H   0  0  0  0  0  0  0  0  0  0  0  0
   17.9915   20.1263   24.0494 H   0  0  0  0  0  0  0  0  0  0  0  0
   18.4698   18.6339   22.5383 C   0  0  0  0  0  0  0  0  0  0  0  0
   17.4090   18.3890   22.3894 H   0  0  0  0  0  0  0  0  0  0  0  0
   18.9944   17.6743   22.4623 H   0  0  0  0  0  0  0  0  0  0  0  0
   18.8906   19.5954   21.3925 C   0  0  0  0  0  0  0  0  0  0  0  0
   18.3377   19.3129   20.4859 H   0  0  0  0  0  0  0  0  0  0  0  0
   18.5569   20.6142   21.6329 H   0  0  0  0  0  0  0  0  0  0  0  0
   20.4006   19.6192   21.0376 C   0  0  0  0  0  0  0  0  0  0  0  0
   21.0035   19.9347   21.8958 H   0  0  0  0  0  0  0  0  0  0  0  0
   20.5592   20.3888   20.2693 H   0  0  0  0  0  0  0  0  0  0  0  0
   20.9291   18.2730   20.4904 C   0  0  0  0  0  0  0  0  0  0  0  0
   20.8960   17.4795   21.2456 H   0  0  0  0  0  0  0  0  0  0  0  0
   21.9728   18.3749   20.1657 H   0  0  0  0  0  0  0  0  0  0  0  0
   20.3416   17.9436   19.6236 H   0  0  0  0  0  0  0  0  0  0  0  0
  1  2  1  0  0  0  0
  1  3  1  0  0  0  0
  1  4  1  0  0  0  0
  1  5  1  0  0  0  0
  5  6  1  0  0  0  0
  5  7  1  0  0  0  0
  5  8  1  0  0  0  0
  8  9  1  0  0  0  0
  8 10  1  0  0  0  0
  8 11  1  0  0  0  0
 11 12  1  0  0  0  0
 11 13  1  0  0  0  0
 11 14  1  0  0  0  0
 14 15  1  0  0  0  0
 14 16  1  0  0  0  0
 14 17  1  0  0  0  0
 17 18  1  0  0  0  0
 17 19  1  0  0  0  0
 17 20  1  0  0  0  0
 20 21  1  0  0  0  0
 20 22  1  0  0  0  0
 20 23  1  0  0  0  0
M  END
> <VM2 Rank>
81

> <Conf_Id>
732

> <Probability>
0.00

> <Sum Probability>
100.00

> <Delta G>
5.426

> <G>
43.343

> <E>
14.927

> <-TS>
28.416

> <U+W>
-3.852

> <U>
51.834

> <W>
-55.685

> <W(PB)>
-57.702

> <W(SA)>
2.017

> <Valence>
5.094

> <Coulomb>
46.449

> <VdW>
0.290

> <VdW6>
-8.009

> <VdW12>
8.300

> <Bond>
0.281

> <Angle>
2.108

> <Pdih>
2.704

> <Idih>
0.000

> <Tether>
0.000

$$$$
VeraChem MOL file


 23 22  0  0  0  0  0  0  0  0999 V2000     
   20.8536   18.5096   25.2446 N   0  3  0  0  0  0  0  0  0  0  0  0
   20.2348   18.4066   26.0553 H   0  0  0  0  0  0  0  0  0  0  0  0
   21.7184   18.9443   25.5840 H   0  0  0  0  0  0  0  0  0  0  0  0
   21.0978   17.5652   24.9300 H   0  0  0  0  0  0  0  0  0  0  0  0
   20.2087   19.3249   24.1423 C   0  0  0  0  0  0  0  0  0  0  0  0
   20.9333   19.4247   23.3319 H   0  0  0  0  0  0  0  0  0  0  0  0
   20.0016   20.3225   24.5389 H   0  0  0  0  0  0  0  0  0  0  0  0
   18.9035   18.6990   23.6136 C   0  0  0  0  0  0  0  0  0  0  0  0
   19.0809   17.6746   23.2611 H   0  0  0  0  0  0  0  0  0  0  0  0
   18.2009   18.6188   24.4537 H   0  0  0  0  0  0  0  0  0  0  0  0
   18.2393   19.5396   22.4951 C   0  0  0  0  0  0  0  0  0  0  0  0
   18.3429   20.6102   22.7199 H   0  0  0  0  0  0  0  0  0  0  0  0
   17.1594   19.3375   22.5175 H   0  0  0  0  0  0  0  0  0  0  0  0
   18.7347   19.2497   21.0522 C   0  0  0  0  0  0  0  0  0  0  0  0
   18.5239   18.2048   20.7856 H   0  0  0  0  0  0  0  0  0  0  0  0
   18.1212   19.8540   20.3695 H   0  0  0  0  0  0  0  0  0  0  0  0
   20.2226   19.5818   20.7737 C   0  0  0  0  0  0  0  0  0  0  0  0
   20.5642   20.3943   21.4291 H   0  0  0  0  0  0  0  0  0  0  0  0
   20.3083   19.9705   19.7492 H   0  0  0  0  0  0  0  0  0  0  0  0
   21.1537   18.3524   20.8925 C   0  0  0  0  0  0  0  0  0  0  0  0
   20.8854   17.5878   20.1519 H   0  0  0  0  0  0  0  0  0  0  0  0
   21.1026   17.8887   21.8834 H   0  0  0  0  0  0  0  0  0  0  0  0
   22.1971   18.6403   20.7100 H   0  0  0  0  0  0  0  0  0  0  0  0
  1  2  1  0  0  0  0
  1  3  1  0  0  0  0
  1  4  1  0  0  0  0
  1  5  1  0  0  0  0
  5  6  1  0  0  0  0
  5  7  1  0  0  0  0
  5  8  1  0  0  0  0
  8  9  1  0  0  0  0
  8 10  1  0  0  0  0
  8 11  1  0  0  0  0
 11 12  1  0  0  0  0
 11 13  1  0  0  0  0
 11 14  1  0  0  0  0
 14 15  1  0  0  0  0
 14 16  1  0  0  0  0
 14 17  1  0  0  0  0
 17 18  1  0  0  0  0
 17 19  1  0  0  0  0
 17 20  1  0  0  0  0
 20 21  1  0  0  0  0
 20 22  1  0  0  0  0
 20 23  1  0  0  0  0
M  END
> <VM2 Rank>
82

> <Conf_Id>
764

> <Probability>
0.00

> <Sum Probability>
100.00

> <Delta G>
5.840

> <G>
43.756

> <E>
15.363

> <-TS>
28.393

> <U+W>
-3.416

> <U>
52.784

> <W>
-56.200

> <W(PB)>
-58.238

> <W(SA)>
2.038

> <Valence>
6.630

> <Coulomb>
45.869

> <VdW>
0.285

> <VdW6>
-7.559

> <VdW12>
7.844

> <Bond>
0.231

> <Angle>
1.767

> <Pdih>
4.632

> <Idih>
0.000

> <Tether>
0.000

$$$$
VeraChem MOL file


 23 22  0  0  0  0  0  0  0  0999 V2000     
   19.1597   17.8048   25.1673 N   0  3  0  0  0  0  0  0  0  0  0  0
   19.6813   16.9759   24.8653 H   0  0  0  0  0  0  0  0  0  0  0  0
   18.2186   17.4883   25.4244 H   0  0  0  0  0  0  0  0  0  0  0  0
   19.6043   18.1440   26.0264 H   0  0  0  0  0  0  0  0  0  0  0  0
   19.1206   18.8723   24.0928 C   0  0  0  0  0  0  0  0  0  0  0  0
   18.5289   19.7098   24.4720 H   0  0  0  0  0  0  0  0  0  0  0  0
   18.6041   18.4558   23.2258 H   0  0  0  0  0  0  0  0  0  0  0  0
   20.5209   19.3719   23.6872 C   0  0  0  0  0  0  0  0  0  0  0  0
   21.0058   19.7857   24.5814 H   0  0  0  0  0  0  0  0  0  0  0  0
   21.1490   18.5349   23.3552 H   0  0  0  0  0  0  0  0  0  0  0  0
   20.4786   20.4713   22.5972 C   0  0  0  0  0  0  0  0  0  0  0  0
   21.3778   21.0926   22.7098 H   0  0  0  0  0  0  0  0  0  0  0  0
   19.6303   21.1459   22.7786 H   0  0  0  0  0  0  0  0  0  0  0  0
   20.4481   19.9626   21.1303 C   0  0  0  0  0  0  0  0  0  0  0  0
   20.5037   20.8452   20.4781 H   0  0  0  0  0  0  0  0  0  0  0  0
   21.3565   19.3833   20.9146 H   0  0  0  0  0  0  0  0  0  0  0  0
   19.1902   19.1523   20.7266 C   0  0  0  0  0  0  0  0  0  0  0  0
   18.9344   19.3987   19.6865 H   0  0  0  0  0  0  0  0  0  0  0  0
   18.3243   19.4625   21.3269 H   0  0  0  0  0  0  0  0  0  0  0  0
   19.3979   17.6220   20.8126 C   0  0  0  0  0  0  0  0  0  0  0  0
   19.6850   17.2991   21.8190 H   0  0  0  0  0  0  0  0  0  0  0  0
   20.1852   17.2964   20.1203 H   0  0  0  0  0  0  0  0  0  0  0  0
   18.4759   17.0921   20.5404 H   0  0  0  0  0  0  0  0  0  0  0  0
  1  2  1  0  0  0  0
  1  3  1  0  0  0  0
  1  4  1  0  0  0  0
  1  5  1  0  0  0  0
  5  6  1  0  0  0  0
  5  7  1  0  0  0  0
  5  8  1  0  0  0  0
  8  9  1  0  0  0  0
  8 10  1  0  0  0  0
  8 11  1  0  0  0  0
 11 12  1  0  0  0  0
 11 13  1  0  0  0  0
 11 14  1  0  0  0  0
 14 15  1  0  0  0  0
 14 16  1  0  0  0  0
 14 17  1  0  0  0  0
 17 18  1  0  0  0  0
 17 19  1  0  0  0  0
 17 20  1  0  0  0  0
 20 21  1  0  0  0  0
 20 22  1  0  0  0  0
 20 23  1  0  0  0  0
M  END
> <VM2 Rank>
83

> <Conf_Id>
759

> <Probability>
0.00

> <Sum Probability>
100.00

> <Delta G>
5.873

> <G>
43.789

> <E>
15.397

> <-TS>
28.393

> <U+W>
-3.383

> <U>
52.784

> <W>
-56.167

> <W(PB)>
-58.215

> <W(SA)>
2.048

> <Valence>
6.630

> <Coulomb>
45.869

> <VdW>
0.285

> <VdW6>
-7.559

> <VdW12>
7.844

> <Bond>
0.231

> <Angle>
1.768

> <Pdih>
4.632

> <Idih>
0.000

> <Tether>
0.000

$$$$
VeraChem MOL file


 23 22  0  0  0  0  0  0  0  0999 V2000     
   20.4657   19.6212   25.1046 N   0  3  0  0  0  0  0  0  0  0  0  0
   20.0805   20.4956   24.7357 H   0  0  0  0  0  0  0  0  0  0  0  0
   21.4107   19.8290   25.4446 H   0  0  0  0  0  0  0  0  0  0  0  0
   19.9041   19.3646   25.9228 H   0  0  0  0  0  0  0  0  0  0  0  0
   20.4722   18.5227   24.0594 C   0  0  0  0  0  0  0  0  0  0  0  0
   20.9280   17.6390   24.5143 H   0  0  0  0  0  0  0  0  0  0  0  0
   21.1108   18.8459   23.2352 H   0  0  0  0  0  0  0  0  0  0  0  0
   19.0684   18.1560   23.5336 C   0  0  0  0  0  0  0  0  0  0  0  0
   19.1336   17.2599   22.9029 H   0  0  0  0  0  0  0  0  0  0  0  0
   18.4466   17.8722   24.3931 H   0  0  0  0  0  0  0  0  0  0  0  0
   18.3575   19.2926   22.7526 C   0  0  0  0  0  0  0  0  0  0  0  0
   18.5251   20.2603   23.2427 H   0  0  0  0  0  0  0  0  0  0  0  0
   17.2749   19.1171   22.8199 H   0  0  0  0  0  0  0  0  0  0  0  0
   18.7130   19.3963   21.2447 C   0  0  0  0  0  0  0  0  0  0  0  0
   18.4272   18.4702   20.7271 H   0  0  0  0  0  0  0  0  0  0  0  0
   18.0755   20.1800   20.8124 H   0  0  0  0  0  0  0  0  0  0  0  0
   20.1869   19.7530   20.9261 C   0  0  0  0  0  0  0  0  0  0  0  0
   20.6303   20.3284   21.7499 H   0  0  0  0  0  0  0  0  0  0  0  0
   20.2052   20.4212   20.0536 H   0  0  0  0  0  0  0  0  0  0  0  0
   21.0524   18.5152   20.5929 C   0  0  0  0  0  0  0  0  0  0  0  0
   20.6820   18.0132   19.6896 H   0  0  0  0  0  0  0  0  0  0  0  0
   21.0529   17.7804   21.4054 H   0  0  0  0  0  0  0  0  0  0  0  0
   22.0928   18.8110   20.4060 H   0  0  0  0  0  0  0  0  0  0  0  0
  1  2  1  0  0  0  0
  1  3  1  0  0  0  0
  1  4  1  0  0  0  0
  1  5  1  0  0  0  0
  5  6  1  0  0  0  0
  5  7  1  0  0  0  0
  5  8  1  0  0  0  0
  8  9  1  0  0  0  0
  8 10  1  0  0  0  0
  8 11  1  0  0  0  0
 11 12  1  0  0  0  0
 11 13  1  0  0  0  0
 11 14  1  0  0  0  0
 14 15  1  0  0  0  0
 14 16  1  0  0  0  0
 14 17  1  0  0  0  0
 17 18  1  0  0  0  0
 17 19  1  0  0  0  0
 17 20  1  0  0  0  0
 20 21  1  0  0  0  0
 20 22  1  0  0  0  0
 20 23  1  0  0  0  0
M  END
> <VM2 Rank>
84

> <Conf_Id>
893

> <Probability>
0.00

> <Sum Probability>
100.00

> <Delta G>
6.252

> <G>
44.169

> <E>
15.698

> <-TS>
28.471

> <U+W>
-3.081

> <U>
53.200

> <W>
-56.281

> <W(PB)>
-58.315

> <W(SA)>
2.034

> <Valence>
6.810

> <Coulomb>
46.000

> <VdW>
0.390

> <VdW6>
-8.050

> <VdW12>
8.441

> <Bond>
0.260

> <Angle>
1.891

> <Pdih>
4.659

> <Idih>
0.000

> <Tether>
0.000

$$$$
VeraChem MOL file


 23 22  0  0  0  0  0  0  0  0999 V2000     
   20.6910   18.5199   24.9676 N   0  3  0  0  0  0  0  0  0  0  0  0
   20.9965   18.4775   25.9458 H   0  0  0  0  0  0  0  0  0  0  0  0
   21.2348   19.2603   24.5140 H   0  0  0  0  0  0  0  0  0  0  0  0
   20.9580   17.6318   24.5313 H   0  0  0  0  0  0  0  0  0  0  0  0
   19.2022   18.7768   24.8546 C   0  0  0  0  0  0  0  0  0  0  0  0
   18.9839   19.7166   25.3689 H   0  0  0  0  0  0  0  0  0  0  0  0
   18.6884   17.9728   25.3886 H   0  0  0  0  0  0  0  0  0  0  0  0
   18.6695   18.8467   23.4077 C   0  0  0  0  0  0  0  0  0  0  0  0
   18.8594   17.8965   22.8946 H   0  0  0  0  0  0  0  0  0  0  0  0
   17.5775   18.9467   23.4649 H   0  0  0  0  0  0  0  0  0  0  0  0
   19.2271   20.0449   22.5934 C   0  0  0  0  0  0  0  0  0  0  0  0
   19.3713   20.8972   23.2719 H   0  0  0  0  0  0  0  0  0  0  0  0
   18.4691   20.3764   21.8705 H   0  0  0  0  0  0  0  0  0  0  0  0
   20.5536   19.7582   21.8378 C   0  0  0  0  0  0  0  0  0  0  0  0
   21.1549   20.6779   21.8384 H   0  0  0  0  0  0  0  0  0  0  0  0
   21.1540   19.0080   22.3657 H   0  0  0  0  0  0  0  0  0  0  0  0
   20.3649   19.3229   20.3622 C   0  0  0  0  0  0  0  0  0  0  0  0
   21.3551   19.2297   19.8948 H   0  0  0  0  0  0  0  0  0  0  0  0
   19.8406   20.1141   19.8082 H   0  0  0  0  0  0  0  0  0  0  0  0
   19.6078   17.9875   20.1907 C   0  0  0  0  0  0  0  0  0  0  0  0
   18.5670   18.0721   20.5273 H   0  0  0  0  0  0  0  0  0  0  0  0
   20.0930   17.1821   20.7569 H   0  0  0  0  0  0  0  0  0  0  0  0
   19.5887   17.6902   19.1342 H   0  0  0  0  0  0  0  0  0  0  0  0
  1  2  1  0  0  0  0
  1  3  1  0  0  0  0
  1  4  1  0  0  0  0
  1  5  1  0  0  0  0
  5  6  1  0  0  0  0
  5  7  1  0  0  0  0
  5  8  1  0  0  0  0
  8  9  1  0  0  0  0
  8 10  1  0  0  0  0
  8 11  1  0  0  0  0
 11 12  1  0  0  0  0
 11 13  1  0  0  0  0
 11 14  1  0  0  0  0
 14 15  1  0  0  0  0
 14 16  1  0  0  0  0
 14 17  1  0  0  0  0
 17 18  1  0  0  0  0
 17 19  1  0  0  0  0
 17 20  1  0  0  0  0
 20 21  1  0  0  0  0
 20 22  1  0  0  0  0
 20 23  1  0  0  0  0
M  END
> <VM2 Rank>
85

> <Conf_Id>
176

> <Probability>
0.00

> <Sum Probability>
100.00

> <Delta G>
6.276

> <G>
44.193

> <E>
16.073

> <-TS>
28.120

> <U+W>
-2.706

> <U>
53.344

> <W>
-56.050

> <W(PB)>
-58.095

> <W(SA)>
2.045

> <Valence>
6.531

> <Coulomb>
46.150

> <VdW>
0.663

> <VdW6>
-7.490

> <VdW12>
8.153

> <Bond>
0.263

> <Angle>
1.394

> <Pdih>
4.874

> <Idih>
0.000

> <Tether>
0.000

$$$$
VeraChem MOL file


 23 22  0  0  0  0  0  0  0  0999 V2000     
   18.6559   18.8678   25.0223 N   0  3  0  0  0  0  0  0  0  0  0  0
   19.1683   19.0581   25.8893 H   0  0  0  0  0  0  0  0  0  0  0  0
   17.8192   18.3341   25.2810 H   0  0  0  0  0  0  0  0  0  0  0  0
   18.3355   19.7692   24.6563 H   0  0  0  0  0  0  0  0  0  0  0  0
   19.5104   18.1224   24.0156 C   0  0  0  0  0  0  0  0  0  0  0  0
   18.8972   17.9246   23.1344 H   0  0  0  0  0  0  0  0  0  0  0  0
   19.7812   17.1617   24.4619 H   0  0  0  0  0  0  0  0  0  0  0  0
   20.7958   18.8750   23.6123 C   0  0  0  0  0  0  0  0  0  0  0  0
   21.3666   19.0876   24.5261 H   0  0  0  0  0  0  0  0  0  0  0  0
   21.4337   18.2173   23.0076 H   0  0  0  0  0  0  0  0  0  0  0  0
   20.5502   20.2053   22.8525 C   0  0  0  0  0  0  0  0  0  0  0  0
   21.4288   20.8462   23.0093 H   0  0  0  0  0  0  0  0  0  0  0  0
   19.7091   20.7531   23.2966 H   0  0  0  0  0  0  0  0  0  0  0  0
   20.3442   20.0753   21.3190 C   0  0  0  0  0  0  0  0  0  0  0  0
   20.2699   21.0934   20.9124 H   0  0  0  0  0  0  0  0  0  0  0  0
   21.2408   19.6414   20.8553 H   0  0  0  0  0  0  0  0  0  0  0  0
   19.0821   19.2931   20.8757 C   0  0  0  0  0  0  0  0  0  0  0  0
   18.6637   19.7795   19.9833 H   0  0  0  0  0  0  0  0  0  0  0  0
   18.2996   19.3583   21.6436 H   0  0  0  0  0  0  0  0  0  0  0  0
   19.3775   17.8180   20.5166 C   0  0  0  0  0  0  0  0  0  0  0  0
   20.0631   17.7555   19.6615 H   0  0  0  0  0  0  0  0  0  0  0  0
   18.4525   17.2958   20.2400 H   0  0  0  0  0  0  0  0  0  0  0  0
   19.8345   17.2732   21.3499 H   0  0  0  0  0  0  0  0  0  0  0  0
  1  2  1  0  0  0  0
  1  3  1  0  0  0  0
  1  4  1  0  0  0  0
  1  5  1  0  0  0  0
  5  6  1  0  0  0  0
  5  7  1  0  0  0  0
  5  8  1  0  0  0  0
  8  9  1  0  0  0  0
  8 10  1  0  0  0  0
  8 11  1  0  0  0  0
 11 12  1  0  0  0  0
 11 13  1  0  0  0  0
 11 14  1  0  0  0  0
 14 15  1  0  0  0  0
 14 16  1  0  0  0  0
 14 17  1  0  0  0  0
 17 18  1  0  0  0  0
 17 19  1  0  0  0  0
 17 20  1  0  0  0  0
 20 21  1  0  0  0  0
 20 22  1  0  0  0  0
 20 23  1  0  0  0  0
M  END
> <VM2 Rank>
86

> <Conf_Id>
748

> <Probability>
0.00

> <Sum Probability>
100.00

> <Delta G>
6.344

> <G>
44.261

> <E>
15.790

> <-TS>
28.471

> <U+W>
-2.989

> <U>
53.200

> <W>
-56.189

> <W(PB)>
-58.232

> <W(SA)>
2.042

> <Valence>
6.810

> <Coulomb>
46.000

> <VdW>
0.391

> <VdW6>
-8.050

> <VdW12>
8.441

> <Bond>
0.260

> <Angle>
1.891

> <Pdih>
4.659

> <Idih>
0.000

> <Tether>
0.000

$$$$
VeraChem MOL file


 23 22  0  0  0  0  0  0  0  0999 V2000     
   19.2698   17.5934   24.0685 N   0  3  0  0  0  0  0  0  0  0  0  0
   20.0529   17.1450   24.5551 H   0  0  0  0  0  0  0  0  0  0  0  0
   19.4556   17.5258   23.0627 H   0  0  0  0  0  0  0  0  0  0  0  0
   18.4345   17.0315   24.2654 H   0  0  0  0  0  0  0  0  0  0  0  0
   19.0928   19.0360   24.5013 C   0  0  0  0  0  0  0  0  0  0  0  0
   18.9014   19.0252   25.5777 H   0  0  0  0  0  0  0  0  0  0  0  0
   18.2094   19.4451   24.0039 H   0  0  0  0  0  0  0  0  0  0  0  0
   20.3162   19.9309   24.2166 C   0  0  0  0  0  0  0  0  0  0  0  0
   20.2622   20.7948   24.8924 H   0  0  0  0  0  0  0  0  0  0  0  0
   21.2371   19.3976   24.4873 H   0  0  0  0  0  0  0  0  0  0  0  0
   20.4183   20.4710   22.7647 C   0  0  0  0  0  0  0  0  0  0  0  0
   21.2958   21.1310   22.7209 H   0  0  0  0  0  0  0  0  0  0  0  0
   19.5559   21.1146   22.5425 H   0  0  0  0  0  0  0  0  0  0  0  0
   20.5756   19.3901   21.6646 C   0  0  0  0  0  0  0  0  0  0  0  0
   21.2435   19.7810   20.8844 H   0  0  0  0  0  0  0  0  0  0  0  0
   21.0834   18.5057   22.0718 H   0  0  0  0  0  0  0  0  0  0  0  0
   19.2351   19.0046   20.9927 C   0  0  0  0  0  0  0  0  0  0  0  0
   18.8376   19.8752   20.4522 H   0  0  0  0  0  0  0  0  0  0  0  0
   18.4781   18.7432   21.7417 H   0  0  0  0  0  0  0  0  0  0  0  0
   19.4082   17.8310   20.0056 C   0  0  0  0  0  0  0  0  0  0  0  0
   20.1228   18.0862   19.2121 H   0  0  0  0  0  0  0  0  0  0  0  0
   18.4515   17.5819   19.5282 H   0  0  0  0  0  0  0  0  0  0  0  0
   19.7737   16.9310   20.5166 H   0  0  0  0  0  0  0  0  0  0  0  0
  1  2  1  0  0  0  0
  1  3  1  0  0  0  0
  1  4  1  0  0  0  0
  1  5  1  0  0  0  0
  5  6  1  0  0  0  0
  5  7  1  0  0  0  0
  5  8  1  0  0  0  0
  8  9  1  0  0  0  0
  8 10  1  0  0  0  0
  8 11  1  0  0  0  0
 11 12  1  0  0  0  0
 11 13  1  0  0  0  0
 11 14  1  0  0  0  0
 14 15  1  0  0  0  0
 14 16  1  0  0  0  0
 14 17  1  0  0  0  0
 17 18  1  0  0  0  0
 17 19  1  0  0  0  0
 17 20  1  0  0  0  0
 20 21  1  0  0  0  0
 20 22  1  0  0  0  0
 20 23  1  0  0  0  0
M  END
> <VM2 Rank>
87

> <Conf_Id>
358

> <Probability>
0.00

> <Sum Probability>
100.00

> <Delta G>
6.772

> <G>
44.689

> <E>
16.391

> <-TS>
28.298

> <U+W>
-2.388

> <U>
52.836

> <W>
-55.224

> <W(PB)>
-57.261

> <W(SA)>
2.037

> <Valence>
5.785

> <Coulomb>
46.744

> <VdW>
0.307

> <VdW6>
-7.672

> <VdW12>
7.979

> <Bond>
0.217

> <Angle>
1.470

> <Pdih>
4.098

> <Idih>
0.000

> <Tether>
0.000

$$$$
VeraChem MOL file


 23 22  0  0  0  0  0  0  0  0999 V2000     
   21.0112   18.3178   24.1480 N   0  3  0  0  0  0  0  0  0  0  0  0
   21.0068   18.1711   23.1335 H   0  0  0  0  0  0  0  0  0  0  0  0
   20.7412   17.4314   24.5866 H   0  0  0  0  0  0  0  0  0  0  0  0
   21.9801   18.5064   24.4272 H   0  0  0  0  0  0  0  0  0  0  0  0
   20.0806   19.4469   24.5463 C   0  0  0  0  0  0  0  0  0  0  0  0
   20.4496   20.3770   24.1060 H   0  0  0  0  0  0  0  0  0  0  0  0
   20.1390   19.5401   25.6342 H   0  0  0  0  0  0  0  0  0  0  0  0
   18.6103   19.2213   24.1388 C   0  0  0  0  0  0  0  0  0  0  0  0
   18.3205   18.1842   24.3544 H   0  0  0  0  0  0  0  0  0  0  0  0
   17.9841   19.8471   24.7885 H   0  0  0  0  0  0  0  0  0  0  0  0
   18.2689   19.5768   22.6667 C   0  0  0  0  0  0  0  0  0  0  0  0
   18.4359   20.6487   22.4914 H   0  0  0  0  0  0  0  0  0  0  0  0
   17.1891   19.4227   22.5337 H   0  0  0  0  0  0  0  0  0  0  0  0
   19.0091   18.7384   21.5932 C   0  0  0  0  0  0  0  0  0  0  0  0
   19.2472   17.7419   21.9881 H   0  0  0  0  0  0  0  0  0  0  0  0
   18.3239   18.5665   20.7513 H   0  0  0  0  0  0  0  0  0  0  0  0
   20.2751   19.4372   21.0401 C   0  0  0  0  0  0  0  0  0  0  0  0
   20.9334   19.7644   21.8536 H   0  0  0  0  0  0  0  0  0  0  0  0
   19.9797   20.3503   20.5043 H   0  0  0  0  0  0  0  0  0  0  0  0
   21.0610   18.5186   20.0808 C   0  0  0  0  0  0  0  0  0  0  0  0
   21.9459   19.0355   19.6874 H   0  0  0  0  0  0  0  0  0  0  0  0
   20.4402   18.2183   19.2265 H   0  0  0  0  0  0  0  0  0  0  0  0
   21.4019   17.6083   20.5906 H   0  0  0  0  0  0  0  0  0  0  0  0
  1  2  1  0  0  0  0
  1  3  1  0  0  0  0
  1  4  1  0  0  0  0
  1  5  1  0  0  0  0
  5  6  1  0  0  0  0
  5  7  1  0  0  0  0
  5  8  1  0  0  0  0
  8  9  1  0  0  0  0
  8 10  1  0  0  0  0
  8 11  1  0  0  0  0
 11 12  1  0  0  0  0
 11 13  1  0  0  0  0
 11 14  1  0  0  0  0
 14 15  1  0  0  0  0
 14 16  1  0  0  0  0
 14 17  1  0  0  0  0
 17 18  1  0  0  0  0
 17 19  1  0  0  0  0
 17 20  1  0  0  0  0
 20 21  1  0  0  0  0
 20 22  1  0  0  0  0
 20 23  1  0  0  0  0
M  END
> <VM2 Rank>
88

> <Conf_Id>
649

> <Probability>
0.00

> <Sum Probability>
100.00

> <Delta G>
6.865

> <G>
44.781

> <E>
16.484

> <-TS>
28.298

> <U+W>
-2.295

> <U>
52.836

> <W>
-55.131

> <W(PB)>
-57.202

> <W(SA)>
2.071

> <Valence>
5.785

> <Coulomb>
46.744

> <VdW>
0.307

> <VdW6>
-7.671

> <VdW12>
7.978

> <Bond>
0.217

> <Angle>
1.470

> <Pdih>
4.098

> <Idih>
0.000

> <Tether>
0.000

$$$$
VeraChem MOL file


 23 22  0  0  0  0  0  0  0  0999 V2000     
   19.0228   17.8558   24.4794 N   0  3  0  0  0  0  0  0  0  0  0  0
   18.0962   17.5030   24.7425 H   0  0  0  0  0  0  0  0  0  0  0  0
   19.6906   17.4741   25.1572 H   0  0  0  0  0  0  0  0  0  0  0  0
   19.2548   17.4562   23.5652 H   0  0  0  0  0  0  0  0  0  0  0  0
   19.0602   19.3713   24.4481 C   0  0  0  0  0  0  0  0  0  0  0  0
   18.8093   19.7175   25.4544 H   0  0  0  0  0  0  0  0  0  0  0  0
   18.2855   19.7273   23.7637 H   0  0  0  0  0  0  0  0  0  0  0  0
   20.4279   19.9558   24.0410 C   0  0  0  0  0  0  0  0  0  0  0  0
   20.4886   20.9749   24.4456 H   0  0  0  0  0  0  0  0  0  0  0  0
   21.2344   19.3925   24.5291 H   0  0  0  0  0  0  0  0  0  0  0  0
   20.6800   20.0384   22.5118 C   0  0  0  0  0  0  0  0  0  0  0  0
   21.6530   20.5274   22.3660 H   0  0  0  0  0  0  0  0  0  0  0  0
   19.9442   20.7111   22.0531 H   0  0  0  0  0  0  0  0  0  0  0  0
   20.7144   18.6753   21.7698 C   0  0  0  0  0  0  0  0  0  0  0  0
   21.4793   18.7209   20.9822 H   0  0  0  0  0  0  0  0  0  0  0  0
   21.0564   17.8890   22.4558 H   0  0  0  0  0  0  0  0  0  0  0  0
   19.3698   18.2665   21.1138 C   0  0  0  0  0  0  0  0  0  0  0  0
   18.5421   18.3571   21.8276 H   0  0  0  0  0  0  0  0  0  0  0  0
   19.4221   17.2058   20.8309 H   0  0  0  0  0  0  0  0  0  0  0  0
   19.0411   19.0940   19.8500 C   0  0  0  0  0  0  0  0  0  0  0  0
   18.9054   20.1569   20.0840 H   0  0  0  0  0  0  0  0  0  0  0  0
   18.1123   18.7359   19.3872 H   0  0  0  0  0  0  0  0  0  0  0  0
   19.8409   19.0083   19.1030 H   0  0  0  0  0  0  0  0  0  0  0  0
  1  2  1  0  0  0  0
  1  3  1  0  0  0  0
  1  4  1  0  0  0  0
  1  5  1  0  0  0  0
  5  6  1  0  0  0  0
  5  7  1  0  0  0  0
  5  8  1  0  0  0  0
  8  9  1  0  0  0  0
  8 10  1  0  0  0  0
  8 11  1  0  0  0  0
 11 12  1  0  0  0  0
 11 13  1  0  0  0  0
 11 14  1  0  0  0  0
 14 15  1  0  0  0  0
 14 16  1  0  0  0  0
 14 17  1  0  0  0  0
 17 18  1  0  0  0  0
 17 19  1  0  0  0  0
 17 20  1  0  0  0  0
 20 21  1  0  0  0  0
 20 22  1  0  0  0  0
 20 23  1  0  0  0  0
M  END
> <VM2 Rank>
89

> <Conf_Id>
160

> <Probability>
0.00

> <Sum Probability>
100.00

> <Delta G>
6.934

> <G>
44.850

> <E>
16.564

> <-TS>
28.287

> <U+W>
-2.215

> <U>
53.835

> <W>
-56.051

> <W(PB)>
-58.080

> <W(SA)>
2.029

> <Valence>
6.519

> <Coulomb>
46.847

> <VdW>
0.469

> <VdW6>
-7.907

> <VdW12>
8.376

> <Bond>
0.262

> <Angle>
1.644

> <Pdih>
4.614

> <Idih>
0.000

> <Tether>
0.000

$$$$
VeraChem MOL file


 23 22  0  0  0  0  0  0  0  0999 V2000     
   20.9668   18.6640   24.5680 N   0  3  0  0  0  0  0  0  0  0  0  0
   20.7153   17.9002   25.2039 H   0  0  0  0  0  0  0  0  0  0  0  0
   21.8468   19.0622   24.9134 H   0  0  0  0  0  0  0  0  0  0  0  0
   21.1576   18.2472   23.6520 H   0  0  0  0  0  0  0  0  0  0  0  0
   19.8705   19.7082   24.4850 C   0  0  0  0  0  0  0  0  0  0  0  0
   20.2158   20.5297   23.8516 H   0  0  0  0  0  0  0  0  0  0  0  0
   19.7237   20.0976   25.4960 H   0  0  0  0  0  0  0  0  0  0  0  0
   18.5280   19.1660   23.9544 C   0  0  0  0  0  0  0  0  0  0  0  0
   18.3224   18.1819   24.3964 H   0  0  0  0  0  0  0  0  0  0  0  0
   17.7328   19.8292   24.3200 H   0  0  0  0  0  0  0  0  0  0  0  0
   18.4111   19.0952   22.4084 C   0  0  0  0  0  0  0  0  0  0  0  0
   18.4873   20.1054   21.9867 H   0  0  0  0  0  0  0  0  0  0  0  0
   17.3930   18.7564   22.1718 H   0  0  0  0  0  0  0  0  0  0  0  0
   19.4092   18.1326   21.7104 C   0  0  0  0  0  0  0  0  0  0  0  0
   19.6722   17.3136   22.3927 H   0  0  0  0  0  0  0  0  0  0  0  0
   18.9007   17.6489   20.8647 H   0  0  0  0  0  0  0  0  0  0  0  0
   20.6936   18.8168   21.1741 C   0  0  0  0  0  0  0  0  0  0  0  0
   21.4294   18.0402   20.9224 H   0  0  0  0  0  0  0  0  0  0  0  0
   21.1554   19.4435   21.9467 H   0  0  0  0  0  0  0  0  0  0  0  0
   20.4369   19.6743   19.9136 C   0  0  0  0  0  0  0  0  0  0  0  0
   19.9937   19.0719   19.1100 H   0  0  0  0  0  0  0  0  0  0  0  0
   21.3784   20.0937   19.5360 H   0  0  0  0  0  0  0  0  0  0  0  0
   19.7618   20.5129   20.1230 H   0  0  0  0  0  0  0  0  0  0  0  0
  1  2  1  0  0  0  0
  1  3  1  0  0  0  0
  1  4  1  0  0  0  0
  1  5  1  0  0  0  0
  5  6  1  0  0  0  0
  5  7  1  0  0  0  0
  5  8  1  0  0  0  0
  8  9  1  0  0  0  0
  8 10  1  0  0  0  0
  8 11  1  0  0  0  0
 11 12  1  0  0  0  0
 11 13  1  0  0  0  0
 11 14  1  0  0  0  0
 14 15  1  0  0  0  0
 14 16  1  0  0  0  0
 14 17  1  0  0  0  0
 17 18  1  0  0  0  0
 17 19  1  0  0  0  0
 17 20  1  0  0  0  0
 20 21  1  0  0  0  0
 20 22  1  0  0  0  0
 20 23  1  0  0  0  0
M  END
> <VM2 Rank>
90

> <Conf_Id>
701

> <Probability>
0.00

> <Sum Probability>
100.00

> <Delta G>
7.088

> <G>
45.005

> <E>
16.718

> <-TS>
28.287

> <U+W>
-2.061

> <U>
53.835

> <W>
-55.896

> <W(PB)>
-57.909

> <W(SA)>
2.013

> <Valence>
6.519

> <Coulomb>
46.847

> <VdW>
0.469

> <VdW6>
-7.907

> <VdW12>
8.376

> <Bond>
0.262

> <Angle>
1.644

> <Pdih>
4.614

> <Idih>
0.000

> <Tether>
0.000

$$$$
