@<TRIPOS>MOLECULE
guest-2_vm2.mol2 : vm2 ligand conformer 1
          23          22           1
SMALL
USER_CHARGES
 
@<TRIPOS>ATOM
       1    N1      19.741361   18.660967   26.427813 N.4        1 MOL1        -0.5940
       2    H1      19.480251   19.197219   27.262289 H          1 MOL1         0.3649
       3    H2      20.732019   18.417340   26.528441 H          1 MOL1         0.3649
       4    H3      19.210583   17.784506   26.459053 H          1 MOL1         0.3649
       5    C1      19.476406   19.437621   25.154037 C.3        1 MOL1         0.0207
       6    H4      20.047873   20.368580   25.201345 H          1 MOL1         0.0950
       7    H5      18.412521   19.688427   25.126805 H          1 MOL1         0.0950
       8    C2      19.857952   18.659632   23.882136 C.3        1 MOL1        -0.1415
       9    H6      20.923299   18.395835   23.921446 H          1 MOL1         0.0976
      10    H7      19.293788   17.718038   23.847210 H          1 MOL1         0.0976
      11    C3      19.572832   19.484669   22.607694 C.3        1 MOL1        -0.1375
      12    H8      20.134925   20.428149   22.648923 H          1 MOL1         0.0976
      13    H9      18.507122   19.751090   22.574782 H          1 MOL1         0.0976
      14    C4      19.952483   18.712497   21.323708 C.3        1 MOL1        -0.1375
      15    H10     21.018061   18.446072   21.356452 H          1 MOL1         0.0976
      16    H11     19.390446   17.769146   21.282284 H          1 MOL1         0.0976
      17    C5      19.667267   19.537909   20.049304 C.3        1 MOL1        -0.1350
      18    H12     20.229227   20.481787   20.084874 H          1 MOL1         0.0976
      19    H13     18.601795   19.804830   20.010643 H          1 MOL1         0.0976
      20    C6      20.047699   18.763706   18.769306 C.3        1 MOL1        -0.2365
      21    H14     19.476148   17.829911   18.688147 H          1 MOL1         0.0987
      22    H15     21.116294   18.512124   18.762983 H          1 MOL1         0.0987
      23    H16     19.838135   19.365579   17.875506 H          1 MOL1         0.0987
@<TRIPOS>BOND
    1     1     2    1
    2     1     3    1
    3     1     4    1
    4     1     5    1
    5     5     6    1
    6     5     7    1
    7     5     8    1
    8     8     9    1
    9     8    10    1
   10     8    11    1
   11    11    12    1
   12    11    13    1
   13    11    14    1
   14    14    15    1
   15    14    16    1
   16    14    17    1
   17    17    18    1
   18    17    19    1
   19    17    20    1
   20    20    21    1
   21    20    22    1
   22    20    23    1
@<TRIPOS>SUBSTRUCTURE
       1 MOL1            1 RESIDUE      1      MOL     
@<SCITEGIC>MOL_PROPERTY
VM2 Rank
SciTegic.value.IntegerValue
1

@<SCITEGIC>MOL_PROPERTY
Conf_Id
SciTegic.value.IntegerValue
625

@<SCITEGIC>MOL_PROPERTY
Probability
SciTegic.value.DoubleValue
11.98

@<SCITEGIC>MOL_PROPERTY
Sum Probability
SciTegic.value.DoubleValue
11.98

@<SCITEGIC>MOL_PROPERTY
Delta G
SciTegic.value.DoubleValue
0.000

@<SCITEGIC>MOL_PROPERTY
G
SciTegic.value.DoubleValue
37.917

@<SCITEGIC>MOL_PROPERTY
E
SciTegic.value.DoubleValue
10.396

@<SCITEGIC>MOL_PROPERTY
-TS
SciTegic.value.DoubleValue
27.520

@<SCITEGIC>MOL_PROPERTY
U+W
SciTegic.value.DoubleValue
-8.383

@<SCITEGIC>MOL_PROPERTY
U
SciTegic.value.DoubleValue
46.604

@<SCITEGIC>MOL_PROPERTY
W
SciTegic.value.DoubleValue
-54.987

@<SCITEGIC>MOL_PROPERTY
W(PB)
SciTegic.value.DoubleValue
-57.163

@<SCITEGIC>MOL_PROPERTY
W(SA)
SciTegic.value.DoubleValue
2.176

@<SCITEGIC>MOL_PROPERTY
Valence
SciTegic.value.DoubleValue
1.727

@<SCITEGIC>MOL_PROPERTY
Coulomb
SciTegic.value.DoubleValue
44.434

@<SCITEGIC>MOL_PROPERTY
VdW
SciTegic.value.DoubleValue
0.443

@<SCITEGIC>MOL_PROPERTY
VdW6
SciTegic.value.DoubleValue
-4.623

@<SCITEGIC>MOL_PROPERTY
VdW12
SciTegic.value.DoubleValue
5.066

@<SCITEGIC>MOL_PROPERTY
Bond
SciTegic.value.DoubleValue
0.112

@<SCITEGIC>MOL_PROPERTY
Angle
SciTegic.value.DoubleValue
0.386

@<SCITEGIC>MOL_PROPERTY
Pdih
SciTegic.value.DoubleValue
1.228

@<SCITEGIC>MOL_PROPERTY
Idih
SciTegic.value.DoubleValue
0.000

@<SCITEGIC>MOL_PROPERTY
Tether
SciTegic.value.DoubleValue
0.000

@<TRIPOS>MOLECULE
guest-2_vm2.mol2 : vm2 ligand conformer 2
          23          22           1
SMALL
USER_CHARGES
 
@<TRIPOS>ATOM
       1    N1      20.449146   19.457309   25.793923 N.4        1 MOL1        -0.5940
       2    H1      20.353444   19.873274   26.726556 H          1 MOL1         0.3649
       3    H2      20.855770   20.175142   25.186543 H          1 MOL1         0.3649
       4    H3      21.137292   18.701758   25.873167 H          1 MOL1         0.3649
       5    C1      19.120367   18.956364   25.262291 C.3        1 MOL1         0.0207
       6    H4      18.428709   19.802352   25.225615 H          1 MOL1         0.0950
       7    H5      18.730065   18.228330   25.978685 H          1 MOL1         0.0950
       8    C2      19.214627   18.302631   23.869952 C.3        1 MOL1        -0.1415
       9    H6      19.914265   17.457057   23.908634 H          1 MOL1         0.0976
      10    H7      18.231631   17.884267   23.615641 H          1 MOL1         0.0976
      11    C3      19.647495   19.299658   22.768906 C.3        1 MOL1        -0.1375
      12    H8      20.646391   19.695771   22.995489 H          1 MOL1         0.0976
      13    H9      18.959114   20.156245   22.759936 H          1 MOL1         0.0976
      14    C4      19.667124   18.639105   21.371695 C.3        1 MOL1        -0.1375
      15    H10     20.353257   17.780822   21.380693 H          1 MOL1         0.0976
      16    H11     18.668604   18.244933   21.137028 H          1 MOL1         0.0976
      17    C5      20.099747   19.632557   20.270463 C.3        1 MOL1        -0.1350
      18    H12     21.099636   20.027605   20.498734 H          1 MOL1         0.0976
      19    H13     19.415076   20.492204   20.256285 H          1 MOL1         0.0976
      20    C6      20.117493   18.969376   18.876771 C.3        1 MOL1        -0.2365
      21    H14     19.122088   18.594217   18.605380 H          1 MOL1         0.0987
      22    H15     20.819755   18.125974   18.849812 H          1 MOL1         0.0987
      23    H16     20.426824   19.689881   18.108508 H          1 MOL1         0.0987
@<TRIPOS>BOND
    1     1     2    1
    2     1     3    1
    3     1     4    1
    4     1     5    1
    5     5     6    1
    6     5     7    1
    7     5     8    1
    8     8     9    1
    9     8    10    1
   10     8    11    1
   11    11    12    1
   12    11    13    1
   13    11    14    1
   14    14    15    1
   15    14    16    1
   16    14    17    1
   17    17    18    1
   18    17    19    1
   19    17    20    1
   20    20    21    1
   21    20    22    1
   22    20    23    1
@<TRIPOS>SUBSTRUCTURE
       1 MOL1            1 RESIDUE      1      MOL     
@<SCITEGIC>MOL_PROPERTY
VM2 Rank
SciTegic.value.IntegerValue
2

@<SCITEGIC>MOL_PROPERTY
Conf_Id
SciTegic.value.IntegerValue
674

@<SCITEGIC>MOL_PROPERTY
Probability
SciTegic.value.DoubleValue
7.37

@<SCITEGIC>MOL_PROPERTY
Sum Probability
SciTegic.value.DoubleValue
19.34

@<SCITEGIC>MOL_PROPERTY
Delta G
SciTegic.value.DoubleValue
0.290

@<SCITEGIC>MOL_PROPERTY
G
SciTegic.value.DoubleValue
38.206

@<SCITEGIC>MOL_PROPERTY
E
SciTegic.value.DoubleValue
10.584

@<SCITEGIC>MOL_PROPERTY
-TS
SciTegic.value.DoubleValue
27.622

@<SCITEGIC>MOL_PROPERTY
U+W
SciTegic.value.DoubleValue
-8.195

@<SCITEGIC>MOL_PROPERTY
U
SciTegic.value.DoubleValue
47.288

@<SCITEGIC>MOL_PROPERTY
W
SciTegic.value.DoubleValue
-55.483

@<SCITEGIC>MOL_PROPERTY
W(PB)
SciTegic.value.DoubleValue
-57.632

@<SCITEGIC>MOL_PROPERTY
W(SA)
SciTegic.value.DoubleValue
2.149

@<SCITEGIC>MOL_PROPERTY
Valence
SciTegic.value.DoubleValue
1.833

@<SCITEGIC>MOL_PROPERTY
Coulomb
SciTegic.value.DoubleValue
44.908

@<SCITEGIC>MOL_PROPERTY
VdW
SciTegic.value.DoubleValue
0.548

@<SCITEGIC>MOL_PROPERTY
VdW6
SciTegic.value.DoubleValue
-5.142

@<SCITEGIC>MOL_PROPERTY
VdW12
SciTegic.value.DoubleValue
5.689

@<SCITEGIC>MOL_PROPERTY
Bond
SciTegic.value.DoubleValue
0.133

@<SCITEGIC>MOL_PROPERTY
Angle
SciTegic.value.DoubleValue
0.431

@<SCITEGIC>MOL_PROPERTY
Pdih
SciTegic.value.DoubleValue
1.269

@<SCITEGIC>MOL_PROPERTY
Idih
SciTegic.value.DoubleValue
0.000

@<SCITEGIC>MOL_PROPERTY
Tether
SciTegic.value.DoubleValue
0.000

@<TRIPOS>MOLECULE
guest-2_vm2.mol2 : vm2 ligand conformer 3
          23          22           1
SMALL
USER_CHARGES
 
@<TRIPOS>ATOM
       1    N1      18.729846   18.742247   25.715489 N.4        1 MOL1        -0.5940
       2    H1      17.983405   18.980469   25.055478 H          1 MOL1         0.3649
       3    H2      18.430145   19.073435   26.638790 H          1 MOL1         0.3649
       4    H3      18.775427   17.719455   25.765484 H          1 MOL1         0.3649
       5    C1      20.058602   19.346561   25.305064 C.3        1 MOL1         0.0207
       6    H4      20.792373   19.086009   26.072712 H          1 MOL1         0.0950
       7    H5      19.948173   20.434281   25.294920 H          1 MOL1         0.0950
       8    C2      20.563254   18.863553   23.931423 C.3        1 MOL1        -0.1415
       9    H6      21.569218   19.272500   23.767770 H          1 MOL1         0.0976
      10    H7      20.667728   17.770422   23.942962 H          1 MOL1         0.0976
      11    C3      19.638946   19.296073   22.768529 C.3        1 MOL1        -0.1375
      12    H8      19.516394   20.388038   22.785406 H          1 MOL1         0.0976
      13    H9      18.639751   18.860998   22.904018 H          1 MOL1         0.0976
      14    C4      20.201216   18.861321   21.396029 C.3        1 MOL1        -0.1375
      15    H10     21.199359   19.297840   21.252341 H          1 MOL1         0.0976
      16    H11     20.326635   17.769760   21.379446 H          1 MOL1         0.0976
      17    C5      19.279525   19.291370   20.233116 C.3        1 MOL1        -0.1350
      18    H12     19.152586   20.383032   20.244335 H          1 MOL1         0.0976
      19    H13     18.280275   18.854777   20.370352 H          1 MOL1         0.0976
      20    C6      19.844610   18.855874   18.864349 C.3        1 MOL1        -0.2365
      21    H14     20.829952   19.304747   18.683123 H          1 MOL1         0.0987
      22    H15     19.176868   19.169879   18.051599 H          1 MOL1         0.0987
      23    H16     19.950928   17.764545   18.810276 H          1 MOL1         0.0987
@<TRIPOS>BOND
    1     1     2    1
    2     1     3    1
    3     1     4    1
    4     1     5    1
    5     5     6    1
    6     5     7    1
    7     5     8    1
    8     8     9    1
    9     8    10    1
   10     8    11    1
   11    11    12    1
   12    11    13    1
   13    11    14    1
   14    14    15    1
   15    14    16    1
   16    14    17    1
   17    17    18    1
   18    17    19    1
   19    17    20    1
   20    20    21    1
   21    20    22    1
   22    20    23    1
@<TRIPOS>SUBSTRUCTURE
       1 MOL1            1 RESIDUE      1      MOL     
@<SCITEGIC>MOL_PROPERTY
VM2 Rank
SciTegic.value.IntegerValue
3

@<SCITEGIC>MOL_PROPERTY
Conf_Id
SciTegic.value.IntegerValue
691

@<SCITEGIC>MOL_PROPERTY
Probability
SciTegic.value.DoubleValue
7.16

@<SCITEGIC>MOL_PROPERTY
Sum Probability
SciTegic.value.DoubleValue
26.50

@<SCITEGIC>MOL_PROPERTY
Delta G
SciTegic.value.DoubleValue
0.307

@<SCITEGIC>MOL_PROPERTY
G
SciTegic.value.DoubleValue
38.223

@<SCITEGIC>MOL_PROPERTY
E
SciTegic.value.DoubleValue
10.601

@<SCITEGIC>MOL_PROPERTY
-TS
SciTegic.value.DoubleValue
27.623

@<SCITEGIC>MOL_PROPERTY
U+W
SciTegic.value.DoubleValue
-8.178

@<SCITEGIC>MOL_PROPERTY
U
SciTegic.value.DoubleValue
47.288

@<SCITEGIC>MOL_PROPERTY
W
SciTegic.value.DoubleValue
-55.467

@<SCITEGIC>MOL_PROPERTY
W(PB)
SciTegic.value.DoubleValue
-57.600

@<SCITEGIC>MOL_PROPERTY
W(SA)
SciTegic.value.DoubleValue
2.133

@<SCITEGIC>MOL_PROPERTY
Valence
SciTegic.value.DoubleValue
1.833

@<SCITEGIC>MOL_PROPERTY
Coulomb
SciTegic.value.DoubleValue
44.908

@<SCITEGIC>MOL_PROPERTY
VdW
SciTegic.value.DoubleValue
0.548

@<SCITEGIC>MOL_PROPERTY
VdW6
SciTegic.value.DoubleValue
-5.142

@<SCITEGIC>MOL_PROPERTY
VdW12
SciTegic.value.DoubleValue
5.690

@<SCITEGIC>MOL_PROPERTY
Bond
SciTegic.value.DoubleValue
0.133

@<SCITEGIC>MOL_PROPERTY
Angle
SciTegic.value.DoubleValue
0.431

@<SCITEGIC>MOL_PROPERTY
Pdih
SciTegic.value.DoubleValue
1.269

@<SCITEGIC>MOL_PROPERTY
Idih
SciTegic.value.DoubleValue
0.000

@<SCITEGIC>MOL_PROPERTY
Tether
SciTegic.value.DoubleValue
0.000

@<TRIPOS>MOLECULE
guest-2_vm2.mol2 : vm2 ligand conformer 4
          23          22           1
SMALL
USER_CHARGES
 
@<TRIPOS>ATOM
       1    N1      19.509683   18.259853   26.054843 N.4        1 MOL1        -0.5940
       2    H1      20.406723   17.770598   26.137230 H          1 MOL1         0.3649
       3    H2      18.790058   17.626319   26.419271 H          1 MOL1         0.3649
       4    H3      19.546066   19.064857   26.688481 H          1 MOL1         0.3649
       5    C1      19.221976   18.676834   24.626865 C.3        1 MOL1         0.0207
       6    H4      18.243255   19.163834   24.608064 H          1 MOL1         0.0950
       7    H5      19.167468   17.770910   24.017749 H          1 MOL1         0.0950
       8    C2      20.286036   19.629939   24.050472 C.3        1 MOL1        -0.1415
       9    H6      20.362118   20.515029   24.696052 H          1 MOL1         0.0976
      10    H7      21.269206   19.141082   24.070277 H          1 MOL1         0.0976
      11    C3      19.961513   20.086859   22.608617 C.3        1 MOL1        -0.1375
      12    H8      20.707665   20.831712   22.298937 H          1 MOL1         0.0976
      13    H9      18.988907   20.598271   22.596548 H          1 MOL1         0.0976
      14    C4      19.951986   18.922230   21.589298 C.3        1 MOL1        -0.1375
      15    H10     20.914038   18.392703   21.627674 H          1 MOL1         0.0976
      16    H11     19.176375   18.193114   21.859251 H          1 MOL1         0.0976
      17    C5      19.697720   19.421865   20.149686 C.3        1 MOL1        -0.1350
      18    H12     20.473562   20.146593   19.865436 H          1 MOL1         0.0976
      19    H13     18.736561   19.953105   20.105697 H          1 MOL1         0.0976
      20    C6      19.687086   18.259419   19.134219 C.3        1 MOL1        -0.2365
      21    H14     20.648386   17.729212   19.131030 H          1 MOL1         0.0987
      22    H15     19.505623   18.633791   18.118364 H          1 MOL1         0.0987
      23    H16     18.897623   17.534554   19.371999 H          1 MOL1         0.0987
@<TRIPOS>BOND
    1     1     2    1
    2     1     3    1
    3     1     4    1
    4     1     5    1
    5     5     6    1
    6     5     7    1
    7     5     8    1
    8     8     9    1
    9     8    10    1
   10     8    11    1
   11    11    12    1
   12    11    13    1
   13    11    14    1
   14    14    15    1
   15    14    16    1
   16    14    17    1
   17    17    18    1
   18    17    19    1
   19    17    20    1
   20    20    21    1
   21    20    22    1
   22    20    23    1
@<TRIPOS>SUBSTRUCTURE
       1 MOL1            1 RESIDUE      1      MOL     
@<SCITEGIC>MOL_PROPERTY
VM2 Rank
SciTegic.value.IntegerValue
4

@<SCITEGIC>MOL_PROPERTY
Conf_Id
SciTegic.value.IntegerValue
130

@<SCITEGIC>MOL_PROPERTY
Probability
SciTegic.value.DoubleValue
5.51

@<SCITEGIC>MOL_PROPERTY
Sum Probability
SciTegic.value.DoubleValue
32.02

@<SCITEGIC>MOL_PROPERTY
Delta G
SciTegic.value.DoubleValue
0.463

@<SCITEGIC>MOL_PROPERTY
G
SciTegic.value.DoubleValue
38.379

@<SCITEGIC>MOL_PROPERTY
E
SciTegic.value.DoubleValue
10.761

@<SCITEGIC>MOL_PROPERTY
-TS
SciTegic.value.DoubleValue
27.618

@<SCITEGIC>MOL_PROPERTY
U+W
SciTegic.value.DoubleValue
-8.018

@<SCITEGIC>MOL_PROPERTY
U
SciTegic.value.DoubleValue
47.375

@<SCITEGIC>MOL_PROPERTY
W
SciTegic.value.DoubleValue
-55.393

@<SCITEGIC>MOL_PROPERTY
W(PB)
SciTegic.value.DoubleValue
-57.544

@<SCITEGIC>MOL_PROPERTY
W(SA)
SciTegic.value.DoubleValue
2.152

@<SCITEGIC>MOL_PROPERTY
Valence
SciTegic.value.DoubleValue
2.032

@<SCITEGIC>MOL_PROPERTY
Coulomb
SciTegic.value.DoubleValue
44.843

@<SCITEGIC>MOL_PROPERTY
VdW
SciTegic.value.DoubleValue
0.500

@<SCITEGIC>MOL_PROPERTY
VdW6
SciTegic.value.DoubleValue
-5.218

@<SCITEGIC>MOL_PROPERTY
VdW12
SciTegic.value.DoubleValue
5.718

@<SCITEGIC>MOL_PROPERTY
Bond
SciTegic.value.DoubleValue
0.135

@<SCITEGIC>MOL_PROPERTY
Angle
SciTegic.value.DoubleValue
0.514

@<SCITEGIC>MOL_PROPERTY
Pdih
SciTegic.value.DoubleValue
1.383

@<SCITEGIC>MOL_PROPERTY
Idih
SciTegic.value.DoubleValue
0.000

@<SCITEGIC>MOL_PROPERTY
Tether
SciTegic.value.DoubleValue
0.000

@<TRIPOS>MOLECULE
guest-2_vm2.mol2 : vm2 ligand conformer 5
          23          22           1
SMALL
USER_CHARGES
 
@<TRIPOS>ATOM
       1    N1      20.216863   18.554117   26.087139 N.4        1 MOL1        -0.5940
       2    H1      21.142260   18.604872   26.526568 H          1 MOL1         0.3649
       3    H2      19.927131   17.571218   26.115485 H          1 MOL1         0.3649
       4    H3      19.572246   19.075894   26.689692 H          1 MOL1         0.3649
       5    C1      20.234432   19.097998   24.673046 C.3        1 MOL1         0.0207
       6    H4      20.961377   18.517130   24.099600 H          1 MOL1         0.0950
       7    H5      20.578069   20.135115   24.714494 H          1 MOL1         0.0950
       8    C2      18.857469   19.035582   23.985344 C.3        1 MOL1        -0.1415
       9    H6      18.511981   17.993963   23.944546 H          1 MOL1         0.0976
      10    H7      18.127293   19.585229   24.594176 H          1 MOL1         0.0976
      11    C3      18.873609   19.634261   22.559037 C.3        1 MOL1        -0.1375
      12    H8      19.195145   20.684052   22.605981 H          1 MOL1         0.0976
      13    H9      17.846523   19.641435   22.168533 H          1 MOL1         0.0976
      14    C4      19.783945   18.852333   21.581626 C.3        1 MOL1        -0.1375
      15    H10     20.823663   18.878470   21.934277 H          1 MOL1         0.0976
      16    H11     19.480650   17.796370   21.562360 H          1 MOL1         0.0976
      17    C5      19.720242   19.431249   20.150694 C.3        1 MOL1        -0.1350
      18    H12     20.022187   20.487954   20.164223 H          1 MOL1         0.0976
      19    H13     18.684564   19.402364   19.783953 H          1 MOL1         0.0976
      20    C6      20.629438   18.651461   19.177115 C.3        1 MOL1        -0.2365
      21    H14     20.570445   19.076762   18.166827 H          1 MOL1         0.0987
      22    H15     20.330347   17.596896   19.116572 H          1 MOL1         0.0987
      23    H16     21.678380   18.691428   19.498586 H          1 MOL1         0.0987
@<TRIPOS>BOND
    1     1     2    1
    2     1     3    1
    3     1     4    1
    4     1     5    1
    5     5     6    1
    6     5     7    1
    7     5     8    1
    8     8     9    1
    9     8    10    1
   10     8    11    1
   11    11    12    1
   12    11    13    1
   13    11    14    1
   14    14    15    1
   15    14    16    1
   16    14    17    1
   17    17    18    1
   18    17    19    1
   19    17    20    1
   20    20    21    1
   21    20    22    1
   22    20    23    1
@<TRIPOS>SUBSTRUCTURE
       1 MOL1            1 RESIDUE      1      MOL     
@<SCITEGIC>MOL_PROPERTY
VM2 Rank
SciTegic.value.IntegerValue
5

@<SCITEGIC>MOL_PROPERTY
Conf_Id
SciTegic.value.IntegerValue
654

@<SCITEGIC>MOL_PROPERTY
Probability
SciTegic.value.DoubleValue
4.93

@<SCITEGIC>MOL_PROPERTY
Sum Probability
SciTegic.value.DoubleValue
36.94

@<SCITEGIC>MOL_PROPERTY
Delta G
SciTegic.value.DoubleValue
0.530

@<SCITEGIC>MOL_PROPERTY
G
SciTegic.value.DoubleValue
38.446

@<SCITEGIC>MOL_PROPERTY
E
SciTegic.value.DoubleValue
10.828

@<SCITEGIC>MOL_PROPERTY
-TS
SciTegic.value.DoubleValue
27.618

@<SCITEGIC>MOL_PROPERTY
U+W
SciTegic.value.DoubleValue
-7.951

@<SCITEGIC>MOL_PROPERTY
U
SciTegic.value.DoubleValue
47.375

@<SCITEGIC>MOL_PROPERTY
W
SciTegic.value.DoubleValue
-55.326

@<SCITEGIC>MOL_PROPERTY
W(PB)
SciTegic.value.DoubleValue
-57.492

@<SCITEGIC>MOL_PROPERTY
W(SA)
SciTegic.value.DoubleValue
2.166

@<SCITEGIC>MOL_PROPERTY
Valence
SciTegic.value.DoubleValue
2.032

@<SCITEGIC>MOL_PROPERTY
Coulomb
SciTegic.value.DoubleValue
44.843

@<SCITEGIC>MOL_PROPERTY
VdW
SciTegic.value.DoubleValue
0.499

@<SCITEGIC>MOL_PROPERTY
VdW6
SciTegic.value.DoubleValue
-5.218

@<SCITEGIC>MOL_PROPERTY
VdW12
SciTegic.value.DoubleValue
5.718

@<SCITEGIC>MOL_PROPERTY
Bond
SciTegic.value.DoubleValue
0.135

@<SCITEGIC>MOL_PROPERTY
Angle
SciTegic.value.DoubleValue
0.514

@<SCITEGIC>MOL_PROPERTY
Pdih
SciTegic.value.DoubleValue
1.383

@<SCITEGIC>MOL_PROPERTY
Idih
SciTegic.value.DoubleValue
0.000

@<SCITEGIC>MOL_PROPERTY
Tether
SciTegic.value.DoubleValue
0.000

@<TRIPOS>MOLECULE
guest-2_vm2.mol2 : vm2 ligand conformer 6
          23          22           1
SMALL
USER_CHARGES
 
@<TRIPOS>ATOM
       1    N1      19.547382   18.752201   26.321652 N.4        1 MOL1        -0.5940
       2    H1      19.731709   17.745649   26.382861 H          1 MOL1         0.3649
       3    H2      18.841187   18.969542   27.033079 H          1 MOL1         0.3649
       4    H3      20.408409   19.233922   26.599951 H          1 MOL1         0.3649
       5    C1      19.093621   19.160828   24.934926 C.3        1 MOL1         0.0207
       6    H4      18.887662   20.234536   24.949945 H          1 MOL1         0.0950
       7    H5      18.160261   18.634845   24.716583 H          1 MOL1         0.0950
       8    C2      20.132256   18.847860   23.843196 C.3        1 MOL1        -0.1415
       9    H6      21.072815   19.364878   24.075784 H          1 MOL1         0.0976
      10    H7      20.347900   17.771015   23.842311 H          1 MOL1         0.0976
      11    C3      19.632182   19.279012   22.446634 C.3        1 MOL1        -0.1375
      12    H8      19.415901   20.356381   22.451755 H          1 MOL1         0.0976
      13    H9      18.686517   18.764738   22.229878 H          1 MOL1         0.0976
      14    C4      20.669465   18.964519   21.341785 C.3        1 MOL1        -0.1375
      15    H10     21.629803   19.426890   21.608936 H          1 MOL1         0.0976
      16    H11     20.849421   17.881394   21.299481 H          1 MOL1         0.0976
      17    C5      20.252377   19.473891   19.940837 C.3        1 MOL1        -0.1350
      18    H12     21.084506   19.306354   19.242735 H          1 MOL1         0.0976
      19    H13     20.092503   20.560729   19.972796 H          1 MOL1         0.0976
      20    C6      18.988717   18.778690   19.384971 C.3        1 MOL1        -0.2365
      21    H14     18.790377   19.107630   18.356669 H          1 MOL1         0.0987
      22    H15     18.100903   19.016722   19.983758 H          1 MOL1         0.0987
      23    H16     19.112095   17.688011   19.370309 H          1 MOL1         0.0987
@<TRIPOS>BOND
    1     1     2    1
    2     1     3    1
    3     1     4    1
    4     1     5    1
    5     5     6    1
    6     5     7    1
    7     5     8    1
    8     8     9    1
    9     8    10    1
   10     8    11    1
   11    11    12    1
   12    11    13    1
   13    11    14    1
   14    14    15    1
   15    14    16    1
   16    14    17    1
   17    17    18    1
   18    17    19    1
   19    17    20    1
   20    20    21    1
   21    20    22    1
   22    20    23    1
@<TRIPOS>SUBSTRUCTURE
       1 MOL1            1 RESIDUE      1      MOL     
@<SCITEGIC>MOL_PROPERTY
VM2 Rank
SciTegic.value.IntegerValue
6

@<SCITEGIC>MOL_PROPERTY
Conf_Id
SciTegic.value.IntegerValue
353

@<SCITEGIC>MOL_PROPERTY
Probability
SciTegic.value.DoubleValue
4.33

@<SCITEGIC>MOL_PROPERTY
Sum Probability
SciTegic.value.DoubleValue
41.27

@<SCITEGIC>MOL_PROPERTY
Delta G
SciTegic.value.DoubleValue
0.606

@<SCITEGIC>MOL_PROPERTY
G
SciTegic.value.DoubleValue
38.523

@<SCITEGIC>MOL_PROPERTY
E
SciTegic.value.DoubleValue
10.893

@<SCITEGIC>MOL_PROPERTY
-TS
SciTegic.value.DoubleValue
27.630

@<SCITEGIC>MOL_PROPERTY
U+W
SciTegic.value.DoubleValue
-7.886

@<SCITEGIC>MOL_PROPERTY
U
SciTegic.value.DoubleValue
47.264

@<SCITEGIC>MOL_PROPERTY
W
SciTegic.value.DoubleValue
-55.151

@<SCITEGIC>MOL_PROPERTY
W(PB)
SciTegic.value.DoubleValue
-57.313

@<SCITEGIC>MOL_PROPERTY
W(SA)
SciTegic.value.DoubleValue
2.162

@<SCITEGIC>MOL_PROPERTY
Valence
SciTegic.value.DoubleValue
2.234

@<SCITEGIC>MOL_PROPERTY
Coulomb
SciTegic.value.DoubleValue
44.451

@<SCITEGIC>MOL_PROPERTY
VdW
SciTegic.value.DoubleValue
0.580

@<SCITEGIC>MOL_PROPERTY
VdW6
SciTegic.value.DoubleValue
-5.234

@<SCITEGIC>MOL_PROPERTY
VdW12
SciTegic.value.DoubleValue
5.814

@<SCITEGIC>MOL_PROPERTY
Bond
SciTegic.value.DoubleValue
0.148

@<SCITEGIC>MOL_PROPERTY
Angle
SciTegic.value.DoubleValue
0.630

@<SCITEGIC>MOL_PROPERTY
Pdih
SciTegic.value.DoubleValue
1.456

@<SCITEGIC>MOL_PROPERTY
Idih
SciTegic.value.DoubleValue
0.000

@<SCITEGIC>MOL_PROPERTY
Tether
SciTegic.value.DoubleValue
0.000

@<TRIPOS>MOLECULE
guest-2_vm2.mol2 : vm2 ligand conformer 7
          23          22           1
SMALL
USER_CHARGES
 
@<TRIPOS>ATOM
       1    N1      19.821222   18.866027   26.334139 N.4        1 MOL1        -0.5940
       2    H1      20.399706   18.023434   26.413293 H          1 MOL1         0.3649
       3    H2      18.854179   18.587299   26.529104 H          1 MOL1         0.3649
       4    H3      20.107875   19.496356   27.090839 H          1 MOL1         0.3649
       5    C1      19.958021   19.520350   24.974347 C.3        1 MOL1         0.0207
       6    H4      21.002535   19.817073   24.846141 H          1 MOL1         0.0950
       7    H5      19.341309   20.423205   24.970684 H          1 MOL1         0.0950
       8    C2      19.535134   18.599503   23.815988 C.3        1 MOL1        -0.1415
       9    H6      20.146158   17.687114   23.833093 H          1 MOL1         0.0976
      10    H7      18.490803   18.290913   23.958120 H          1 MOL1         0.0976
      11    C3      19.689271   19.302803   22.449253 C.3        1 MOL1        -0.1375
      12    H8      20.734026   19.616386   22.323180 H          1 MOL1         0.0976
      13    H9      19.078035   20.215904   22.436418 H          1 MOL1         0.0976
      14    C4      19.269351   18.382287   21.277982 C.3        1 MOL1        -0.1375
      15    H10     19.912995   17.492003   21.256798 H          1 MOL1         0.0976
      16    H11     18.247103   18.020130   21.454776 H          1 MOL1         0.0976
      17    C5      19.310280   19.082169   19.897921 C.3        1 MOL1        -0.1350
      18    H12     18.650840   19.961290   19.907180 H          1 MOL1         0.0976
      19    H13     18.898651   18.397520   19.143155 H          1 MOL1         0.0976
      20    C6      20.732721   19.503861   19.464370 C.3        1 MOL1        -0.2365
      21    H14     21.141306   20.280796   20.122282 H          1 MOL1         0.0987
      22    H15     20.718849   19.909667   18.444530 H          1 MOL1         0.0987
      23    H16     21.419137   18.647278   19.475189 H          1 MOL1         0.0987
@<TRIPOS>BOND
    1     1     2    1
    2     1     3    1
    3     1     4    1
    4     1     5    1
    5     5     6    1
    6     5     7    1
    7     5     8    1
    8     8     9    1
    9     8    10    1
   10     8    11    1
   11    11    12    1
   12    11    13    1
   13    11    14    1
   14    14    15    1
   15    14    16    1
   16    14    17    1
   17    17    18    1
   18    17    19    1
   19    17    20    1
   20    20    21    1
   21    20    22    1
   22    20    23    1
@<TRIPOS>SUBSTRUCTURE
       1 MOL1            1 RESIDUE      1      MOL     
@<SCITEGIC>MOL_PROPERTY
VM2 Rank
SciTegic.value.IntegerValue
7

@<SCITEGIC>MOL_PROPERTY
Conf_Id
SciTegic.value.IntegerValue
310

@<SCITEGIC>MOL_PROPERTY
Probability
SciTegic.value.DoubleValue
4.09

@<SCITEGIC>MOL_PROPERTY
Sum Probability
SciTegic.value.DoubleValue
45.36

@<SCITEGIC>MOL_PROPERTY
Delta G
SciTegic.value.DoubleValue
0.640

@<SCITEGIC>MOL_PROPERTY
G
SciTegic.value.DoubleValue
38.557

@<SCITEGIC>MOL_PROPERTY
E
SciTegic.value.DoubleValue
10.927

@<SCITEGIC>MOL_PROPERTY
-TS
SciTegic.value.DoubleValue
27.630

@<SCITEGIC>MOL_PROPERTY
U+W
SciTegic.value.DoubleValue
-7.852

@<SCITEGIC>MOL_PROPERTY
U
SciTegic.value.DoubleValue
47.264

@<SCITEGIC>MOL_PROPERTY
W
SciTegic.value.DoubleValue
-55.117

@<SCITEGIC>MOL_PROPERTY
W(PB)
SciTegic.value.DoubleValue
-57.282

@<SCITEGIC>MOL_PROPERTY
W(SA)
SciTegic.value.DoubleValue
2.165

@<SCITEGIC>MOL_PROPERTY
Valence
SciTegic.value.DoubleValue
2.234

@<SCITEGIC>MOL_PROPERTY
Coulomb
SciTegic.value.DoubleValue
44.451

@<SCITEGIC>MOL_PROPERTY
VdW
SciTegic.value.DoubleValue
0.580

@<SCITEGIC>MOL_PROPERTY
VdW6
SciTegic.value.DoubleValue
-5.234

@<SCITEGIC>MOL_PROPERTY
VdW12
SciTegic.value.DoubleValue
5.814

@<SCITEGIC>MOL_PROPERTY
Bond
SciTegic.value.DoubleValue
0.148

@<SCITEGIC>MOL_PROPERTY
Angle
SciTegic.value.DoubleValue
0.630

@<SCITEGIC>MOL_PROPERTY
Pdih
SciTegic.value.DoubleValue
1.456

@<SCITEGIC>MOL_PROPERTY
Idih
SciTegic.value.DoubleValue
0.000

@<SCITEGIC>MOL_PROPERTY
Tether
SciTegic.value.DoubleValue
0.000

@<TRIPOS>MOLECULE
guest-2_vm2.mol2 : vm2 ligand conformer 8
          23          22           1
SMALL
USER_CHARGES
 
@<TRIPOS>ATOM
       1    N1      19.399275   18.211747   26.066627 N.4        1 MOL1        -0.5940
       2    H1      18.647661   17.562507   25.812879 H          1 MOL1         0.3649
       3    H2      19.187927   18.558598   27.008491 H          1 MOL1         0.3649
       4    H3      20.261479   17.661919   26.138444 H          1 MOL1         0.3649
       5    C1      19.531428   19.342843   25.067054 C.3        1 MOL1         0.0207
       6    H4      20.326018   20.008785   25.414371 H          1 MOL1         0.0950
       7    H5      18.591682   19.901731   25.063544 H          1 MOL1         0.0950
       8    C2      19.849611   18.855756   23.642232 C.3        1 MOL1        -0.1415
       9    H6      20.785686   18.281710   23.653766 H          1 MOL1         0.0976
      10    H7      19.055432   18.174277   23.312453 H          1 MOL1         0.0976
      11    C3      19.977854   20.041713   22.657325 C.3        1 MOL1        -0.1375
      12    H8      20.719446   20.751809   23.049166 H          1 MOL1         0.0976
      13    H9      19.025222   20.587306   22.608177 H          1 MOL1         0.0976
      14    C4      20.408477   19.619677   21.230845 C.3        1 MOL1        -0.1375
      15    H10     20.587249   20.527730   20.638473 H          1 MOL1         0.0976
      16    H11     21.369425   19.088929   21.277878 H          1 MOL1         0.0976
      17    C5      19.363144   18.742366   20.501939 C.3        1 MOL1        -0.1350
      18    H12     18.388588   19.250302   20.500135 H          1 MOL1         0.0976
      19    H13     19.226457   17.792440   21.035484 H          1 MOL1         0.0976
      20    C6      19.786210   18.442898   19.047979 C.3        1 MOL1        -0.2365
      21    H14     19.893427   19.369282   18.468724 H          1 MOL1         0.0987
      22    H15     19.035844   17.817711   18.546849 H          1 MOL1         0.0987
      23    H16     20.744537   17.908155   19.018153 H          1 MOL1         0.0987
@<TRIPOS>BOND
    1     1     2    1
    2     1     3    1
    3     1     4    1
    4     1     5    1
    5     5     6    1
    6     5     7    1
    7     5     8    1
    8     8     9    1
    9     8    10    1
   10     8    11    1
   11    11    12    1
   12    11    13    1
   13    11    14    1
   14    14    15    1
   15    14    16    1
   16    14    17    1
   17    17    18    1
   18    17    19    1
   19    17    20    1
   20    20    21    1
   21    20    22    1
   22    20    23    1
@<TRIPOS>SUBSTRUCTURE
       1 MOL1            1 RESIDUE      1      MOL     
@<SCITEGIC>MOL_PROPERTY
VM2 Rank
SciTegic.value.IntegerValue
8

@<SCITEGIC>MOL_PROPERTY
Conf_Id
SciTegic.value.IntegerValue
132

@<SCITEGIC>MOL_PROPERTY
Probability
SciTegic.value.DoubleValue
3.53

@<SCITEGIC>MOL_PROPERTY
Sum Probability
SciTegic.value.DoubleValue
48.90

@<SCITEGIC>MOL_PROPERTY
Delta G
SciTegic.value.DoubleValue
0.728

@<SCITEGIC>MOL_PROPERTY
G
SciTegic.value.DoubleValue
38.645

@<SCITEGIC>MOL_PROPERTY
E
SciTegic.value.DoubleValue
11.025

@<SCITEGIC>MOL_PROPERTY
-TS
SciTegic.value.DoubleValue
27.619

@<SCITEGIC>MOL_PROPERTY
U+W
SciTegic.value.DoubleValue
-7.754

@<SCITEGIC>MOL_PROPERTY
U
SciTegic.value.DoubleValue
47.562

@<SCITEGIC>MOL_PROPERTY
W
SciTegic.value.DoubleValue
-55.316

@<SCITEGIC>MOL_PROPERTY
W(PB)
SciTegic.value.DoubleValue
-57.472

@<SCITEGIC>MOL_PROPERTY
W(SA)
SciTegic.value.DoubleValue
2.156

@<SCITEGIC>MOL_PROPERTY
Valence
SciTegic.value.DoubleValue
2.273

@<SCITEGIC>MOL_PROPERTY
Coulomb
SciTegic.value.DoubleValue
44.723

@<SCITEGIC>MOL_PROPERTY
VdW
SciTegic.value.DoubleValue
0.566

@<SCITEGIC>MOL_PROPERTY
VdW6
SciTegic.value.DoubleValue
-5.266

@<SCITEGIC>MOL_PROPERTY
VdW12
SciTegic.value.DoubleValue
5.832

@<SCITEGIC>MOL_PROPERTY
Bond
SciTegic.value.DoubleValue
0.151

@<SCITEGIC>MOL_PROPERTY
Angle
SciTegic.value.DoubleValue
0.657

@<SCITEGIC>MOL_PROPERTY
Pdih
SciTegic.value.DoubleValue
1.466

@<SCITEGIC>MOL_PROPERTY
Idih
SciTegic.value.DoubleValue
0.000

@<SCITEGIC>MOL_PROPERTY
Tether
SciTegic.value.DoubleValue
0.000

@<TRIPOS>MOLECULE
guest-2_vm2.mol2 : vm2 ligand conformer 9
          23          22           1
SMALL
USER_CHARGES
 
@<TRIPOS>ATOM
       1    N1      20.327499   18.597867   26.108959 N.4        1 MOL1        -0.5940
       2    H1      20.157118   18.961722   27.052707 H          1 MOL1         0.3649
       3    H2      21.334444   18.680237   25.935458 H          1 MOL1         0.3649
       4    H3      20.106038   17.597207   26.131285 H          1 MOL1         0.3649
       5    C1      19.511514   19.334553   25.066154 C.3        1 MOL1         0.0207
       6    H4      19.775682   20.394298   25.117609 H          1 MOL1         0.0950
       7    H5      18.455315   19.230513   25.329024 H          1 MOL1         0.0950
       8    C2      19.743682   18.811731   23.637391 C.3        1 MOL1        -0.1415
       9    H6      20.809214   18.904034   23.392412 H          1 MOL1         0.0976
      10    H7      19.492279   17.743613   23.594735 H          1 MOL1         0.0976
      11    C3      18.890339   19.589327   22.607769 C.3        1 MOL1        -0.1375
      12    H8      19.176533   20.650286   22.615044 H          1 MOL1         0.0976
      13    H9      17.836658   19.552569   22.917837 H          1 MOL1         0.0976
      14    C4      18.997457   19.032696   21.166562 C.3        1 MOL1        -0.1375
      15    H10     18.695012   17.976410   21.156055 H          1 MOL1         0.0976
      16    H11     18.275017   19.565858   20.533125 H          1 MOL1         0.0976
      17    C5      20.408881   19.177317   20.549582 C.3        1 MOL1        -0.1350
      18    H12     21.135964   18.586647   21.122447 H          1 MOL1         0.0976
      19    H13     20.733561   20.225670   20.607025 H          1 MOL1         0.0976
      20    C6      20.436628   18.713509   19.077583 C.3        1 MOL1        -0.2365
      21    H14     20.144800   17.658746   18.990736 H          1 MOL1         0.0987
      22    H15     21.444826   18.819864   18.656559 H          1 MOL1         0.0987
      23    H16     19.750419   19.309895   18.462231 H          1 MOL1         0.0987
@<TRIPOS>BOND
    1     1     2    1
    2     1     3    1
    3     1     4    1
    4     1     5    1
    5     5     6    1
    6     5     7    1
    7     5     8    1
    8     8     9    1
    9     8    10    1
   10     8    11    1
   11    11    12    1
   12    11    13    1
   13    11    14    1
   14    14    15    1
   15    14    16    1
   16    14    17    1
   17    17    18    1
   18    17    19    1
   19    17    20    1
   20    20    21    1
   21    20    22    1
   22    20    23    1
@<TRIPOS>SUBSTRUCTURE
       1 MOL1            1 RESIDUE      1      MOL     
@<SCITEGIC>MOL_PROPERTY
VM2 Rank
SciTegic.value.IntegerValue
9

@<SCITEGIC>MOL_PROPERTY
Conf_Id
SciTegic.value.IntegerValue
549

@<SCITEGIC>MOL_PROPERTY
Probability
SciTegic.value.DoubleValue
3.48

@<SCITEGIC>MOL_PROPERTY
Sum Probability
SciTegic.value.DoubleValue
52.38

@<SCITEGIC>MOL_PROPERTY
Delta G
SciTegic.value.DoubleValue
0.737

@<SCITEGIC>MOL_PROPERTY
G
SciTegic.value.DoubleValue
38.653

@<SCITEGIC>MOL_PROPERTY
E
SciTegic.value.DoubleValue
11.034

@<SCITEGIC>MOL_PROPERTY
-TS
SciTegic.value.DoubleValue
27.619

@<SCITEGIC>MOL_PROPERTY
U+W
SciTegic.value.DoubleValue
-7.745

@<SCITEGIC>MOL_PROPERTY
U
SciTegic.value.DoubleValue
47.562

@<SCITEGIC>MOL_PROPERTY
W
SciTegic.value.DoubleValue
-55.306

@<SCITEGIC>MOL_PROPERTY
W(PB)
SciTegic.value.DoubleValue
-57.451

@<SCITEGIC>MOL_PROPERTY
W(SA)
SciTegic.value.DoubleValue
2.144

@<SCITEGIC>MOL_PROPERTY
Valence
SciTegic.value.DoubleValue
2.273

@<SCITEGIC>MOL_PROPERTY
Coulomb
SciTegic.value.DoubleValue
44.723

@<SCITEGIC>MOL_PROPERTY
VdW
SciTegic.value.DoubleValue
0.566

@<SCITEGIC>MOL_PROPERTY
VdW6
SciTegic.value.DoubleValue
-5.266

@<SCITEGIC>MOL_PROPERTY
VdW12
SciTegic.value.DoubleValue
5.832

@<SCITEGIC>MOL_PROPERTY
Bond
SciTegic.value.DoubleValue
0.151

@<SCITEGIC>MOL_PROPERTY
Angle
SciTegic.value.DoubleValue
0.657

@<SCITEGIC>MOL_PROPERTY
Pdih
SciTegic.value.DoubleValue
1.466

@<SCITEGIC>MOL_PROPERTY
Idih
SciTegic.value.DoubleValue
0.000

@<SCITEGIC>MOL_PROPERTY
Tether
SciTegic.value.DoubleValue
0.000

@<TRIPOS>MOLECULE
guest-2_vm2.mol2 : vm2 ligand conformer 10
          23          22           1
SMALL
USER_CHARGES
 
@<TRIPOS>ATOM
       1    N1      19.885475   19.973746   25.596655 N.4        1 MOL1        -0.5940
       2    H1      18.899217   20.167176   25.798018 H          1 MOL1         0.3649
       3    H2      20.193196   20.660394   24.901421 H          1 MOL1         0.3649
       4    H3      20.409145   20.163956   26.457797 H          1 MOL1         0.3649
       5    C1      20.093903   18.551520   25.113924 C.3        1 MOL1         0.0207
       6    H4      19.783139   17.879496   25.918532 H          1 MOL1         0.0950
       7    H5      21.163611   18.404765   24.941845 H          1 MOL1         0.0950
       8    C2      19.310492   18.209499   23.831685 C.3        1 MOL1        -0.1415
       9    H6      19.443752   17.140610   23.617896 H          1 MOL1         0.0976
      10    H7      18.237192   18.362519   24.006495 H          1 MOL1         0.0976
      11    C3      19.773038   19.037473   22.609249 C.3        1 MOL1        -0.1375
      12    H8      20.853972   18.901245   22.472571 H          1 MOL1         0.0976
      13    H9      19.605814   20.106332   22.797237 H          1 MOL1         0.0976
      14    C4      19.022868   18.623484   21.320363 C.3        1 MOL1        -0.1375
      15    H10     19.230874   17.568927   21.092434 H          1 MOL1         0.0976
      16    H11     17.940605   18.693628   21.496987 H          1 MOL1         0.0976
      17    C5      19.377608   19.496672   20.092429 C.3        1 MOL1        -0.1350
      18    H12     19.148924   20.550046   20.306638 H          1 MOL1         0.0976
      19    H13     18.729049   19.206065   19.254118 H          1 MOL1         0.0976
      20    C6      20.852616   19.364605   19.649695 C.3        1 MOL1        -0.2365
      21    H14     21.114922   18.316123   19.457610 H          1 MOL1         0.0987
      22    H15     21.538783   19.757381   20.410171 H          1 MOL1         0.0987
      23    H16     21.027950   19.929084   18.724731 H          1 MOL1         0.0987
@<TRIPOS>BOND
    1     1     2    1
    2     1     3    1
    3     1     4    1
    4     1     5    1
    5     5     6    1
    6     5     7    1
    7     5     8    1
    8     8     9    1
    9     8    10    1
   10     8    11    1
   11    11    12    1
   12    11    13    1
   13    11    14    1
   14    14    15    1
   15    14    16    1
   16    14    17    1
   17    17    18    1
   18    17    19    1
   19    17    20    1
   20    20    21    1
   21    20    22    1
   22    20    23    1
@<TRIPOS>SUBSTRUCTURE
       1 MOL1            1 RESIDUE      1      MOL     
@<SCITEGIC>MOL_PROPERTY
VM2 Rank
SciTegic.value.IntegerValue
10

@<SCITEGIC>MOL_PROPERTY
Conf_Id
SciTegic.value.IntegerValue
860

@<SCITEGIC>MOL_PROPERTY
Probability
SciTegic.value.DoubleValue
2.73

@<SCITEGIC>MOL_PROPERTY
Sum Probability
SciTegic.value.DoubleValue
55.11

@<SCITEGIC>MOL_PROPERTY
Delta G
SciTegic.value.DoubleValue
0.881

@<SCITEGIC>MOL_PROPERTY
G
SciTegic.value.DoubleValue
38.798

@<SCITEGIC>MOL_PROPERTY
E
SciTegic.value.DoubleValue
11.064

@<SCITEGIC>MOL_PROPERTY
-TS
SciTegic.value.DoubleValue
27.734

@<SCITEGIC>MOL_PROPERTY
U+W
SciTegic.value.DoubleValue
-7.716

@<SCITEGIC>MOL_PROPERTY
U
SciTegic.value.DoubleValue
47.955

@<SCITEGIC>MOL_PROPERTY
W
SciTegic.value.DoubleValue
-55.671

@<SCITEGIC>MOL_PROPERTY
W(PB)
SciTegic.value.DoubleValue
-57.791

@<SCITEGIC>MOL_PROPERTY
W(SA)
SciTegic.value.DoubleValue
2.120

@<SCITEGIC>MOL_PROPERTY
Valence
SciTegic.value.DoubleValue
2.340

@<SCITEGIC>MOL_PROPERTY
Coulomb
SciTegic.value.DoubleValue
44.939

@<SCITEGIC>MOL_PROPERTY
VdW
SciTegic.value.DoubleValue
0.677

@<SCITEGIC>MOL_PROPERTY
VdW6
SciTegic.value.DoubleValue
-5.763

@<SCITEGIC>MOL_PROPERTY
VdW12
SciTegic.value.DoubleValue
6.440

@<SCITEGIC>MOL_PROPERTY
Bond
SciTegic.value.DoubleValue
0.168

@<SCITEGIC>MOL_PROPERTY
Angle
SciTegic.value.DoubleValue
0.673

@<SCITEGIC>MOL_PROPERTY
Pdih
SciTegic.value.DoubleValue
1.499

@<SCITEGIC>MOL_PROPERTY
Idih
SciTegic.value.DoubleValue
0.000

@<SCITEGIC>MOL_PROPERTY
Tether
SciTegic.value.DoubleValue
0.000

@<TRIPOS>MOLECULE
guest-2_vm2.mol2 : vm2 ligand conformer 11
          23          22           1
SMALL
USER_CHARGES
 
@<TRIPOS>ATOM
       1    N1      19.146694   17.899367   25.364729 N.4        1 MOL1        -0.5940
       2    H1      19.969363   17.293262   25.445547 H          1 MOL1         0.3649
       3    H2      18.588877   17.550424   24.579522 H          1 MOL1         0.3649
       4    H3      18.588531   17.760242   26.213900 H          1 MOL1         0.3649
       5    C1      19.533949   19.353517   25.178213 C.3        1 MOL1         0.0207
       6    H4      20.087440   19.665621   26.068056 H          1 MOL1         0.0950
       7    H5      18.616034   19.945007   25.123464 H          1 MOL1         0.0950
       8    C2      20.393467   19.612538   23.925569 C.3        1 MOL1        -0.1415
       9    H6      20.707548   20.664792   23.932313 H          1 MOL1         0.0976
      10    H7      21.310993   19.011545   23.979694 H          1 MOL1         0.0976
      11    C3      19.638890   19.310875   22.608891 C.3        1 MOL1        -0.1375
      12    H8      18.709480   19.896228   22.577656 H          1 MOL1         0.0976
      13    H9      19.351596   18.252248   22.586036 H          1 MOL1         0.0976
      14    C4      20.500059   19.642354   21.366314 C.3        1 MOL1        -0.1375
      15    H10     20.837976   20.685878   21.431385 H          1 MOL1         0.0976
      16    H11     21.407776   19.023185   21.368554 H          1 MOL1         0.0976
      17    C5      19.748796   19.452978   20.026192 C.3        1 MOL1        -0.1350
      18    H12     20.390989   19.809940   19.208870 H          1 MOL1         0.0976
      19    H13     18.851083   20.086741   20.010400 H          1 MOL1         0.0976
      20    C6      19.354144   17.985370   19.744093 C.3        1 MOL1        -0.2365
      21    H14     20.230641   17.325765   19.785233 H          1 MOL1         0.0987
      22    H15     18.911125   17.892398   18.744076 H          1 MOL1         0.0987
      23    H16     18.614179   17.620371   20.466978 H          1 MOL1         0.0987
@<TRIPOS>BOND
    1     1     2    1
    2     1     3    1
    3     1     4    1
    4     1     5    1
    5     5     6    1
    6     5     7    1
    7     5     8    1
    8     8     9    1
    9     8    10    1
   10     8    11    1
   11    11    12    1
   12    11    13    1
   13    11    14    1
   14    14    15    1
   15    14    16    1
   16    14    17    1
   17    17    18    1
   18    17    19    1
   19    17    20    1
   20    20    21    1
   21    20    22    1
   22    20    23    1
@<TRIPOS>SUBSTRUCTURE
       1 MOL1            1 RESIDUE      1      MOL     
@<SCITEGIC>MOL_PROPERTY
VM2 Rank
SciTegic.value.IntegerValue
11

@<SCITEGIC>MOL_PROPERTY
Conf_Id
SciTegic.value.IntegerValue
295

@<SCITEGIC>MOL_PROPERTY
Probability
SciTegic.value.DoubleValue
2.56

@<SCITEGIC>MOL_PROPERTY
Sum Probability
SciTegic.value.DoubleValue
57.66

@<SCITEGIC>MOL_PROPERTY
Delta G
SciTegic.value.DoubleValue
0.920

@<SCITEGIC>MOL_PROPERTY
G
SciTegic.value.DoubleValue
38.837

@<SCITEGIC>MOL_PROPERTY
E
SciTegic.value.DoubleValue
11.108

@<SCITEGIC>MOL_PROPERTY
-TS
SciTegic.value.DoubleValue
27.728

@<SCITEGIC>MOL_PROPERTY
U+W
SciTegic.value.DoubleValue
-7.671

@<SCITEGIC>MOL_PROPERTY
U
SciTegic.value.DoubleValue
48.083

@<SCITEGIC>MOL_PROPERTY
W
SciTegic.value.DoubleValue
-55.754

@<SCITEGIC>MOL_PROPERTY
W(PB)
SciTegic.value.DoubleValue
-57.894

@<SCITEGIC>MOL_PROPERTY
W(SA)
SciTegic.value.DoubleValue
2.140

@<SCITEGIC>MOL_PROPERTY
Valence
SciTegic.value.DoubleValue
2.338

@<SCITEGIC>MOL_PROPERTY
Coulomb
SciTegic.value.DoubleValue
45.069

@<SCITEGIC>MOL_PROPERTY
VdW
SciTegic.value.DoubleValue
0.676

@<SCITEGIC>MOL_PROPERTY
VdW6
SciTegic.value.DoubleValue
-5.773

@<SCITEGIC>MOL_PROPERTY
VdW12
SciTegic.value.DoubleValue
6.449

@<SCITEGIC>MOL_PROPERTY
Bond
SciTegic.value.DoubleValue
0.170

@<SCITEGIC>MOL_PROPERTY
Angle
SciTegic.value.DoubleValue
0.671

@<SCITEGIC>MOL_PROPERTY
Pdih
SciTegic.value.DoubleValue
1.498

@<SCITEGIC>MOL_PROPERTY
Idih
SciTegic.value.DoubleValue
0.000

@<SCITEGIC>MOL_PROPERTY
Tether
SciTegic.value.DoubleValue
0.000

@<TRIPOS>MOLECULE
guest-2_vm2.mol2 : vm2 ligand conformer 12
          23          22           1
SMALL
USER_CHARGES
 
@<TRIPOS>ATOM
       1    N1      20.490360   18.712302   25.675899 N.4        1 MOL1        -0.5940
       2    H1      20.504174   18.804940   26.697263 H          1 MOL1         0.3649
       3    H2      21.157821   19.395003   25.304443 H          1 MOL1         0.3649
       4    H3      20.855520   17.780273   25.455499 H          1 MOL1         0.3649
       5    C1      19.098894   18.921030   25.110780 C.3        1 MOL1         0.0207
       6    H4      18.760640   19.919121   25.402009 H          1 MOL1         0.0950
       7    H5      18.437013   18.187145   25.578653 H          1 MOL1         0.0950
       8    C2      19.023272   18.774252   23.578708 C.3        1 MOL1        -0.1415
       9    H6      19.361814   17.769016   23.297769 H          1 MOL1         0.0976
      10    H7      17.970971   18.849244   23.274035 H          1 MOL1         0.0976
      11    C3      19.851176   19.852910   22.836245 C.3        1 MOL1        -0.1375
      12    H8      20.918783   19.731105   23.063122 H          1 MOL1         0.0976
      13    H9      19.565358   20.844465   23.214052 H          1 MOL1         0.0976
      14    C4      19.650219   19.836276   21.300886 C.3        1 MOL1        -0.1375
      15    H10     18.586527   19.981203   21.066670 H          1 MOL1         0.0976
      16    H11     20.180008   20.697565   20.870872 H          1 MOL1         0.0976
      17    C5      20.161755   18.542436   20.624214 C.3        1 MOL1        -0.1350
      18    H12     19.592281   17.675346   20.984264 H          1 MOL1         0.0976
      19    H13     21.211975   18.370311   20.898348 H          1 MOL1         0.0976
      20    C6      20.040324   18.617794   19.087267 C.3        1 MOL1        -0.2365
      21    H14     18.995833   18.759940   18.780574 H          1 MOL1         0.0987
      22    H15     20.404482   17.691739   18.623757 H          1 MOL1         0.0987
      23    H16     20.631309   19.450674   18.684454 H          1 MOL1         0.0987
@<TRIPOS>BOND
    1     1     2    1
    2     1     3    1
    3     1     4    1
    4     1     5    1
    5     5     6    1
    6     5     7    1
    7     5     8    1
    8     8     9    1
    9     8    10    1
   10     8    11    1
   11    11    12    1
   12    11    13    1
   13    11    14    1
   14    14    15    1
   15    14    16    1
   16    14    17    1
   17    17    18    1
   18    17    19    1
   19    17    20    1
   20    20    21    1
   21    20    22    1
   22    20    23    1
@<TRIPOS>SUBSTRUCTURE
       1 MOL1            1 RESIDUE      1      MOL     
@<SCITEGIC>MOL_PROPERTY
VM2 Rank
SciTegic.value.IntegerValue
12

@<SCITEGIC>MOL_PROPERTY
Conf_Id
SciTegic.value.IntegerValue
875

@<SCITEGIC>MOL_PROPERTY
Probability
SciTegic.value.DoubleValue
2.46

@<SCITEGIC>MOL_PROPERTY
Sum Probability
SciTegic.value.DoubleValue
60.13

@<SCITEGIC>MOL_PROPERTY
Delta G
SciTegic.value.DoubleValue
0.943

@<SCITEGIC>MOL_PROPERTY
G
SciTegic.value.DoubleValue
38.860

@<SCITEGIC>MOL_PROPERTY
E
SciTegic.value.DoubleValue
11.128

@<SCITEGIC>MOL_PROPERTY
-TS
SciTegic.value.DoubleValue
27.732

@<SCITEGIC>MOL_PROPERTY
U+W
SciTegic.value.DoubleValue
-7.651

@<SCITEGIC>MOL_PROPERTY
U
SciTegic.value.DoubleValue
48.113

@<SCITEGIC>MOL_PROPERTY
W
SciTegic.value.DoubleValue
-55.765

@<SCITEGIC>MOL_PROPERTY
W(PB)
SciTegic.value.DoubleValue
-57.862

@<SCITEGIC>MOL_PROPERTY
W(SA)
SciTegic.value.DoubleValue
2.097

@<SCITEGIC>MOL_PROPERTY
Valence
SciTegic.value.DoubleValue
2.372

@<SCITEGIC>MOL_PROPERTY
Coulomb
SciTegic.value.DoubleValue
45.091

@<SCITEGIC>MOL_PROPERTY
VdW
SciTegic.value.DoubleValue
0.651

@<SCITEGIC>MOL_PROPERTY
VdW6
SciTegic.value.DoubleValue
-5.797

@<SCITEGIC>MOL_PROPERTY
VdW12
SciTegic.value.DoubleValue
6.447

@<SCITEGIC>MOL_PROPERTY
Bond
SciTegic.value.DoubleValue
0.172

@<SCITEGIC>MOL_PROPERTY
Angle
SciTegic.value.DoubleValue
0.675

@<SCITEGIC>MOL_PROPERTY
Pdih
SciTegic.value.DoubleValue
1.524

@<SCITEGIC>MOL_PROPERTY
Idih
SciTegic.value.DoubleValue
0.000

@<SCITEGIC>MOL_PROPERTY
Tether
SciTegic.value.DoubleValue
0.000

@<TRIPOS>MOLECULE
guest-2_vm2.mol2 : vm2 ligand conformer 13
          23          22           1
SMALL
USER_CHARGES
 
@<TRIPOS>ATOM
       1    N1      18.775766   19.512601   25.546174 N.4        1 MOL1        -0.5940
       2    H1      19.316233   20.340344   25.817112 H          1 MOL1         0.3649
       3    H2      18.206544   19.248675   26.357533 H          1 MOL1         0.3649
       4    H3      18.127745   19.802205   24.807442 H          1 MOL1         0.3649
       5    C1      19.672822   18.376521   25.094723 C.3        1 MOL1         0.0207
       6    H4      19.038438   17.521772   24.844954 H          1 MOL1         0.0950
       7    H5      20.304128   18.095841   25.942222 H          1 MOL1         0.0950
       8    C2      20.564601   18.730598   23.888817 C.3        1 MOL1        -0.1415
       9    H6      21.196797   19.592286   24.141347 H          1 MOL1         0.0976
      10    H7      21.243734   17.888535   23.699886 H          1 MOL1         0.0976
      11    C3      19.748736   19.027375   22.608142 C.3        1 MOL1        -0.1375
      12    H8      19.095409   19.894211   22.774030 H          1 MOL1         0.0976
      13    H9      19.096418   18.170866   22.392436 H          1 MOL1         0.0976
      14    C4      20.668568   19.307475   21.395367 C.3        1 MOL1        -0.1375
      15    H10     21.365411   20.117042   21.653085 H          1 MOL1         0.0976
      16    H11     21.286297   18.423208   21.186098 H          1 MOL1         0.0976
      17    C5      19.896850   19.712512   20.116102 C.3        1 MOL1        -0.1350
      18    H12     20.623053   19.993345   19.340468 H          1 MOL1         0.0976
      19    H13     19.295508   20.610986   20.313361 H          1 MOL1         0.0976
      20    C6      18.988656   18.589918   19.564676 C.3        1 MOL1        -0.2365
      21    H14     18.169775   18.357108   20.256525 H          1 MOL1         0.0987
      22    H15     19.561200   17.670390   19.386691 H          1 MOL1         0.0987
      23    H16     18.537887   18.894206   18.611181 H          1 MOL1         0.0987
@<TRIPOS>BOND
    1     1     2    1
    2     1     3    1
    3     1     4    1
    4     1     5    1
    5     5     6    1
    6     5     7    1
    7     5     8    1
    8     8     9    1
    9     8    10    1
   10     8    11    1
   11    11    12    1
   12    11    13    1
   13    11    14    1
   14    14    15    1
   15    14    16    1
   16    14    17    1
   17    17    18    1
   18    17    19    1
   19    17    20    1
   20    20    21    1
   21    20    22    1
   22    20    23    1
@<TRIPOS>SUBSTRUCTURE
       1 MOL1            1 RESIDUE      1      MOL     
@<SCITEGIC>MOL_PROPERTY
VM2 Rank
SciTegic.value.IntegerValue
13

@<SCITEGIC>MOL_PROPERTY
Conf_Id
SciTegic.value.IntegerValue
906

@<SCITEGIC>MOL_PROPERTY
Probability
SciTegic.value.DoubleValue
2.42

@<SCITEGIC>MOL_PROPERTY
Sum Probability
SciTegic.value.DoubleValue
62.55

@<SCITEGIC>MOL_PROPERTY
Delta G
SciTegic.value.DoubleValue
0.953

@<SCITEGIC>MOL_PROPERTY
G
SciTegic.value.DoubleValue
38.869

@<SCITEGIC>MOL_PROPERTY
E
SciTegic.value.DoubleValue
11.135

@<SCITEGIC>MOL_PROPERTY
-TS
SciTegic.value.DoubleValue
27.734

@<SCITEGIC>MOL_PROPERTY
U+W
SciTegic.value.DoubleValue
-7.644

@<SCITEGIC>MOL_PROPERTY
U
SciTegic.value.DoubleValue
47.955

@<SCITEGIC>MOL_PROPERTY
W
SciTegic.value.DoubleValue
-55.599

@<SCITEGIC>MOL_PROPERTY
W(PB)
SciTegic.value.DoubleValue
-57.739

@<SCITEGIC>MOL_PROPERTY
W(SA)
SciTegic.value.DoubleValue
2.139

@<SCITEGIC>MOL_PROPERTY
Valence
SciTegic.value.DoubleValue
2.340

@<SCITEGIC>MOL_PROPERTY
Coulomb
SciTegic.value.DoubleValue
44.939

@<SCITEGIC>MOL_PROPERTY
VdW
SciTegic.value.DoubleValue
0.676

@<SCITEGIC>MOL_PROPERTY
VdW6
SciTegic.value.DoubleValue
-5.763

@<SCITEGIC>MOL_PROPERTY
VdW12
SciTegic.value.DoubleValue
6.440

@<SCITEGIC>MOL_PROPERTY
Bond
SciTegic.value.DoubleValue
0.168

@<SCITEGIC>MOL_PROPERTY
Angle
SciTegic.value.DoubleValue
0.673

@<SCITEGIC>MOL_PROPERTY
Pdih
SciTegic.value.DoubleValue
1.499

@<SCITEGIC>MOL_PROPERTY
Idih
SciTegic.value.DoubleValue
0.000

@<SCITEGIC>MOL_PROPERTY
Tether
SciTegic.value.DoubleValue
0.000

@<TRIPOS>MOLECULE
guest-2_vm2.mol2 : vm2 ligand conformer 14
          23          22           1
SMALL
USER_CHARGES
 
@<TRIPOS>ATOM
       1    N1      20.803408   18.786406   25.242783 N.4        1 MOL1        -0.5940
       2    H1      20.740593   19.573097   25.896807 H          1 MOL1         0.3649
       3    H2      21.396570   19.086633   24.463285 H          1 MOL1         0.3649
       4    H3      21.302176   18.033003   25.728026 H          1 MOL1         0.3649
       5    C1      19.435329   18.340345   24.765529 C.3        1 MOL1         0.0207
       6    H4      18.871670   18.003182   25.639681 H          1 MOL1         0.0950
       7    H5      19.570870   17.484375   24.099495 H          1 MOL1         0.0950
       8    C2      18.641015   19.445805   24.040281 C.3        1 MOL1        -0.1415
       9    H6      17.647238   19.054915   23.784381 H          1 MOL1         0.0976
      10    H7      18.471886   20.280254   24.733750 H          1 MOL1         0.0976
      11    C3      19.326491   19.977575   22.756465 C.3        1 MOL1        -0.1375
      12    H8      20.284437   20.449730   23.012400 H          1 MOL1         0.0976
      13    H9      18.699436   20.772676   22.329859 H          1 MOL1         0.0976
      14    C4      19.551938   18.881476   21.687344 C.3        1 MOL1        -0.1375
      15    H10     20.215918   18.101254   22.082659 H          1 MOL1         0.0976
      16    H11     18.594748   18.395694   21.452459 H          1 MOL1         0.0976
      17    C5      20.165844   19.459967   20.393093 C.3        1 MOL1        -0.1350
      18    H12     21.123216   19.948580   20.622463 H          1 MOL1         0.0976
      19    H13     19.504441   20.235940   19.982775 H          1 MOL1         0.0976
      20    C6      20.391975   18.365427   19.328505 C.3        1 MOL1        -0.2365
      21    H14     19.446056   17.880833   19.053503 H          1 MOL1         0.0987
      22    H15     21.077970   17.591668   19.697185 H          1 MOL1         0.0987
      23    H16     20.827603   18.795199   18.417155 H          1 MOL1         0.0987
@<TRIPOS>BOND
    1     1     2    1
    2     1     3    1
    3     1     4    1
    4     1     5    1
    5     5     6    1
    6     5     7    1
    7     5     8    1
    8     8     9    1
    9     8    10    1
   10     8    11    1
   11    11    12    1
   12    11    13    1
   13    11    14    1
   14    14    15    1
   15    14    16    1
   16    14    17    1
   17    17    18    1
   18    17    19    1
   19    17    20    1
   20    20    21    1
   21    20    22    1
   22    20    23    1
@<TRIPOS>SUBSTRUCTURE
       1 MOL1            1 RESIDUE      1      MOL     
@<SCITEGIC>MOL_PROPERTY
VM2 Rank
SciTegic.value.IntegerValue
14

@<SCITEGIC>MOL_PROPERTY
Conf_Id
SciTegic.value.IntegerValue
905

@<SCITEGIC>MOL_PROPERTY
Probability
SciTegic.value.DoubleValue
2.42

@<SCITEGIC>MOL_PROPERTY
Sum Probability
SciTegic.value.DoubleValue
64.97

@<SCITEGIC>MOL_PROPERTY
Delta G
SciTegic.value.DoubleValue
0.953

@<SCITEGIC>MOL_PROPERTY
G
SciTegic.value.DoubleValue
38.870

@<SCITEGIC>MOL_PROPERTY
E
SciTegic.value.DoubleValue
11.067

@<SCITEGIC>MOL_PROPERTY
-TS
SciTegic.value.DoubleValue
27.803

@<SCITEGIC>MOL_PROPERTY
U+W
SciTegic.value.DoubleValue
-7.712

@<SCITEGIC>MOL_PROPERTY
U
SciTegic.value.DoubleValue
48.051

@<SCITEGIC>MOL_PROPERTY
W
SciTegic.value.DoubleValue
-55.764

@<SCITEGIC>MOL_PROPERTY
W(PB)
SciTegic.value.DoubleValue
-57.858

@<SCITEGIC>MOL_PROPERTY
W(SA)
SciTegic.value.DoubleValue
2.094

@<SCITEGIC>MOL_PROPERTY
Valence
SciTegic.value.DoubleValue
2.122

@<SCITEGIC>MOL_PROPERTY
Coulomb
SciTegic.value.DoubleValue
45.428

@<SCITEGIC>MOL_PROPERTY
VdW
SciTegic.value.DoubleValue
0.502

@<SCITEGIC>MOL_PROPERTY
VdW6
SciTegic.value.DoubleValue
-5.941

@<SCITEGIC>MOL_PROPERTY
VdW12
SciTegic.value.DoubleValue
6.443

@<SCITEGIC>MOL_PROPERTY
Bond
SciTegic.value.DoubleValue
0.160

@<SCITEGIC>MOL_PROPERTY
Angle
SciTegic.value.DoubleValue
0.629

@<SCITEGIC>MOL_PROPERTY
Pdih
SciTegic.value.DoubleValue
1.333

@<SCITEGIC>MOL_PROPERTY
Idih
SciTegic.value.DoubleValue
0.000

@<SCITEGIC>MOL_PROPERTY
Tether
SciTegic.value.DoubleValue
0.000

@<TRIPOS>MOLECULE
guest-2_vm2.mol2 : vm2 ligand conformer 15
          23          22           1
SMALL
USER_CHARGES
 
@<TRIPOS>ATOM
       1    N1      18.999365   18.035382   25.160226 N.4        1 MOL1        -0.5940
       2    H1      18.431214   17.852069   24.327640 H          1 MOL1         0.3649
       3    H2      18.435282   18.613458   25.791268 H          1 MOL1         0.3649
       4    H3      19.145378   17.135173   25.629427 H          1 MOL1         0.3649
       5    C1      20.312247   18.705374   24.805498 C.3        1 MOL1         0.0207
       6    H4      20.875272   18.027355   24.159008 H          1 MOL1         0.0950
       7    H5      20.878543   18.838610   25.731289 H          1 MOL1         0.0950
       8    C2      20.142867   20.070980   24.108798 C.3        1 MOL1        -0.1415
       9    H6      19.616665   20.756778   24.785999 H          1 MOL1         0.0976
      10    H7      21.136865   20.507496   23.943592 H          1 MOL1         0.0976
      11    C3      19.384909   20.001983   22.759140 C.3        1 MOL1        -0.1375
      12    H8      19.294929   21.020590   22.356996 H          1 MOL1         0.0976
      13    H9      18.358449   19.648283   22.924579 H          1 MOL1         0.0976
      14    C4      20.085944   19.103775   21.711741 C.3        1 MOL1        -0.1375
      15    H10     21.119891   19.446640   21.567635 H          1 MOL1         0.0976
      16    H11     20.141897   18.070524   22.079372 H          1 MOL1         0.0976
      17    C5      19.345877   19.118736   20.355757 C.3        1 MOL1        -0.1350
      18    H12     19.292457   20.147626   19.973028 H          1 MOL1         0.0976
      19    H13     18.310171   18.778102   20.494306 H          1 MOL1         0.0976
      20    C6      20.044791   18.220770   19.312840 C.3        1 MOL1        -0.2365
      21    H14     20.082558   17.177363   19.652087 H          1 MOL1         0.0987
      22    H15     21.073174   18.557552   19.127832 H          1 MOL1         0.0987
      23    H16     19.505461   18.244796   18.357027 H          1 MOL1         0.0987
@<TRIPOS>BOND
    1     1     2    1
    2     1     3    1
    3     1     4    1
    4     1     5    1
    5     5     6    1
    6     5     7    1
    7     5     8    1
    8     8     9    1
    9     8    10    1
   10     8    11    1
   11    11    12    1
   12    11    13    1
   13    11    14    1
   14    14    15    1
   15    14    16    1
   16    14    17    1
   17    17    18    1
   18    17    19    1
   19    17    20    1
   20    20    21    1
   21    20    22    1
   22    20    23    1
@<TRIPOS>SUBSTRUCTURE
       1 MOL1            1 RESIDUE      1      MOL     
@<SCITEGIC>MOL_PROPERTY
VM2 Rank
SciTegic.value.IntegerValue
15

@<SCITEGIC>MOL_PROPERTY
Conf_Id
SciTegic.value.IntegerValue
560

@<SCITEGIC>MOL_PROPERTY
Probability
SciTegic.value.DoubleValue
2.42

@<SCITEGIC>MOL_PROPERTY
Sum Probability
SciTegic.value.DoubleValue
67.39

@<SCITEGIC>MOL_PROPERTY
Delta G
SciTegic.value.DoubleValue
0.954

@<SCITEGIC>MOL_PROPERTY
G
SciTegic.value.DoubleValue
38.870

@<SCITEGIC>MOL_PROPERTY
E
SciTegic.value.DoubleValue
11.067

@<SCITEGIC>MOL_PROPERTY
-TS
SciTegic.value.DoubleValue
27.803

@<SCITEGIC>MOL_PROPERTY
U+W
SciTegic.value.DoubleValue
-7.712

@<SCITEGIC>MOL_PROPERTY
U
SciTegic.value.DoubleValue
48.052

@<SCITEGIC>MOL_PROPERTY
W
SciTegic.value.DoubleValue
-55.764

@<SCITEGIC>MOL_PROPERTY
W(PB)
SciTegic.value.DoubleValue
-57.867

@<SCITEGIC>MOL_PROPERTY
W(SA)
SciTegic.value.DoubleValue
2.103

@<SCITEGIC>MOL_PROPERTY
Valence
SciTegic.value.DoubleValue
2.121

@<SCITEGIC>MOL_PROPERTY
Coulomb
SciTegic.value.DoubleValue
45.428

@<SCITEGIC>MOL_PROPERTY
VdW
SciTegic.value.DoubleValue
0.502

@<SCITEGIC>MOL_PROPERTY
VdW6
SciTegic.value.DoubleValue
-5.941

@<SCITEGIC>MOL_PROPERTY
VdW12
SciTegic.value.DoubleValue
6.443

@<SCITEGIC>MOL_PROPERTY
Bond
SciTegic.value.DoubleValue
0.160

@<SCITEGIC>MOL_PROPERTY
Angle
SciTegic.value.DoubleValue
0.629

@<SCITEGIC>MOL_PROPERTY
Pdih
SciTegic.value.DoubleValue
1.333

@<SCITEGIC>MOL_PROPERTY
Idih
SciTegic.value.DoubleValue
0.000

@<SCITEGIC>MOL_PROPERTY
Tether
SciTegic.value.DoubleValue
0.000

@<TRIPOS>MOLECULE
guest-2_vm2.mol2 : vm2 ligand conformer 16
          23          22           1
SMALL
USER_CHARGES
 
@<TRIPOS>ATOM
       1    N1      20.780447   18.578871   25.439194 N.4        1 MOL1        -0.5940
       2    H1      20.625599   17.566261   25.475592 H          1 MOL1         0.3649
       3    H2      21.204975   18.848498   26.333102 H          1 MOL1         0.3649
       4    H3      21.479976   18.752723   24.711247 H          1 MOL1         0.3649
       5    C1      19.493711   19.336850   25.176346 C.3        1 MOL1         0.0207
       6    H4      19.723741   20.405730   25.173796 H          1 MOL1         0.0950
       7    H5      18.815187   19.136675   26.010083 H          1 MOL1         0.0950
       8    C2      18.804031   18.951490   23.853158 C.3        1 MOL1        -0.1415
       9    H6      18.581181   17.876171   23.855365 H          1 MOL1         0.0976
      10    H7      17.838095   19.471336   23.801604 H          1 MOL1         0.0976
      11    C3      19.649362   19.315290   22.609338 C.3        1 MOL1        -0.1375
      12    H8      20.602344   18.772665   22.643059 H          1 MOL1         0.0976
      13    H9      19.889674   20.387291   22.631278 H          1 MOL1         0.0976
      14    C4      18.906587   18.979315   21.293703 C.3        1 MOL1        -0.1375
      15    H10     18.707800   17.899734   21.245585 H          1 MOL1         0.0976
      16    H11     17.925447   19.473994   21.298640 H          1 MOL1         0.0976
      17    C5      19.671866   19.420883   20.022659 C.3        1 MOL1        -0.1350
      18    H12     19.854300   20.504118   20.056002 H          1 MOL1         0.0976
      19    H13     19.031793   19.244195   19.146911 H          1 MOL1         0.0976
      20    C6      21.009995   18.674302   19.819602 C.3        1 MOL1        -0.2365
      21    H14     21.731714   18.917634   20.609064 H          1 MOL1         0.0987
      22    H15     21.464284   18.954614   18.860442 H          1 MOL1         0.0987
      23    H16     20.858794   17.587047   19.814038 H          1 MOL1         0.0987
@<TRIPOS>BOND
    1     1     2    1
    2     1     3    1
    3     1     4    1
    4     1     5    1
    5     5     6    1
    6     5     7    1
    7     5     8    1
    8     8     9    1
    9     8    10    1
   10     8    11    1
   11    11    12    1
   12    11    13    1
   13    11    14    1
   14    14    15    1
   15    14    16    1
   16    14    17    1
   17    17    18    1
   18    17    19    1
   19    17    20    1
   20    20    21    1
   21    20    22    1
   22    20    23    1
@<TRIPOS>SUBSTRUCTURE
       1 MOL1            1 RESIDUE      1      MOL     
@<SCITEGIC>MOL_PROPERTY
VM2 Rank
SciTegic.value.IntegerValue
16

@<SCITEGIC>MOL_PROPERTY
Conf_Id
SciTegic.value.IntegerValue
727

@<SCITEGIC>MOL_PROPERTY
Probability
SciTegic.value.DoubleValue
2.39

@<SCITEGIC>MOL_PROPERTY
Sum Probability
SciTegic.value.DoubleValue
69.78

@<SCITEGIC>MOL_PROPERTY
Delta G
SciTegic.value.DoubleValue
0.961

@<SCITEGIC>MOL_PROPERTY
G
SciTegic.value.DoubleValue
38.877

@<SCITEGIC>MOL_PROPERTY
E
SciTegic.value.DoubleValue
11.149

@<SCITEGIC>MOL_PROPERTY
-TS
SciTegic.value.DoubleValue
27.728

@<SCITEGIC>MOL_PROPERTY
U+W
SciTegic.value.DoubleValue
-7.630

@<SCITEGIC>MOL_PROPERTY
U
SciTegic.value.DoubleValue
48.083

@<SCITEGIC>MOL_PROPERTY
W
SciTegic.value.DoubleValue
-55.713

@<SCITEGIC>MOL_PROPERTY
W(PB)
SciTegic.value.DoubleValue
-57.843

@<SCITEGIC>MOL_PROPERTY
W(SA)
SciTegic.value.DoubleValue
2.130

@<SCITEGIC>MOL_PROPERTY
Valence
SciTegic.value.DoubleValue
2.338

@<SCITEGIC>MOL_PROPERTY
Coulomb
SciTegic.value.DoubleValue
45.069

@<SCITEGIC>MOL_PROPERTY
VdW
SciTegic.value.DoubleValue
0.676

@<SCITEGIC>MOL_PROPERTY
VdW6
SciTegic.value.DoubleValue
-5.773

@<SCITEGIC>MOL_PROPERTY
VdW12
SciTegic.value.DoubleValue
6.449

@<SCITEGIC>MOL_PROPERTY
Bond
SciTegic.value.DoubleValue
0.170

@<SCITEGIC>MOL_PROPERTY
Angle
SciTegic.value.DoubleValue
0.671

@<SCITEGIC>MOL_PROPERTY
Pdih
SciTegic.value.DoubleValue
1.498

@<SCITEGIC>MOL_PROPERTY
Idih
SciTegic.value.DoubleValue
0.000

@<SCITEGIC>MOL_PROPERTY
Tether
SciTegic.value.DoubleValue
0.000

@<TRIPOS>MOLECULE
guest-2_vm2.mol2 : vm2 ligand conformer 17
          23          22           1
SMALL
USER_CHARGES
 
@<TRIPOS>ATOM
       1    N1      19.237866   18.191303   25.619027 N.4        1 MOL1        -0.5940
       2    H1      19.083415   18.214098   26.632726 H          1 MOL1         0.3649
       3    H2      19.658642   17.282380   25.401313 H          1 MOL1         0.3649
       4    H3      18.314779   18.212132   25.175134 H          1 MOL1         0.3649
       5    C1      20.110448   19.341993   25.156835 C.3        1 MOL1         0.0207
       6    H4      21.058409   19.277983   25.697990 H          1 MOL1         0.0950
       7    H5      19.618545   20.276183   25.440974 H          1 MOL1         0.0950
       8    C2      20.386141   19.341252   23.640755 C.3        1 MOL1        -0.1415
       9    H6      21.095103   20.149168   23.416177 H          1 MOL1         0.0976
      10    H7      20.882221   18.401548   23.367075 H          1 MOL1         0.0976
      11    C3      19.098775   19.539553   22.801982 C.3        1 MOL1        -0.1375
      12    H8      18.567741   20.429008   23.168703 H          1 MOL1         0.0976
      13    H9      18.418370   18.690153   22.949173 H          1 MOL1         0.0976
      14    C4      19.370548   19.719834   21.288171 C.3        1 MOL1        -0.1375
      15    H10     18.422101   19.965854   20.790848 H          1 MOL1         0.0976
      16    H11     20.032374   20.583023   21.132632 H          1 MOL1         0.0976
      17    C5      19.980517   18.467035   20.615857 C.3        1 MOL1        -0.1350
      18    H12     19.344217   17.592953   20.812934 H          1 MOL1         0.0976
      19    H13     20.966262   18.247185   21.046847 H          1 MOL1         0.0976
      20    C6      20.131705   18.656029   19.091373 C.3        1 MOL1        -0.2365
      21    H14     20.568042   17.760067   18.631056 H          1 MOL1         0.0987
      22    H15     20.787765   19.505957   18.862386 H          1 MOL1         0.0987
      23    H16     19.158427   18.837925   18.617190 H          1 MOL1         0.0987
@<TRIPOS>BOND
    1     1     2    1
    2     1     3    1
    3     1     4    1
    4     1     5    1
    5     5     6    1
    6     5     7    1
    7     5     8    1
    8     8     9    1
    9     8    10    1
   10     8    11    1
   11    11    12    1
   12    11    13    1
   13    11    14    1
   14    14    15    1
   15    14    16    1
   16    14    17    1
   17    17    18    1
   18    17    19    1
   19    17    20    1
   20    20    21    1
   21    20    22    1
   22    20    23    1
@<TRIPOS>SUBSTRUCTURE
       1 MOL1            1 RESIDUE      1      MOL     
@<SCITEGIC>MOL_PROPERTY
VM2 Rank
SciTegic.value.IntegerValue
17

@<SCITEGIC>MOL_PROPERTY
Conf_Id
SciTegic.value.IntegerValue
869

@<SCITEGIC>MOL_PROPERTY
Probability
SciTegic.value.DoubleValue
2.25

@<SCITEGIC>MOL_PROPERTY
Sum Probability
SciTegic.value.DoubleValue
72.03

@<SCITEGIC>MOL_PROPERTY
Delta G
SciTegic.value.DoubleValue
0.997

@<SCITEGIC>MOL_PROPERTY
G
SciTegic.value.DoubleValue
38.914

@<SCITEGIC>MOL_PROPERTY
E
SciTegic.value.DoubleValue
11.182

@<SCITEGIC>MOL_PROPERTY
-TS
SciTegic.value.DoubleValue
27.732

@<SCITEGIC>MOL_PROPERTY
U+W
SciTegic.value.DoubleValue
-7.597

@<SCITEGIC>MOL_PROPERTY
U
SciTegic.value.DoubleValue
48.113

@<SCITEGIC>MOL_PROPERTY
W
SciTegic.value.DoubleValue
-55.710

@<SCITEGIC>MOL_PROPERTY
W(PB)
SciTegic.value.DoubleValue
-57.830

@<SCITEGIC>MOL_PROPERTY
W(SA)
SciTegic.value.DoubleValue
2.119

@<SCITEGIC>MOL_PROPERTY
Valence
SciTegic.value.DoubleValue
2.372

@<SCITEGIC>MOL_PROPERTY
Coulomb
SciTegic.value.DoubleValue
45.091

@<SCITEGIC>MOL_PROPERTY
VdW
SciTegic.value.DoubleValue
0.651

@<SCITEGIC>MOL_PROPERTY
VdW6
SciTegic.value.DoubleValue
-5.797

@<SCITEGIC>MOL_PROPERTY
VdW12
SciTegic.value.DoubleValue
6.447

@<SCITEGIC>MOL_PROPERTY
Bond
SciTegic.value.DoubleValue
0.172

@<SCITEGIC>MOL_PROPERTY
Angle
SciTegic.value.DoubleValue
0.675

@<SCITEGIC>MOL_PROPERTY
Pdih
SciTegic.value.DoubleValue
1.524

@<SCITEGIC>MOL_PROPERTY
Idih
SciTegic.value.DoubleValue
0.000

@<SCITEGIC>MOL_PROPERTY
Tether
SciTegic.value.DoubleValue
0.000

@<TRIPOS>MOLECULE
guest-2_vm2.mol2 : vm2 ligand conformer 18
          23          22           1
SMALL
USER_CHARGES
 
@<TRIPOS>ATOM
       1    N1      19.467201   18.529702   25.910445 N.4        1 MOL1        -0.5940
       2    H1      18.644662   18.056864   25.524030 H          1 MOL1         0.3649
       3    H2      19.226655   18.816016   26.865503 H          1 MOL1         0.3649
       4    H3      20.211408   17.829050   25.987325 H          1 MOL1         0.3649
       5    C1      19.890471   19.710844   25.058828 C.3        1 MOL1         0.0207
       6    H4      20.741368   20.186860   25.553771 H          1 MOL1         0.0950
       7    H5      19.064993   20.427464   25.037160 H          1 MOL1         0.0950
       8    C2      20.285868   19.331080   23.618437 C.3        1 MOL1        -0.1415
       9    H6      20.685308   20.228595   23.130286 H          1 MOL1         0.0976
      10    H7      21.102201   18.597113   23.644288 H          1 MOL1         0.0976
      11    C3      19.094819   18.773228   22.799093 C.3        1 MOL1        -0.1375
      12    H8      18.292300   19.522576   22.755381 H          1 MOL1         0.0976
      13    H9      18.674013   17.900664   23.315949 H          1 MOL1         0.0976
      14    C4      19.479925   18.341915   21.362299 C.3        1 MOL1        -0.1375
      15    H10     20.278236   17.588149   21.405283 H          1 MOL1         0.0976
      16    H11     18.612905   17.845716   20.904597 H          1 MOL1         0.0976
      17    C5      19.919772   19.517155   20.457136 C.3        1 MOL1        -0.1350
      18    H12     20.835111   19.978327   20.850831 H          1 MOL1         0.0976
      19    H13     19.144577   20.296142   20.457122 H          1 MOL1         0.0976
      20    C6      20.177944   19.053076   19.007762 C.3        1 MOL1        -0.2365
      21    H14     20.970094   18.293841   18.971842 H          1 MOL1         0.0987
      22    H15     20.491920   19.897453   18.380475 H          1 MOL1         0.0987
      23    H16     19.271246   18.622508   18.563103 H          1 MOL1         0.0987
@<TRIPOS>BOND
    1     1     2    1
    2     1     3    1
    3     1     4    1
    4     1     5    1
    5     5     6    1
    6     5     7    1
    7     5     8    1
    8     8     9    1
    9     8    10    1
   10     8    11    1
   11    11    12    1
   12    11    13    1
   13    11    14    1
   14    14    15    1
   15    14    16    1
   16    14    17    1
   17    17    18    1
   18    17    19    1
   19    17    20    1
   20    20    21    1
   21    20    22    1
   22    20    23    1
@<TRIPOS>SUBSTRUCTURE
       1 MOL1            1 RESIDUE      1      MOL     
@<SCITEGIC>MOL_PROPERTY
VM2 Rank
SciTegic.value.IntegerValue
18

@<SCITEGIC>MOL_PROPERTY
Conf_Id
SciTegic.value.IntegerValue
521

@<SCITEGIC>MOL_PROPERTY
Probability
SciTegic.value.DoubleValue
1.98

@<SCITEGIC>MOL_PROPERTY
Sum Probability
SciTegic.value.DoubleValue
74.00

@<SCITEGIC>MOL_PROPERTY
Delta G
SciTegic.value.DoubleValue
1.073

@<SCITEGIC>MOL_PROPERTY
G
SciTegic.value.DoubleValue
38.990

@<SCITEGIC>MOL_PROPERTY
E
SciTegic.value.DoubleValue
11.290

@<SCITEGIC>MOL_PROPERTY
-TS
SciTegic.value.DoubleValue
27.700

@<SCITEGIC>MOL_PROPERTY
U+W
SciTegic.value.DoubleValue
-7.489

@<SCITEGIC>MOL_PROPERTY
U
SciTegic.value.DoubleValue
48.041

@<SCITEGIC>MOL_PROPERTY
W
SciTegic.value.DoubleValue
-55.528

@<SCITEGIC>MOL_PROPERTY
W(PB)
SciTegic.value.DoubleValue
-57.677

@<SCITEGIC>MOL_PROPERTY
W(SA)
SciTegic.value.DoubleValue
2.148

@<SCITEGIC>MOL_PROPERTY
Valence
SciTegic.value.DoubleValue
2.405

@<SCITEGIC>MOL_PROPERTY
Coulomb
SciTegic.value.DoubleValue
44.931

@<SCITEGIC>MOL_PROPERTY
VdW
SciTegic.value.DoubleValue
0.705

@<SCITEGIC>MOL_PROPERTY
VdW6
SciTegic.value.DoubleValue
-5.755

@<SCITEGIC>MOL_PROPERTY
VdW12
SciTegic.value.DoubleValue
6.460

@<SCITEGIC>MOL_PROPERTY
Bond
SciTegic.value.DoubleValue
0.178

@<SCITEGIC>MOL_PROPERTY
Angle
SciTegic.value.DoubleValue
0.724

@<SCITEGIC>MOL_PROPERTY
Pdih
SciTegic.value.DoubleValue
1.504

@<SCITEGIC>MOL_PROPERTY
Idih
SciTegic.value.DoubleValue
0.000

@<SCITEGIC>MOL_PROPERTY
Tether
SciTegic.value.DoubleValue
0.000

@<TRIPOS>MOLECULE
guest-2_vm2.mol2 : vm2 ligand conformer 19
          23          22           1
SMALL
USER_CHARGES
 
@<TRIPOS>ATOM
       1    N1      20.066842   18.779022   25.937778 N.4        1 MOL1        -0.5940
       2    H1      21.009030   19.039974   25.631757 H          1 MOL1         0.3649
       3    H2      20.034238   17.755361   25.979306 H          1 MOL1         0.3649
       4    H3      19.959027   19.120564   26.898871 H          1 MOL1         0.3649
       5    C1      18.999689   19.340389   25.018237 C.3        1 MOL1         0.0207
       6    H4      19.073714   20.431065   25.037583 H          1 MOL1         0.0950
       7    H5      18.026928   19.058035   25.430056 H          1 MOL1         0.0950
       8    C2      19.102623   18.839032   23.564505 C.3        1 MOL1        -0.1415
       9    H6      19.047025   17.742451   23.550592 H          1 MOL1         0.0976
      10    H7      18.224734   19.205356   23.018158 H          1 MOL1         0.0976
      11    C3      20.397265   19.314944   22.858439 C.3        1 MOL1        -0.1375
      12    H8      21.270274   18.980479   23.434265 H          1 MOL1         0.0976
      13    H9      20.433629   20.413177   22.852944 H          1 MOL1         0.0976
      14    C4      20.543666   18.784338   21.410773 C.3        1 MOL1        -0.1375
      15    H10     21.539094   19.062790   21.037926 H          1 MOL1         0.0976
      16    H11     20.513516   17.685987   21.416015 H          1 MOL1         0.0976
      17    C5      19.473094   19.331336   20.436791 C.3        1 MOL1        -0.1350
      18    H12     19.465791   20.429730   20.471802 H          1 MOL1         0.0976
      19    H13     18.473511   18.995978   20.743209 H          1 MOL1         0.0976
      20    C6      19.732821   18.867939   18.987476 C.3        1 MOL1        -0.2365
      21    H14     19.716830   17.772643   18.914678 H          1 MOL1         0.0987
      22    H15     20.708708   19.220246   18.628677 H          1 MOL1         0.0987
      23    H16     18.963401   19.261805   18.310791 H          1 MOL1         0.0987
@<TRIPOS>BOND
    1     1     2    1
    2     1     3    1
    3     1     4    1
    4     1     5    1
    5     5     6    1
    6     5     7    1
    7     5     8    1
    8     8     9    1
    9     8    10    1
   10     8    11    1
   11    11    12    1
   12    11    13    1
   13    11    14    1
   14    14    15    1
   15    14    16    1
   16    14    17    1
   17    17    18    1
   18    17    19    1
   19    17    20    1
   20    20    21    1
   21    20    22    1
   22    20    23    1
@<TRIPOS>SUBSTRUCTURE
       1 MOL1            1 RESIDUE      1      MOL     
@<SCITEGIC>MOL_PROPERTY
VM2 Rank
SciTegic.value.IntegerValue
19

@<SCITEGIC>MOL_PROPERTY
Conf_Id
SciTegic.value.IntegerValue
558

@<SCITEGIC>MOL_PROPERTY
Probability
SciTegic.value.DoubleValue
1.96

@<SCITEGIC>MOL_PROPERTY
Sum Probability
SciTegic.value.DoubleValue
75.96

@<SCITEGIC>MOL_PROPERTY
Delta G
SciTegic.value.DoubleValue
1.080

@<SCITEGIC>MOL_PROPERTY
G
SciTegic.value.DoubleValue
38.997

@<SCITEGIC>MOL_PROPERTY
E
SciTegic.value.DoubleValue
11.297

@<SCITEGIC>MOL_PROPERTY
-TS
SciTegic.value.DoubleValue
27.700

@<SCITEGIC>MOL_PROPERTY
U+W
SciTegic.value.DoubleValue
-7.482

@<SCITEGIC>MOL_PROPERTY
U
SciTegic.value.DoubleValue
48.041

@<SCITEGIC>MOL_PROPERTY
W
SciTegic.value.DoubleValue
-55.523

@<SCITEGIC>MOL_PROPERTY
W(PB)
SciTegic.value.DoubleValue
-57.654

@<SCITEGIC>MOL_PROPERTY
W(SA)
SciTegic.value.DoubleValue
2.131

@<SCITEGIC>MOL_PROPERTY
Valence
SciTegic.value.DoubleValue
2.405

@<SCITEGIC>MOL_PROPERTY
Coulomb
SciTegic.value.DoubleValue
44.931

@<SCITEGIC>MOL_PROPERTY
VdW
SciTegic.value.DoubleValue
0.705

@<SCITEGIC>MOL_PROPERTY
VdW6
SciTegic.value.DoubleValue
-5.755

@<SCITEGIC>MOL_PROPERTY
VdW12
SciTegic.value.DoubleValue
6.460

@<SCITEGIC>MOL_PROPERTY
Bond
SciTegic.value.DoubleValue
0.178

@<SCITEGIC>MOL_PROPERTY
Angle
SciTegic.value.DoubleValue
0.724

@<SCITEGIC>MOL_PROPERTY
Pdih
SciTegic.value.DoubleValue
1.504

@<SCITEGIC>MOL_PROPERTY
Idih
SciTegic.value.DoubleValue
0.000

@<SCITEGIC>MOL_PROPERTY
Tether
SciTegic.value.DoubleValue
0.000

@<TRIPOS>MOLECULE
guest-2_vm2.mol2 : vm2 ligand conformer 20
          23          22           1
SMALL
USER_CHARGES
 
@<TRIPOS>ATOM
       1    N1      19.981550   18.564976   26.072478 N.4        1 MOL1        -0.5940
       2    H1      20.451160   19.428782   26.362532 H          1 MOL1         0.3649
       3    H2      20.503839   17.787141   26.489856 H          1 MOL1         0.3649
       4    H3      19.052728   18.566564   26.506207 H          1 MOL1         0.3649
       5    C1      19.901054   18.444120   24.564281 C.3        1 MOL1         0.0207
       6    H4      19.417818   17.492481   24.327052 H          1 MOL1         0.0950
       7    H5      20.922084   18.418114   24.174944 H          1 MOL1         0.0950
       8    C2      19.121770   19.598826   23.906984 C.3        1 MOL1        -0.1415
       9    H6      18.111901   19.640919   24.336304 H          1 MOL1         0.0976
      10    H7      19.605578   20.554854   24.147614 H          1 MOL1         0.0976
      11    C3      19.009095   19.444481   22.371963 C.3        1 MOL1        -0.1375
      12    H8      18.374341   20.251956   21.981765 H          1 MOL1         0.0976
      13    H9      18.492451   18.502948   22.142952 H          1 MOL1         0.0976
      14    C4      20.383369   19.485170   21.656867 C.3        1 MOL1        -0.1375
      15    H10     20.928459   20.383728   21.977470 H          1 MOL1         0.0976
      16    H11     20.994655   18.625868   21.963598 H          1 MOL1         0.0976
      17    C5      20.271465   19.503473   20.113213 C.3        1 MOL1        -0.1350
      18    H12     21.276313   19.635279   19.688058 H          1 MOL1         0.0976
      19    H13     19.685682   20.376455   19.792972 H          1 MOL1         0.0976
      20    C6      19.647697   18.215954   19.528214 C.3        1 MOL1        -0.2365
      21    H14     20.199863   17.325518   19.855698 H          1 MOL1         0.0987
      22    H15     19.672378   18.241327   18.431089 H          1 MOL1         0.0987
      23    H16     18.599645   18.101918   19.831661 H          1 MOL1         0.0987
@<TRIPOS>BOND
    1     1     2    1
    2     1     3    1
    3     1     4    1
    4     1     5    1
    5     5     6    1
    6     5     7    1
    7     5     8    1
    8     8     9    1
    9     8    10    1
   10     8    11    1
   11    11    12    1
   12    11    13    1
   13    11    14    1
   14    14    15    1
   15    14    16    1
   16    14    17    1
   17    17    18    1
   18    17    19    1
   19    17    20    1
   20    20    21    1
   21    20    22    1
   22    20    23    1
@<TRIPOS>SUBSTRUCTURE
       1 MOL1            1 RESIDUE      1      MOL     
@<SCITEGIC>MOL_PROPERTY
VM2 Rank
SciTegic.value.IntegerValue
20

@<SCITEGIC>MOL_PROPERTY
Conf_Id
SciTegic.value.IntegerValue
122

@<SCITEGIC>MOL_PROPERTY
Probability
SciTegic.value.DoubleValue
1.87

@<SCITEGIC>MOL_PROPERTY
Sum Probability
SciTegic.value.DoubleValue
77.83

@<SCITEGIC>MOL_PROPERTY
Delta G
SciTegic.value.DoubleValue
1.108

@<SCITEGIC>MOL_PROPERTY
G
SciTegic.value.DoubleValue
39.025

@<SCITEGIC>MOL_PROPERTY
E
SciTegic.value.DoubleValue
11.287

@<SCITEGIC>MOL_PROPERTY
-TS
SciTegic.value.DoubleValue
27.737

@<SCITEGIC>MOL_PROPERTY
U+W
SciTegic.value.DoubleValue
-7.492

@<SCITEGIC>MOL_PROPERTY
U
SciTegic.value.DoubleValue
47.960

@<SCITEGIC>MOL_PROPERTY
W
SciTegic.value.DoubleValue
-55.452

@<SCITEGIC>MOL_PROPERTY
W(PB)
SciTegic.value.DoubleValue
-57.573

@<SCITEGIC>MOL_PROPERTY
W(SA)
SciTegic.value.DoubleValue
2.121

@<SCITEGIC>MOL_PROPERTY
Valence
SciTegic.value.DoubleValue
2.523

@<SCITEGIC>MOL_PROPERTY
Coulomb
SciTegic.value.DoubleValue
44.824

@<SCITEGIC>MOL_PROPERTY
VdW
SciTegic.value.DoubleValue
0.613

@<SCITEGIC>MOL_PROPERTY
VdW6
SciTegic.value.DoubleValue
-5.844

@<SCITEGIC>MOL_PROPERTY
VdW12
SciTegic.value.DoubleValue
6.458

@<SCITEGIC>MOL_PROPERTY
Bond
SciTegic.value.DoubleValue
0.171

@<SCITEGIC>MOL_PROPERTY
Angle
SciTegic.value.DoubleValue
0.728

@<SCITEGIC>MOL_PROPERTY
Pdih
SciTegic.value.DoubleValue
1.624

@<SCITEGIC>MOL_PROPERTY
Idih
SciTegic.value.DoubleValue
0.000

@<SCITEGIC>MOL_PROPERTY
Tether
SciTegic.value.DoubleValue
0.000

@<TRIPOS>MOLECULE
guest-2_vm2.mol2 : vm2 ligand conformer 21
          23          22           1
SMALL
USER_CHARGES
 
@<TRIPOS>ATOM
       1    N1      19.668511   18.434710   26.058219 N.4        1 MOL1        -0.5940
       2    H1      18.704676   18.701852   26.282905 H          1 MOL1         0.3649
       3    H2      20.285423   19.079728   26.562407 H          1 MOL1         0.3649
       4    H3      19.820617   17.502800   26.458747 H          1 MOL1         0.3649
       5    C1      19.927606   18.455172   24.565503 C.3        1 MOL1         0.0207
       6    H4      19.259854   17.726192   24.099182 H          1 MOL1         0.0950
       7    H5      20.959119   18.134052   24.397342 H          1 MOL1         0.0950
       8    C2      19.707473   19.842619   23.933680 C.3        1 MOL1        -0.1415
       9    H6      18.672193   20.166324   24.105060 H          1 MOL1         0.0976
      10    H7      20.352913   20.573741   24.438449 H          1 MOL1         0.0976
      11    C3      20.014913   19.863141   22.417809 C.3        1 MOL1        -0.1375
      12    H8      21.062074   19.572584   22.260072 H          1 MOL1         0.0976
      13    H9      19.918555   20.894735   22.052143 H          1 MOL1         0.0976
      14    C4      19.077357   18.941470   21.597347 C.3        1 MOL1        -0.1375
      15    H10     19.233403   17.892642   21.883294 H          1 MOL1         0.0976
      16    H11     18.033577   19.178584   21.845571 H          1 MOL1         0.0976
      17    C5      19.262579   19.083529   20.067239 C.3        1 MOL1        -0.1350
      18    H12     19.080051   20.124386   19.765416 H          1 MOL1         0.0976
      19    H13     18.497161   18.478459   19.561399 H          1 MOL1         0.0976
      20    C6      20.657559   18.636359   19.574204 C.3        1 MOL1        -0.2365
      21    H14     20.875457   17.606766   19.886405 H          1 MOL1         0.0987
      22    H15     21.450145   19.288479   19.961559 H          1 MOL1         0.0987
      23    H16     20.707339   18.672237   18.478225 H          1 MOL1         0.0987
@<TRIPOS>BOND
    1     1     2    1
    2     1     3    1
    3     1     4    1
    4     1     5    1
    5     5     6    1
    6     5     7    1
    7     5     8    1
    8     8     9    1
    9     8    10    1
   10     8    11    1
   11    11    12    1
   12    11    13    1
   13    11    14    1
   14    14    15    1
   15    14    16    1
   16    14    17    1
   17    17    18    1
   18    17    19    1
   19    17    20    1
   20    20    21    1
   21    20    22    1
   22    20    23    1
@<TRIPOS>SUBSTRUCTURE
       1 MOL1            1 RESIDUE      1      MOL     
@<SCITEGIC>MOL_PROPERTY
VM2 Rank
SciTegic.value.IntegerValue
21

@<SCITEGIC>MOL_PROPERTY
Conf_Id
SciTegic.value.IntegerValue
722

@<SCITEGIC>MOL_PROPERTY
Probability
SciTegic.value.DoubleValue
1.86

@<SCITEGIC>MOL_PROPERTY
Sum Probability
SciTegic.value.DoubleValue
79.69

@<SCITEGIC>MOL_PROPERTY
Delta G
SciTegic.value.DoubleValue
1.111

@<SCITEGIC>MOL_PROPERTY
G
SciTegic.value.DoubleValue
39.027

@<SCITEGIC>MOL_PROPERTY
E
SciTegic.value.DoubleValue
11.290

@<SCITEGIC>MOL_PROPERTY
-TS
SciTegic.value.DoubleValue
27.737

@<SCITEGIC>MOL_PROPERTY
U+W
SciTegic.value.DoubleValue
-7.489

@<SCITEGIC>MOL_PROPERTY
U
SciTegic.value.DoubleValue
47.960

@<SCITEGIC>MOL_PROPERTY
W
SciTegic.value.DoubleValue
-55.449

@<SCITEGIC>MOL_PROPERTY
W(PB)
SciTegic.value.DoubleValue
-57.578

@<SCITEGIC>MOL_PROPERTY
W(SA)
SciTegic.value.DoubleValue
2.129

@<SCITEGIC>MOL_PROPERTY
Valence
SciTegic.value.DoubleValue
2.523

@<SCITEGIC>MOL_PROPERTY
Coulomb
SciTegic.value.DoubleValue
44.824

@<SCITEGIC>MOL_PROPERTY
VdW
SciTegic.value.DoubleValue
0.613

@<SCITEGIC>MOL_PROPERTY
VdW6
SciTegic.value.DoubleValue
-5.845

@<SCITEGIC>MOL_PROPERTY
VdW12
SciTegic.value.DoubleValue
6.458

@<SCITEGIC>MOL_PROPERTY
Bond
SciTegic.value.DoubleValue
0.171

@<SCITEGIC>MOL_PROPERTY
Angle
SciTegic.value.DoubleValue
0.728

@<SCITEGIC>MOL_PROPERTY
Pdih
SciTegic.value.DoubleValue
1.624

@<SCITEGIC>MOL_PROPERTY
Idih
SciTegic.value.DoubleValue
0.000

@<SCITEGIC>MOL_PROPERTY
Tether
SciTegic.value.DoubleValue
0.000

@<TRIPOS>MOLECULE
guest-2_vm2.mol2 : vm2 ligand conformer 22
          23          22           1
SMALL
USER_CHARGES
 
@<TRIPOS>ATOM
       1    N1      19.935415   19.008926   26.181605 N.4        1 MOL1        -0.5940
       2    H1      19.099917   18.565053   26.576267 H          1 MOL1         0.3649
       3    H2      20.165363   19.803320   26.788310 H          1 MOL1         0.3649
       4    H3      20.703732   18.335840   26.268076 H          1 MOL1         0.3649
       5    C1      19.721103   19.440995   24.745231 C.3        1 MOL1         0.0207
       6    H4      20.636320   19.930592   24.402899 H          1 MOL1         0.0950
       7    H5      18.911492   20.175664   24.731016 H          1 MOL1         0.0950
       8    C2      19.373425   18.268790   23.808113 C.3        1 MOL1        -0.1415
       9    H6      20.186825   17.531093   23.821109 H          1 MOL1         0.0976
      10    H7      18.480005   17.757937   24.191225 H          1 MOL1         0.0976
      11    C3      19.105728   18.722133   22.353315 C.3        1 MOL1        -0.1375
      12    H8      18.284964   19.452614   22.342407 H          1 MOL1         0.0976
      13    H9      18.756293   17.852604   21.781673 H          1 MOL1         0.0976
      14    C4      20.355487   19.328393   21.665472 C.3        1 MOL1        -0.1375
      15    H10     20.718928   20.183025   22.251152 H          1 MOL1         0.0976
      16    H11     21.169233   18.590161   21.658315 H          1 MOL1         0.0976
      17    C5      20.087960   19.814980   20.220417 C.3        1 MOL1        -0.1350
      18    H12     20.984568   20.332924   19.852043 H          1 MOL1         0.0976
      19    H13     19.281540   20.561626   20.222697 H          1 MOL1         0.0976
      20    C6      19.736883   18.672782   19.239847 C.3        1 MOL1        -0.2365
      21    H14     20.512900   17.896384   19.243621 H          1 MOL1         0.0987
      22    H15     19.653582   19.058465   18.215515 H          1 MOL1         0.0987
      23    H16     18.778507   18.203059   19.493084 H          1 MOL1         0.0987
@<TRIPOS>BOND
    1     1     2    1
    2     1     3    1
    3     1     4    1
    4     1     5    1
    5     5     6    1
    6     5     7    1
    7     5     8    1
    8     8     9    1
    9     8    10    1
   10     8    11    1
   11    11    12    1
   12    11    13    1
   13    11    14    1
   14    14    15    1
   15    14    16    1
   16    14    17    1
   17    17    18    1
   18    17    19    1
   19    17    20    1
   20    20    21    1
   21    20    22    1
   22    20    23    1
@<TRIPOS>SUBSTRUCTURE
       1 MOL1            1 RESIDUE      1      MOL     
@<SCITEGIC>MOL_PROPERTY
VM2 Rank
SciTegic.value.IntegerValue
22

@<SCITEGIC>MOL_PROPERTY
Conf_Id
SciTegic.value.IntegerValue
372

@<SCITEGIC>MOL_PROPERTY
Probability
SciTegic.value.DoubleValue
1.72

@<SCITEGIC>MOL_PROPERTY
Sum Probability
SciTegic.value.DoubleValue
81.40

@<SCITEGIC>MOL_PROPERTY
Delta G
SciTegic.value.DoubleValue
1.157

@<SCITEGIC>MOL_PROPERTY
G
SciTegic.value.DoubleValue
39.074

@<SCITEGIC>MOL_PROPERTY
E
SciTegic.value.DoubleValue
11.369

@<SCITEGIC>MOL_PROPERTY
-TS
SciTegic.value.DoubleValue
27.705

@<SCITEGIC>MOL_PROPERTY
U+W
SciTegic.value.DoubleValue
-7.410

@<SCITEGIC>MOL_PROPERTY
U
SciTegic.value.DoubleValue
48.047

@<SCITEGIC>MOL_PROPERTY
W
SciTegic.value.DoubleValue
-55.457

@<SCITEGIC>MOL_PROPERTY
W(PB)
SciTegic.value.DoubleValue
-57.596

@<SCITEGIC>MOL_PROPERTY
W(SA)
SciTegic.value.DoubleValue
2.138

@<SCITEGIC>MOL_PROPERTY
Valence
SciTegic.value.DoubleValue
2.583

@<SCITEGIC>MOL_PROPERTY
Coulomb
SciTegic.value.DoubleValue
44.791

@<SCITEGIC>MOL_PROPERTY
VdW
SciTegic.value.DoubleValue
0.673

@<SCITEGIC>MOL_PROPERTY
VdW6
SciTegic.value.DoubleValue
-5.789

@<SCITEGIC>MOL_PROPERTY
VdW12
SciTegic.value.DoubleValue
6.462

@<SCITEGIC>MOL_PROPERTY
Bond
SciTegic.value.DoubleValue
0.177

@<SCITEGIC>MOL_PROPERTY
Angle
SciTegic.value.DoubleValue
0.787

@<SCITEGIC>MOL_PROPERTY
Pdih
SciTegic.value.DoubleValue
1.619

@<SCITEGIC>MOL_PROPERTY
Idih
SciTegic.value.DoubleValue
0.000

@<SCITEGIC>MOL_PROPERTY
Tether
SciTegic.value.DoubleValue
0.000

@<TRIPOS>MOLECULE
guest-2_vm2.mol2 : vm2 ligand conformer 23
          23          22           1
SMALL
USER_CHARGES
 
@<TRIPOS>ATOM
       1    N1      19.932691   17.951059   25.593003 N.4        1 MOL1        -0.5940
       2    H1      19.393276   17.129583   25.301620 H          1 MOL1         0.3649
       3    H2      19.398284   18.415302   26.334420 H          1 MOL1         0.3649
       4    H3      20.797012   17.603437   26.022056 H          1 MOL1         0.3649
       5    C1      20.215765   18.882926   24.432325 C.3        1 MOL1         0.0207
       6    H4      20.810707   18.333458   23.698074 H          1 MOL1         0.0950
       7    H5      20.815338   19.716934   24.806908 H          1 MOL1         0.0950
       8    C2      18.936806   19.422842   23.765345 C.3        1 MOL1        -0.1415
       9    H6      18.329035   18.585977   23.398435 H          1 MOL1         0.0976
      10    H7      18.327572   19.936409   24.520937 H          1 MOL1         0.0976
      11    C3      19.234450   20.410283   22.609364 C.3        1 MOL1        -0.1375
      12    H8      19.723870   21.303299   23.022238 H          1 MOL1         0.0976
      13    H9      18.283111   20.757674   22.183283 H          1 MOL1         0.0976
      14    C4      20.121317   19.838273   21.473026 C.3        1 MOL1        -0.1375
      15    H10     20.284502   20.630922   20.729760 H          1 MOL1         0.0976
      16    H11     21.115194   19.582432   21.864124 H          1 MOL1         0.0976
      17    C5      19.505915   18.607031   20.767031 C.3        1 MOL1        -0.1350
      18    H12     18.494284   18.849576   20.412771 H          1 MOL1         0.0976
      19    H13     19.404420   17.774957   21.476475 H          1 MOL1         0.0976
      20    C6      20.369056   18.144587   19.573905 C.3        1 MOL1        -0.2365
      21    H14     20.460727   18.938479   18.821219 H          1 MOL1         0.0987
      22    H15     19.919923   17.269365   19.086786 H          1 MOL1         0.0987
      23    H16     21.379024   17.866214   19.902056 H          1 MOL1         0.0987
@<TRIPOS>BOND
    1     1     2    1
    2     1     3    1
    3     1     4    1
    4     1     5    1
    5     5     6    1
    6     5     7    1
    7     5     8    1
    8     8     9    1
    9     8    10    1
   10     8    11    1
   11    11    12    1
   12    11    13    1
   13    11    14    1
   14    14    15    1
   15    14    16    1
   16    14    17    1
   17    17    18    1
   18    17    19    1
   19    17    20    1
   20    20    21    1
   21    20    22    1
   22    20    23    1
@<TRIPOS>SUBSTRUCTURE
       1 MOL1            1 RESIDUE      1      MOL     
@<SCITEGIC>MOL_PROPERTY
VM2 Rank
SciTegic.value.IntegerValue
23

@<SCITEGIC>MOL_PROPERTY
Conf_Id
SciTegic.value.IntegerValue
500

@<SCITEGIC>MOL_PROPERTY
Probability
SciTegic.value.DoubleValue
1.72

@<SCITEGIC>MOL_PROPERTY
Sum Probability
SciTegic.value.DoubleValue
83.12

@<SCITEGIC>MOL_PROPERTY
Delta G
SciTegic.value.DoubleValue
1.157

@<SCITEGIC>MOL_PROPERTY
G
SciTegic.value.DoubleValue
39.074

@<SCITEGIC>MOL_PROPERTY
E
SciTegic.value.DoubleValue
11.222

@<SCITEGIC>MOL_PROPERTY
-TS
SciTegic.value.DoubleValue
27.852

@<SCITEGIC>MOL_PROPERTY
U+W
SciTegic.value.DoubleValue
-7.558

@<SCITEGIC>MOL_PROPERTY
U
SciTegic.value.DoubleValue
48.231

@<SCITEGIC>MOL_PROPERTY
W
SciTegic.value.DoubleValue
-55.788

@<SCITEGIC>MOL_PROPERTY
W(PB)
SciTegic.value.DoubleValue
-57.904

@<SCITEGIC>MOL_PROPERTY
W(SA)
SciTegic.value.DoubleValue
2.116

@<SCITEGIC>MOL_PROPERTY
Valence
SciTegic.value.DoubleValue
2.496

@<SCITEGIC>MOL_PROPERTY
Coulomb
SciTegic.value.DoubleValue
45.257

@<SCITEGIC>MOL_PROPERTY
VdW
SciTegic.value.DoubleValue
0.478

@<SCITEGIC>MOL_PROPERTY
VdW6
SciTegic.value.DoubleValue
-6.161

@<SCITEGIC>MOL_PROPERTY
VdW12
SciTegic.value.DoubleValue
6.639

@<SCITEGIC>MOL_PROPERTY
Bond
SciTegic.value.DoubleValue
0.180

@<SCITEGIC>MOL_PROPERTY
Angle
SciTegic.value.DoubleValue
0.891

@<SCITEGIC>MOL_PROPERTY
Pdih
SciTegic.value.DoubleValue
1.425

@<SCITEGIC>MOL_PROPERTY
Idih
SciTegic.value.DoubleValue
0.000

@<SCITEGIC>MOL_PROPERTY
Tether
SciTegic.value.DoubleValue
0.000

@<TRIPOS>MOLECULE
guest-2_vm2.mol2 : vm2 ligand conformer 24
          23          22           1
SMALL
USER_CHARGES
 
@<TRIPOS>ATOM
       1    N1      20.174640   18.051717   25.603998 N.4        1 MOL1        -0.5940
       2    H1      20.163363   18.733635   26.369289 H          1 MOL1         0.3649
       3    H2      21.157541   17.863758   25.382022 H          1 MOL1         0.3649
       4    H3      19.780987   17.180580   25.975663 H          1 MOL1         0.3649
       5    C1      19.406128   18.546009   24.395386 C.3        1 MOL1         0.0207
       6    H4      18.365688   18.697557   24.695200 H          1 MOL1         0.0950
       7    H5      19.434691   17.760868   23.635298 H          1 MOL1         0.0950
       8    C2      19.973079   19.854068   23.812586 C.3        1 MOL1        -0.1415
       9    H6      19.978323   20.623321   24.596206 H          1 MOL1         0.0976
      10    H7      21.020697   19.706055   23.521143 H          1 MOL1         0.0976
      11    C3      19.154627   20.377089   22.605727 C.3        1 MOL1        -0.1375
      12    H8      19.609346   21.309535   22.243721 H          1 MOL1         0.0976
      13    H9      18.146752   20.647083   22.950350 H          1 MOL1         0.0976
      14    C4      19.025409   19.382265   21.423095 C.3        1 MOL1        -0.1375
      15    H10     18.478750   18.485390   21.744002 H          1 MOL1         0.0976
      16    H11     18.407213   19.849763   20.644221 H          1 MOL1         0.0976
      17    C5      20.383938   18.972393   20.807053 C.3        1 MOL1        -0.1350
      18    H12     20.989378   18.434497   21.548721 H          1 MOL1         0.0976
      19    H13     20.949617   19.871271   20.524646 H          1 MOL1         0.0976
      20    C6      20.198179   18.073458   19.566155 C.3        1 MOL1        -0.2365
      21    H14     19.661115   17.151307   19.823854 H          1 MOL1         0.0987
      22    H15     21.170933   17.789936   19.143797 H          1 MOL1         0.0987
      23    H16     19.629969   18.592742   18.783414 H          1 MOL1         0.0987
@<TRIPOS>BOND
    1     1     2    1
    2     1     3    1
    3     1     4    1
    4     1     5    1
    5     5     6    1
    6     5     7    1
    7     5     8    1
    8     8     9    1
    9     8    10    1
   10     8    11    1
   11    11    12    1
   12    11    13    1
   13    11    14    1
   14    14    15    1
   15    14    16    1
   16    14    17    1
   17    17    18    1
   18    17    19    1
   19    17    20    1
   20    20    21    1
   21    20    22    1
   22    20    23    1
@<TRIPOS>SUBSTRUCTURE
       1 MOL1            1 RESIDUE      1      MOL     
@<SCITEGIC>MOL_PROPERTY
VM2 Rank
SciTegic.value.IntegerValue
24

@<SCITEGIC>MOL_PROPERTY
Conf_Id
SciTegic.value.IntegerValue
658

@<SCITEGIC>MOL_PROPERTY
Probability
SciTegic.value.DoubleValue
1.66

@<SCITEGIC>MOL_PROPERTY
Sum Probability
SciTegic.value.DoubleValue
84.78

@<SCITEGIC>MOL_PROPERTY
Delta G
SciTegic.value.DoubleValue
1.179

@<SCITEGIC>MOL_PROPERTY
G
SciTegic.value.DoubleValue
39.096

@<SCITEGIC>MOL_PROPERTY
E
SciTegic.value.DoubleValue
11.243

@<SCITEGIC>MOL_PROPERTY
-TS
SciTegic.value.DoubleValue
27.852

@<SCITEGIC>MOL_PROPERTY
U+W
SciTegic.value.DoubleValue
-7.536

@<SCITEGIC>MOL_PROPERTY
U
SciTegic.value.DoubleValue
48.231

@<SCITEGIC>MOL_PROPERTY
W
SciTegic.value.DoubleValue
-55.766

@<SCITEGIC>MOL_PROPERTY
W(PB)
SciTegic.value.DoubleValue
-57.888

@<SCITEGIC>MOL_PROPERTY
W(SA)
SciTegic.value.DoubleValue
2.121

@<SCITEGIC>MOL_PROPERTY
Valence
SciTegic.value.DoubleValue
2.496

@<SCITEGIC>MOL_PROPERTY
Coulomb
SciTegic.value.DoubleValue
45.257

@<SCITEGIC>MOL_PROPERTY
VdW
SciTegic.value.DoubleValue
0.478

@<SCITEGIC>MOL_PROPERTY
VdW6
SciTegic.value.DoubleValue
-6.161

@<SCITEGIC>MOL_PROPERTY
VdW12
SciTegic.value.DoubleValue
6.639

@<SCITEGIC>MOL_PROPERTY
Bond
SciTegic.value.DoubleValue
0.180

@<SCITEGIC>MOL_PROPERTY
Angle
SciTegic.value.DoubleValue
0.891

@<SCITEGIC>MOL_PROPERTY
Pdih
SciTegic.value.DoubleValue
1.425

@<SCITEGIC>MOL_PROPERTY
Idih
SciTegic.value.DoubleValue
0.000

@<SCITEGIC>MOL_PROPERTY
Tether
SciTegic.value.DoubleValue
0.000

@<TRIPOS>MOLECULE
guest-2_vm2.mol2 : vm2 ligand conformer 25
          23          22           1
SMALL
USER_CHARGES
 
@<TRIPOS>ATOM
       1    N1      19.377965   18.776980   26.156204 N.4        1 MOL1        -0.5940
       2    H1      19.308505   17.755375   26.204482 H          1 MOL1         0.3649
       3    H2      18.607084   19.155010   26.717331 H          1 MOL1         0.3649
       4    H3      20.248102   19.042640   26.628566 H          1 MOL1         0.3649
       5    C1      19.333851   19.279887   24.727596 C.3        1 MOL1         0.0207
       6    H4      19.383091   20.371841   24.752526 H          1 MOL1         0.0950
       7    H5      18.371336   18.988344   24.299709 H          1 MOL1         0.0950
       8    C2      20.480495   18.729334   23.858558 C.3        1 MOL1        -0.1415
       9    H6      21.439597   18.989084   24.326105 H          1 MOL1         0.0976
      10    H7      20.430798   17.632604   23.832183 H          1 MOL1         0.0976
      11    C3      20.460279   19.285684   22.415061 C.3        1 MOL1        -0.1375
      12    H8      21.365535   18.938132   21.900592 H          1 MOL1         0.0976
      13    H9      20.520052   20.382472   22.444326 H          1 MOL1         0.0976
      14    C4      19.207151   18.850757   21.613136 C.3        1 MOL1        -0.1375
      15    H10     19.159148   17.754051   21.566735 H          1 MOL1         0.0976
      16    H11     18.301528   19.177498   22.140956 H          1 MOL1         0.0976
      17    C5      19.162563   19.430028   20.178222 C.3        1 MOL1        -0.1350
      18    H12     19.199893   20.527639   20.218917 H          1 MOL1         0.0976
      19    H13     18.195050   19.172559   19.724900 H          1 MOL1         0.0976
      20    C6      20.293697   18.904329   19.265223 C.3        1 MOL1        -0.2365
      21    H14     20.298325   17.807056   19.233910 H          1 MOL1         0.0987
      22    H15     21.279362   19.243284   19.607025 H          1 MOL1         0.0987
      23    H16     20.158564   19.268391   18.238508 H          1 MOL1         0.0987
@<TRIPOS>BOND
    1     1     2    1
    2     1     3    1
    3     1     4    1
    4     1     5    1
    5     5     6    1
    6     5     7    1
    7     5     8    1
    8     8     9    1
    9     8    10    1
   10     8    11    1
   11    11    12    1
   12    11    13    1
   13    11    14    1
   14    14    15    1
   15    14    16    1
   16    14    17    1
   17    17    18    1
   18    17    19    1
   19    17    20    1
   20    20    21    1
   21    20    22    1
   22    20    23    1
@<TRIPOS>SUBSTRUCTURE
       1 MOL1            1 RESIDUE      1      MOL     
@<SCITEGIC>MOL_PROPERTY
VM2 Rank
SciTegic.value.IntegerValue
25

@<SCITEGIC>MOL_PROPERTY
Conf_Id
SciTegic.value.IntegerValue
703

@<SCITEGIC>MOL_PROPERTY
Probability
SciTegic.value.DoubleValue
1.64

@<SCITEGIC>MOL_PROPERTY
Sum Probability
SciTegic.value.DoubleValue
86.42

@<SCITEGIC>MOL_PROPERTY
Delta G
SciTegic.value.DoubleValue
1.184

@<SCITEGIC>MOL_PROPERTY
G
SciTegic.value.DoubleValue
39.101

@<SCITEGIC>MOL_PROPERTY
E
SciTegic.value.DoubleValue
11.396

@<SCITEGIC>MOL_PROPERTY
-TS
SciTegic.value.DoubleValue
27.705

@<SCITEGIC>MOL_PROPERTY
U+W
SciTegic.value.DoubleValue
-7.383

@<SCITEGIC>MOL_PROPERTY
U
SciTegic.value.DoubleValue
48.047

@<SCITEGIC>MOL_PROPERTY
W
SciTegic.value.DoubleValue
-55.431

@<SCITEGIC>MOL_PROPERTY
W(PB)
SciTegic.value.DoubleValue
-57.547

@<SCITEGIC>MOL_PROPERTY
W(SA)
SciTegic.value.DoubleValue
2.116

@<SCITEGIC>MOL_PROPERTY
Valence
SciTegic.value.DoubleValue
2.583

@<SCITEGIC>MOL_PROPERTY
Coulomb
SciTegic.value.DoubleValue
44.791

@<SCITEGIC>MOL_PROPERTY
VdW
SciTegic.value.DoubleValue
0.673

@<SCITEGIC>MOL_PROPERTY
VdW6
SciTegic.value.DoubleValue
-5.789

@<SCITEGIC>MOL_PROPERTY
VdW12
SciTegic.value.DoubleValue
6.462

@<SCITEGIC>MOL_PROPERTY
Bond
SciTegic.value.DoubleValue
0.177

@<SCITEGIC>MOL_PROPERTY
Angle
SciTegic.value.DoubleValue
0.787

@<SCITEGIC>MOL_PROPERTY
Pdih
SciTegic.value.DoubleValue
1.619

@<SCITEGIC>MOL_PROPERTY
Idih
SciTegic.value.DoubleValue
0.000

@<SCITEGIC>MOL_PROPERTY
Tether
SciTegic.value.DoubleValue
0.000

@<TRIPOS>MOLECULE
guest-2_vm2.mol2 : vm2 ligand conformer 26
          23          22           1
SMALL
USER_CHARGES
 
@<TRIPOS>ATOM
       1    N1      20.052262   18.228146   25.896182 N.4        1 MOL1        -0.5940
       2    H1      19.117267   17.849744   26.079030 H          1 MOL1         0.3649
       3    H2      20.419446   18.561583   26.793983 H          1 MOL1         0.3649
       4    H3      20.643947   17.443159   25.605513 H          1 MOL1         0.3649
       5    C1      20.022864   19.329831   24.856301 C.3        1 MOL1         0.0207
       6    H4      21.042379   19.705239   24.733288 H          1 MOL1         0.0950
       7    H5      19.401750   20.142297   25.243063 H          1 MOL1         0.0950
       8    C2      19.475721   18.862016   23.496122 C.3        1 MOL1        -0.1415
       9    H6      20.095752   18.035428   23.126661 H          1 MOL1         0.0976
      10    H7      18.457859   18.471231   23.626659 H          1 MOL1         0.0976
      11    C3      19.462245   20.016571   22.467006 C.3        1 MOL1        -0.1375
      12    H8      20.485169   20.381924   22.305229 H          1 MOL1         0.0976
      13    H9      18.902997   20.863374   22.888575 H          1 MOL1         0.0976
      14    C4      18.816325   19.631891   21.110662 C.3        1 MOL1        -0.1375
      15    H10     17.760758   19.376543   21.277387 H          1 MOL1         0.0976
      16    H11     18.811602   20.516728   20.459311 H          1 MOL1         0.0976
      17    C5      19.500294   18.461129   20.359346 C.3        1 MOL1        -0.1350
      18    H12     18.955891   18.282380   19.421575 H          1 MOL1         0.0976
      19    H13     19.410129   17.533008   20.939462 H          1 MOL1         0.0976
      20    C6      20.986288   18.727416   20.028380 C.3        1 MOL1        -0.2365
      21    H14     21.396224   17.912645   19.417673 H          1 MOL1         0.0987
      22    H15     21.594964   18.796041   20.938570 H          1 MOL1         0.0987
      23    H16     21.103579   19.661778   19.464318 H          1 MOL1         0.0987
@<TRIPOS>BOND
    1     1     2    1
    2     1     3    1
    3     1     4    1
    4     1     5    1
    5     5     6    1
    6     5     7    1
    7     5     8    1
    8     8     9    1
    9     8    10    1
   10     8    11    1
   11    11    12    1
   12    11    13    1
   13    11    14    1
   14    14    15    1
   15    14    16    1
   16    14    17    1
   17    17    18    1
   18    17    19    1
   19    17    20    1
   20    20    21    1
   21    20    22    1
   22    20    23    1
@<TRIPOS>SUBSTRUCTURE
       1 MOL1            1 RESIDUE      1      MOL     
@<SCITEGIC>MOL_PROPERTY
VM2 Rank
SciTegic.value.IntegerValue
26

@<SCITEGIC>MOL_PROPERTY
Conf_Id
SciTegic.value.IntegerValue
517

@<SCITEGIC>MOL_PROPERTY
Probability
SciTegic.value.DoubleValue
1.49

@<SCITEGIC>MOL_PROPERTY
Sum Probability
SciTegic.value.DoubleValue
87.92

@<SCITEGIC>MOL_PROPERTY
Delta G
SciTegic.value.DoubleValue
1.241

@<SCITEGIC>MOL_PROPERTY
G
SciTegic.value.DoubleValue
39.157

@<SCITEGIC>MOL_PROPERTY
E
SciTegic.value.DoubleValue
11.211

@<SCITEGIC>MOL_PROPERTY
-TS
SciTegic.value.DoubleValue
27.946

@<SCITEGIC>MOL_PROPERTY
U+W
SciTegic.value.DoubleValue
-7.568

@<SCITEGIC>MOL_PROPERTY
U
SciTegic.value.DoubleValue
48.054

@<SCITEGIC>MOL_PROPERTY
W
SciTegic.value.DoubleValue
-55.621

@<SCITEGIC>MOL_PROPERTY
W(PB)
SciTegic.value.DoubleValue
-57.725

@<SCITEGIC>MOL_PROPERTY
W(SA)
SciTegic.value.DoubleValue
2.103

@<SCITEGIC>MOL_PROPERTY
Valence
SciTegic.value.DoubleValue
2.692

@<SCITEGIC>MOL_PROPERTY
Coulomb
SciTegic.value.DoubleValue
44.814

@<SCITEGIC>MOL_PROPERTY
VdW
SciTegic.value.DoubleValue
0.547

@<SCITEGIC>MOL_PROPERTY
VdW6
SciTegic.value.DoubleValue
-6.176

@<SCITEGIC>MOL_PROPERTY
VdW12
SciTegic.value.DoubleValue
6.723

@<SCITEGIC>MOL_PROPERTY
Bond
SciTegic.value.DoubleValue
0.192

@<SCITEGIC>MOL_PROPERTY
Angle
SciTegic.value.DoubleValue
1.036

@<SCITEGIC>MOL_PROPERTY
Pdih
SciTegic.value.DoubleValue
1.465

@<SCITEGIC>MOL_PROPERTY
Idih
SciTegic.value.DoubleValue
0.000

@<SCITEGIC>MOL_PROPERTY
Tether
SciTegic.value.DoubleValue
0.000

@<TRIPOS>MOLECULE
guest-2_vm2.mol2 : vm2 ligand conformer 27
          23          22           1
SMALL
USER_CHARGES
 
@<TRIPOS>ATOM
       1    N1      19.871030   18.152738   25.887918 N.4        1 MOL1        -0.5940
       2    H1      19.307613   18.099010   26.743328 H          1 MOL1         0.3649
       3    H2      20.781020   18.542008   26.154798 H          1 MOL1         0.3649
       4    H3      20.034145   17.189420   25.577764 H          1 MOL1         0.3649
       5    C1      19.192176   18.984157   24.818422 C.3        1 MOL1         0.0207
       6    H4      19.022785   19.984590   25.225740 H          1 MOL1         0.0950
       7    H5      18.220358   18.530986   24.604695 H          1 MOL1         0.0950
       8    C2      20.012896   19.085481   23.520555 C.3        1 MOL1        -0.1415
       9    H6      20.993870   19.526373   23.742145 H          1 MOL1         0.0976
      10    H7      20.191684   18.075307   23.130975 H          1 MOL1         0.0976
      11    C3      19.284564   19.942627   22.458910 C.3        1 MOL1        -0.1375
      12    H8      19.044701   20.922306   22.895084 H          1 MOL1         0.0976
      13    H9      18.320499   19.481178   22.206583 H          1 MOL1         0.0976
      14    C4      20.115426   20.172544   21.169854 C.3        1 MOL1        -0.1375
      15    H10     19.542598   20.820985   20.492646 H          1 MOL1         0.0976
      16    H11     21.024082   20.734607   21.426075 H          1 MOL1         0.0976
      17    C5      20.522812   18.886710   20.405895 C.3        1 MOL1        -0.1350
      18    H12     21.198505   18.277308   21.020829 H          1 MOL1         0.0976
      19    H13     21.104020   19.176475   19.519342 H          1 MOL1         0.0976
      20    C6      19.317096   18.032743   19.952445 C.3        1 MOL1        -0.2365
      21    H14     18.616643   18.626841   19.351304 H          1 MOL1         0.0987
      22    H15     18.770988   17.620601   20.810085 H          1 MOL1         0.0987
      23    H16     19.653760   17.187568   19.338280 H          1 MOL1         0.0987
@<TRIPOS>BOND
    1     1     2    1
    2     1     3    1
    3     1     4    1
    4     1     5    1
    5     5     6    1
    6     5     7    1
    7     5     8    1
    8     8     9    1
    9     8    10    1
   10     8    11    1
   11    11    12    1
   12    11    13    1
   13    11    14    1
   14    14    15    1
   15    14    16    1
   16    14    17    1
   17    17    18    1
   18    17    19    1
   19    17    20    1
   20    20    21    1
   21    20    22    1
   22    20    23    1
@<TRIPOS>SUBSTRUCTURE
       1 MOL1            1 RESIDUE      1      MOL     
@<SCITEGIC>MOL_PROPERTY
VM2 Rank
SciTegic.value.IntegerValue
27

@<SCITEGIC>MOL_PROPERTY
Conf_Id
SciTegic.value.IntegerValue
364

@<SCITEGIC>MOL_PROPERTY
Probability
SciTegic.value.DoubleValue
1.29

@<SCITEGIC>MOL_PROPERTY
Sum Probability
SciTegic.value.DoubleValue
89.21

@<SCITEGIC>MOL_PROPERTY
Delta G
SciTegic.value.DoubleValue
1.328

@<SCITEGIC>MOL_PROPERTY
G
SciTegic.value.DoubleValue
39.244

@<SCITEGIC>MOL_PROPERTY
E
SciTegic.value.DoubleValue
11.298

@<SCITEGIC>MOL_PROPERTY
-TS
SciTegic.value.DoubleValue
27.946

@<SCITEGIC>MOL_PROPERTY
U+W
SciTegic.value.DoubleValue
-7.481

@<SCITEGIC>MOL_PROPERTY
U
SciTegic.value.DoubleValue
48.054

@<SCITEGIC>MOL_PROPERTY
W
SciTegic.value.DoubleValue
-55.534

@<SCITEGIC>MOL_PROPERTY
W(PB)
SciTegic.value.DoubleValue
-57.639

@<SCITEGIC>MOL_PROPERTY
W(SA)
SciTegic.value.DoubleValue
2.105

@<SCITEGIC>MOL_PROPERTY
Valence
SciTegic.value.DoubleValue
2.692

@<SCITEGIC>MOL_PROPERTY
Coulomb
SciTegic.value.DoubleValue
44.814

@<SCITEGIC>MOL_PROPERTY
VdW
SciTegic.value.DoubleValue
0.547

@<SCITEGIC>MOL_PROPERTY
VdW6
SciTegic.value.DoubleValue
-6.176

@<SCITEGIC>MOL_PROPERTY
VdW12
SciTegic.value.DoubleValue
6.723

@<SCITEGIC>MOL_PROPERTY
Bond
SciTegic.value.DoubleValue
0.192

@<SCITEGIC>MOL_PROPERTY
Angle
SciTegic.value.DoubleValue
1.036

@<SCITEGIC>MOL_PROPERTY
Pdih
SciTegic.value.DoubleValue
1.465

@<SCITEGIC>MOL_PROPERTY
Idih
SciTegic.value.DoubleValue
0.000

@<SCITEGIC>MOL_PROPERTY
Tether
SciTegic.value.DoubleValue
0.000

@<TRIPOS>MOLECULE
guest-2_vm2.mol2 : vm2 ligand conformer 28
          23          22           1
SMALL
USER_CHARGES
 
@<TRIPOS>ATOM
       1    N1      19.877008   18.689028   25.795794 N.4        1 MOL1        -0.5940
       2    H1      20.444897   17.905535   25.459535 H          1 MOL1         0.3649
       3    H2      18.939113   18.322970   25.988128 H          1 MOL1         0.3649
       4    H3      20.273645   18.982042   26.695104 H          1 MOL1         0.3649
       5    C1      19.843075   19.829822   24.797369 C.3        1 MOL1         0.0207
       6    H4      20.866323   20.187878   24.655348 H          1 MOL1         0.0950
       7    H5      19.257582   20.639778   25.240921 H          1 MOL1         0.0950
       8    C2      19.233435   19.447364   23.434643 C.3        1 MOL1        -0.1415
       9    H6      18.212688   19.070537   23.582124 H          1 MOL1         0.0976
      10    H7      19.147936   20.361555   22.834069 H          1 MOL1         0.0976
      11    C3      20.082478   18.398923   22.672863 C.3        1 MOL1        -0.1375
      12    H8      20.200208   17.502762   23.296105 H          1 MOL1         0.0976
      13    H9      21.096064   18.789263   22.511148 H          1 MOL1         0.0976
      14    C4      19.461417   17.962667   21.320370 C.3        1 MOL1        -0.1375
      15    H10     20.100685   17.188821   20.873475 H          1 MOL1         0.0976
      16    H11     18.493770   17.478553   21.511422 H          1 MOL1         0.0976
      17    C5      19.255558   19.098546   20.285659 C.3        1 MOL1        -0.1350
      18    H12     18.518943   19.823116   20.657592 H          1 MOL1         0.0976
      19    H13     18.816679   18.666260   19.375576 H          1 MOL1         0.0976
      20    C6      20.563029   19.830649   19.907303 C.3        1 MOL1        -0.2365
      21    H14     21.322536   19.122884   19.550699 H          1 MOL1         0.0987
      22    H15     20.978141   20.379654   20.761654 H          1 MOL1         0.0987
      23    H16     20.378605   20.557597   19.105808 H          1 MOL1         0.0987
@<TRIPOS>BOND
    1     1     2    1
    2     1     3    1
    3     1     4    1
    4     1     5    1
    5     5     6    1
    6     5     7    1
    7     5     8    1
    8     8     9    1
    9     8    10    1
   10     8    11    1
   11    11    12    1
   12    11    13    1
   13    11    14    1
   14    14    15    1
   15    14    16    1
   16    14    17    1
   17    17    18    1
   18    17    19    1
   19    17    20    1
   20    20    21    1
   21    20    22    1
   22    20    23    1
@<TRIPOS>SUBSTRUCTURE
       1 MOL1            1 RESIDUE      1      MOL     
@<SCITEGIC>MOL_PROPERTY
VM2 Rank
SciTegic.value.IntegerValue
28

@<SCITEGIC>MOL_PROPERTY
Conf_Id
SciTegic.value.IntegerValue
704

@<SCITEGIC>MOL_PROPERTY
Probability
SciTegic.value.DoubleValue
0.88

@<SCITEGIC>MOL_PROPERTY
Sum Probability
SciTegic.value.DoubleValue
90.09

@<SCITEGIC>MOL_PROPERTY
Delta G
SciTegic.value.DoubleValue
1.558

@<SCITEGIC>MOL_PROPERTY
G
SciTegic.value.DoubleValue
39.474

@<SCITEGIC>MOL_PROPERTY
E
SciTegic.value.DoubleValue
11.436

@<SCITEGIC>MOL_PROPERTY
-TS
SciTegic.value.DoubleValue
28.038

@<SCITEGIC>MOL_PROPERTY
U+W
SciTegic.value.DoubleValue
-7.343

@<SCITEGIC>MOL_PROPERTY
U
SciTegic.value.DoubleValue
48.503

@<SCITEGIC>MOL_PROPERTY
W
SciTegic.value.DoubleValue
-55.846

@<SCITEGIC>MOL_PROPERTY
W(PB)
SciTegic.value.DoubleValue
-57.927

@<SCITEGIC>MOL_PROPERTY
W(SA)
SciTegic.value.DoubleValue
2.081

@<SCITEGIC>MOL_PROPERTY
Valence
SciTegic.value.DoubleValue
2.824

@<SCITEGIC>MOL_PROPERTY
Coulomb
SciTegic.value.DoubleValue
44.990

@<SCITEGIC>MOL_PROPERTY
VdW
SciTegic.value.DoubleValue
0.689

@<SCITEGIC>MOL_PROPERTY
VdW6
SciTegic.value.DoubleValue
-6.667

@<SCITEGIC>MOL_PROPERTY
VdW12
SciTegic.value.DoubleValue
7.356

@<SCITEGIC>MOL_PROPERTY
Bond
SciTegic.value.DoubleValue
0.219

@<SCITEGIC>MOL_PROPERTY
Angle
SciTegic.value.DoubleValue
1.118

@<SCITEGIC>MOL_PROPERTY
Pdih
SciTegic.value.DoubleValue
1.487

@<SCITEGIC>MOL_PROPERTY
Idih
SciTegic.value.DoubleValue
0.000

@<SCITEGIC>MOL_PROPERTY
Tether
SciTegic.value.DoubleValue
0.000

@<TRIPOS>MOLECULE
guest-2_vm2.mol2 : vm2 ligand conformer 29
          23          22           1
SMALL
USER_CHARGES
 
@<TRIPOS>ATOM
       1    N1      20.073708   18.158500   25.294076 N.4        1 MOL1        -0.5940
       2    H1      20.888988   17.716163   25.731591 H          1 MOL1         0.3649
       3    H2      19.589664   17.433230   24.756349 H          1 MOL1         0.3649
       4    H3      19.445491   18.443800   26.052003 H          1 MOL1         0.3649
       5    C1      20.470191   19.331998   24.420039 C.3        1 MOL1         0.0207
       6    H4      21.162855   18.968212   23.656609 H          1 MOL1         0.0950
       7    H5      21.004015   20.050031   25.048493 H          1 MOL1         0.0950
       8    C2      19.273347   20.032109   23.745358 C.3        1 MOL1        -0.1415
       9    H6      18.602379   20.423514   24.521451 H          1 MOL1         0.0976
      10    H7      19.639374   20.909401   23.196906 H          1 MOL1         0.0976
      11    C3      18.465749   19.116925   22.787639 C.3        1 MOL1        -0.1375
      12    H8      17.663309   19.708479   22.325731 H          1 MOL1         0.0976
      13    H9      17.959782   18.337335   23.372846 H          1 MOL1         0.0976
      14    C4      19.302311   18.440409   21.670817 C.3        1 MOL1        -0.1375
      15    H10     20.050669   17.769981   22.113962 H          1 MOL1         0.0976
      16    H11     18.634847   17.799109   21.078734 H          1 MOL1         0.0976
      17    C5      19.999821   19.446861   20.725604 C.3        1 MOL1        -0.1350
      18    H12     20.725414   20.051975   21.285328 H          1 MOL1         0.0976
      19    H13     19.256928   20.142489   20.310968 H          1 MOL1         0.0976
      20    C6      20.730872   18.730199   19.570467 C.3        1 MOL1        -0.2365
      21    H14     21.501849   18.049128   19.953798 H          1 MOL1         0.0987
      22    H15     21.221805   19.458148   18.911614 H          1 MOL1         0.0987
      23    H16     20.029490   18.144807   18.961720 H          1 MOL1         0.0987
@<TRIPOS>BOND
    1     1     2    1
    2     1     3    1
    3     1     4    1
    4     1     5    1
    5     5     6    1
    6     5     7    1
    7     5     8    1
    8     8     9    1
    9     8    10    1
   10     8    11    1
   11    11    12    1
   12    11    13    1
   13    11    14    1
   14    14    15    1
   15    14    16    1
   16    14    17    1
   17    17    18    1
   18    17    19    1
   19    17    20    1
   20    20    21    1
   21    20    22    1
   22    20    23    1
@<TRIPOS>SUBSTRUCTURE
       1 MOL1            1 RESIDUE      1      MOL     
@<SCITEGIC>MOL_PROPERTY
VM2 Rank
SciTegic.value.IntegerValue
29

@<SCITEGIC>MOL_PROPERTY
Conf_Id
SciTegic.value.IntegerValue
76

@<SCITEGIC>MOL_PROPERTY
Probability
SciTegic.value.DoubleValue
0.83

@<SCITEGIC>MOL_PROPERTY
Sum Probability
SciTegic.value.DoubleValue
90.92

@<SCITEGIC>MOL_PROPERTY
Delta G
SciTegic.value.DoubleValue
1.591

@<SCITEGIC>MOL_PROPERTY
G
SciTegic.value.DoubleValue
39.507

@<SCITEGIC>MOL_PROPERTY
E
SciTegic.value.DoubleValue
11.447

@<SCITEGIC>MOL_PROPERTY
-TS
SciTegic.value.DoubleValue
28.060

@<SCITEGIC>MOL_PROPERTY
U+W
SciTegic.value.DoubleValue
-7.332

@<SCITEGIC>MOL_PROPERTY
U
SciTegic.value.DoubleValue
48.590

@<SCITEGIC>MOL_PROPERTY
W
SciTegic.value.DoubleValue
-55.922

@<SCITEGIC>MOL_PROPERTY
W(PB)
SciTegic.value.DoubleValue
-58.013

@<SCITEGIC>MOL_PROPERTY
W(SA)
SciTegic.value.DoubleValue
2.090

@<SCITEGIC>MOL_PROPERTY
Valence
SciTegic.value.DoubleValue
2.601

@<SCITEGIC>MOL_PROPERTY
Coulomb
SciTegic.value.DoubleValue
45.520

@<SCITEGIC>MOL_PROPERTY
VdW
SciTegic.value.DoubleValue
0.469

@<SCITEGIC>MOL_PROPERTY
VdW6
SciTegic.value.DoubleValue
-6.867

@<SCITEGIC>MOL_PROPERTY
VdW12
SciTegic.value.DoubleValue
7.336

@<SCITEGIC>MOL_PROPERTY
Bond
SciTegic.value.DoubleValue
0.205

@<SCITEGIC>MOL_PROPERTY
Angle
SciTegic.value.DoubleValue
0.962

@<SCITEGIC>MOL_PROPERTY
Pdih
SciTegic.value.DoubleValue
1.434

@<SCITEGIC>MOL_PROPERTY
Idih
SciTegic.value.DoubleValue
0.000

@<SCITEGIC>MOL_PROPERTY
Tether
SciTegic.value.DoubleValue
0.000

@<TRIPOS>MOLECULE
guest-2_vm2.mol2 : vm2 ligand conformer 30
          23          22           1
SMALL
USER_CHARGES
 
@<TRIPOS>ATOM
       1    N1      20.229833   19.841148   25.350106 N.4        1 MOL1        -0.5940
       2    H1      20.955928   19.291791   25.820794 H          1 MOL1         0.3649
       3    H2      19.904288   20.544641   26.021635 H          1 MOL1         0.3649
       4    H3      20.681610   20.345482   24.581247 H          1 MOL1         0.3649
       5    C1      19.094537   18.966922   24.855004 C.3        1 MOL1         0.0207
       6    H4      18.344487   19.614139   24.393455 H          1 MOL1         0.0950
       7    H5      18.638533   18.488942   25.726279 H          1 MOL1         0.0950
       8    C2      19.538795   17.882835   23.851677 C.3        1 MOL1        -0.1415
       9    H6      20.252580   17.209834   24.345017 H          1 MOL1         0.0976
      10    H7      18.668293   17.266420   23.590677 H          1 MOL1         0.0976
      11    C3      20.176190   18.441261   22.554165 C.3        1 MOL1        -0.1375
      12    H8      20.490133   17.590052   21.936301 H          1 MOL1         0.0976
      13    H9      21.091697   18.997085   22.796355 H          1 MOL1         0.0976
      14    C4      19.213701   19.344266   21.741376 C.3        1 MOL1        -0.1375
      15    H10     18.310210   18.778079   21.476226 H          1 MOL1         0.0976
      16    H11     18.880155   20.182912   22.366496 H          1 MOL1         0.0976
      17    C5      19.852683   19.927016   20.457418 C.3        1 MOL1        -0.1350
      18    H12     20.751263   20.503709   20.717620 H          1 MOL1         0.0976
      19    H13     19.149132   20.641607   20.007707 H          1 MOL1         0.0976
      20    C6      20.210260   18.853552   19.404254 C.3        1 MOL1        -0.2365
      21    H14     21.005591   18.187268   19.760284 H          1 MOL1         0.0987
      22    H15     20.566642   19.326482   18.479991 H          1 MOL1         0.0987
      23    H16     19.335000   18.241137   19.151522 H          1 MOL1         0.0987
@<TRIPOS>BOND
    1     1     2    1
    2     1     3    1
    3     1     4    1
    4     1     5    1
    5     5     6    1
    6     5     7    1
    7     5     8    1
    8     8     9    1
    9     8    10    1
   10     8    11    1
   11    11    12    1
   12    11    13    1
   13    11    14    1
   14    14    15    1
   15    14    16    1
   16    14    17    1
   17    17    18    1
   18    17    19    1
   19    17    20    1
   20    20    21    1
   21    20    22    1
   22    20    23    1
@<TRIPOS>SUBSTRUCTURE
       1 MOL1            1 RESIDUE      1      MOL     
@<SCITEGIC>MOL_PROPERTY
VM2 Rank
SciTegic.value.IntegerValue
30

@<SCITEGIC>MOL_PROPERTY
Conf_Id
SciTegic.value.IntegerValue
441

@<SCITEGIC>MOL_PROPERTY
Probability
SciTegic.value.DoubleValue
0.82

@<SCITEGIC>MOL_PROPERTY
Sum Probability
SciTegic.value.DoubleValue
91.74

@<SCITEGIC>MOL_PROPERTY
Delta G
SciTegic.value.DoubleValue
1.598

@<SCITEGIC>MOL_PROPERTY
G
SciTegic.value.DoubleValue
39.515

@<SCITEGIC>MOL_PROPERTY
E
SciTegic.value.DoubleValue
11.625

@<SCITEGIC>MOL_PROPERTY
-TS
SciTegic.value.DoubleValue
27.890

@<SCITEGIC>MOL_PROPERTY
U+W
SciTegic.value.DoubleValue
-7.154

@<SCITEGIC>MOL_PROPERTY
U
SciTegic.value.DoubleValue
48.727

@<SCITEGIC>MOL_PROPERTY
W
SciTegic.value.DoubleValue
-55.881

@<SCITEGIC>MOL_PROPERTY
W(PB)
SciTegic.value.DoubleValue
-57.962

@<SCITEGIC>MOL_PROPERTY
W(SA)
SciTegic.value.DoubleValue
2.081

@<SCITEGIC>MOL_PROPERTY
Valence
SciTegic.value.DoubleValue
2.671

@<SCITEGIC>MOL_PROPERTY
Coulomb
SciTegic.value.DoubleValue
45.371

@<SCITEGIC>MOL_PROPERTY
VdW
SciTegic.value.DoubleValue
0.684

@<SCITEGIC>MOL_PROPERTY
VdW6
SciTegic.value.DoubleValue
-6.511

@<SCITEGIC>MOL_PROPERTY
VdW12
SciTegic.value.DoubleValue
7.196

@<SCITEGIC>MOL_PROPERTY
Bond
SciTegic.value.DoubleValue
0.203

@<SCITEGIC>MOL_PROPERTY
Angle
SciTegic.value.DoubleValue
0.915

@<SCITEGIC>MOL_PROPERTY
Pdih
SciTegic.value.DoubleValue
1.554

@<SCITEGIC>MOL_PROPERTY
Idih
SciTegic.value.DoubleValue
0.000

@<SCITEGIC>MOL_PROPERTY
Tether
SciTegic.value.DoubleValue
0.000

@<TRIPOS>MOLECULE
guest-2_vm2.mol2 : vm2 ligand conformer 31
          23          22           1
SMALL
USER_CHARGES
 
@<TRIPOS>ATOM
       1    N1      20.353930   17.878694   24.947013 N.4        1 MOL1        -0.5940
       2    H1      21.193927   17.717329   25.512891 H          1 MOL1         0.3649
       3    H2      20.521452   17.452247   24.030660 H          1 MOL1         0.3649
       4    H3      19.590410   17.357470   25.389659 H          1 MOL1         0.3649
       5    C1      20.031403   19.355071   24.825828 C.3        1 MOL1         0.0207
       6    H4      20.893827   19.854655   24.377099 H          1 MOL1         0.0950
       7    H5      19.898480   19.750925   25.836347 H          1 MOL1         0.0950
       8    C2      18.767342   19.646830   23.991613 C.3        1 MOL1        -0.1415
       9    H6      17.900210   19.179792   24.477151 H          1 MOL1         0.0976
      10    H7      18.578963   20.728583   24.004514 H          1 MOL1         0.0976
      11    C3      18.855930   19.160921   22.523068 C.3        1 MOL1        -0.1375
      12    H8      17.909401   19.398267   22.018233 H          1 MOL1         0.0976
      13    H9      18.946808   18.067538   22.504182 H          1 MOL1         0.0976
      14    C4      20.025739   19.808137   21.739399 C.3        1 MOL1        -0.1375
      15    H10     19.964631   20.900398   21.841863 H          1 MOL1         0.0976
      16    H11     20.987101   19.509382   22.178101 H          1 MOL1         0.0976
      17    C5      20.024386   19.454943   20.232534 C.3        1 MOL1        -0.1350
      18    H12     20.814207   20.033976   19.733797 H          1 MOL1         0.0976
      19    H13     19.076293   19.772799   19.776609 H          1 MOL1         0.0976
      20    C6      20.257270   17.952404   19.954545 C.3        1 MOL1        -0.2365
      21    H14     21.186744   17.603396   20.422744 H          1 MOL1         0.0987
      22    H15     20.336601   17.769612   18.875087 H          1 MOL1         0.0987
      23    H16     19.429722   17.339262   20.332209 H          1 MOL1         0.0987
@<TRIPOS>BOND
    1     1     2    1
    2     1     3    1
    3     1     4    1
    4     1     5    1
    5     5     6    1
    6     5     7    1
    7     5     8    1
    8     8     9    1
    9     8    10    1
   10     8    11    1
   11    11    12    1
   12    11    13    1
   13    11    14    1
   14    14    15    1
   15    14    16    1
   16    14    17    1
   17    17    18    1
   18    17    19    1
   19    17    20    1
   20    20    21    1
   21    20    22    1
   22    20    23    1
@<TRIPOS>SUBSTRUCTURE
       1 MOL1            1 RESIDUE      1      MOL     
@<SCITEGIC>MOL_PROPERTY
VM2 Rank
SciTegic.value.IntegerValue
31

@<SCITEGIC>MOL_PROPERTY
Conf_Id
SciTegic.value.IntegerValue
158

@<SCITEGIC>MOL_PROPERTY
Probability
SciTegic.value.DoubleValue
0.82

@<SCITEGIC>MOL_PROPERTY
Sum Probability
SciTegic.value.DoubleValue
92.55

@<SCITEGIC>MOL_PROPERTY
Delta G
SciTegic.value.DoubleValue
1.602

@<SCITEGIC>MOL_PROPERTY
G
SciTegic.value.DoubleValue
39.518

@<SCITEGIC>MOL_PROPERTY
E
SciTegic.value.DoubleValue
11.589

@<SCITEGIC>MOL_PROPERTY
-TS
SciTegic.value.DoubleValue
27.929

@<SCITEGIC>MOL_PROPERTY
U+W
SciTegic.value.DoubleValue
-7.190

@<SCITEGIC>MOL_PROPERTY
U
SciTegic.value.DoubleValue
48.775

@<SCITEGIC>MOL_PROPERTY
W
SciTegic.value.DoubleValue
-55.965

@<SCITEGIC>MOL_PROPERTY
W(PB)
SciTegic.value.DoubleValue
-58.038

@<SCITEGIC>MOL_PROPERTY
W(SA)
SciTegic.value.DoubleValue
2.073

@<SCITEGIC>MOL_PROPERTY
Valence
SciTegic.value.DoubleValue
2.602

@<SCITEGIC>MOL_PROPERTY
Coulomb
SciTegic.value.DoubleValue
45.581

@<SCITEGIC>MOL_PROPERTY
VdW
SciTegic.value.DoubleValue
0.592

@<SCITEGIC>MOL_PROPERTY
VdW6
SciTegic.value.DoubleValue
-6.616

@<SCITEGIC>MOL_PROPERTY
VdW12
SciTegic.value.DoubleValue
7.208

@<SCITEGIC>MOL_PROPERTY
Bond
SciTegic.value.DoubleValue
0.196

@<SCITEGIC>MOL_PROPERTY
Angle
SciTegic.value.DoubleValue
0.832

@<SCITEGIC>MOL_PROPERTY
Pdih
SciTegic.value.DoubleValue
1.574

@<SCITEGIC>MOL_PROPERTY
Idih
SciTegic.value.DoubleValue
0.000

@<SCITEGIC>MOL_PROPERTY
Tether
SciTegic.value.DoubleValue
0.000

@<TRIPOS>MOLECULE
guest-2_vm2.mol2 : vm2 ligand conformer 32
          23          22           1
SMALL
USER_CHARGES
 
@<TRIPOS>ATOM
       1    N1      18.646418   19.181946   25.277909 N.4        1 MOL1        -0.5940
       2    H1      18.324350   19.886920   25.949563 H          1 MOL1         0.3649
       3    H2      18.489683   18.265065   25.708392 H          1 MOL1         0.3649
       4    H3      18.031857   19.242291   24.460429 H          1 MOL1         0.3649
       5    C1      20.100579   19.385767   24.900854 C.3        1 MOL1         0.0207
       6    H4      20.691500   19.343669   25.819856 H          1 MOL1         0.0950
       7    H5      20.204085   20.388336   24.478201 H          1 MOL1         0.0950
       8    C2      20.634701   18.339078   23.901638 C.3        1 MOL1        -0.1415
       9    H6      21.702310   18.529526   23.729008 H          1 MOL1         0.0976
      10    H7      20.572413   17.342991   24.359606 H          1 MOL1         0.0976
      11    C3      19.892632   18.323180   22.541222 C.3        1 MOL1        -0.1375
      12    H8      18.837845   18.058668   22.693562 H          1 MOL1         0.0976
      13    H9      20.323361   17.520601   21.928675 H          1 MOL1         0.0976
      14    C4      19.991186   19.667950   21.776818 C.3        1 MOL1        -0.1375
      15    H10     19.582614   20.475348   22.398534 H          1 MOL1         0.0976
      16    H11     21.046667   19.917340   21.600943 H          1 MOL1         0.0976
      17    C5      19.229651   19.667652   20.429037 C.3        1 MOL1        -0.1350
      18    H12     19.251934   20.684399   20.012395 H          1 MOL1         0.0976
      19    H13     18.170542   19.429375   20.600033 H          1 MOL1         0.0976
      20    C6      19.820834   18.691427   19.386523 C.3        1 MOL1        -0.2365
      21    H14     19.707184   17.646751   19.701133 H          1 MOL1         0.0987
      22    H15     20.888311   18.887741   19.222326 H          1 MOL1         0.0987
      23    H16     19.307471   18.802294   18.422623 H          1 MOL1         0.0987
@<TRIPOS>BOND
    1     1     2    1
    2     1     3    1
    3     1     4    1
    4     1     5    1
    5     5     6    1
    6     5     7    1
    7     5     8    1
    8     8     9    1
    9     8    10    1
   10     8    11    1
   11    11    12    1
   12    11    13    1
   13    11    14    1
   14    14    15    1
   15    14    16    1
   16    14    17    1
   17    17    18    1
   18    17    19    1
   19    17    20    1
   20    20    21    1
   21    20    22    1
   22    20    23    1
@<TRIPOS>SUBSTRUCTURE
       1 MOL1            1 RESIDUE      1      MOL     
@<SCITEGIC>MOL_PROPERTY
VM2 Rank
SciTegic.value.IntegerValue
32

@<SCITEGIC>MOL_PROPERTY
Conf_Id
SciTegic.value.IntegerValue
824

@<SCITEGIC>MOL_PROPERTY
Probability
SciTegic.value.DoubleValue
0.79

@<SCITEGIC>MOL_PROPERTY
Sum Probability
SciTegic.value.DoubleValue
93.34

@<SCITEGIC>MOL_PROPERTY
Delta G
SciTegic.value.DoubleValue
1.621

@<SCITEGIC>MOL_PROPERTY
G
SciTegic.value.DoubleValue
39.538

@<SCITEGIC>MOL_PROPERTY
E
SciTegic.value.DoubleValue
11.647

@<SCITEGIC>MOL_PROPERTY
-TS
SciTegic.value.DoubleValue
27.891

@<SCITEGIC>MOL_PROPERTY
U+W
SciTegic.value.DoubleValue
-7.132

@<SCITEGIC>MOL_PROPERTY
U
SciTegic.value.DoubleValue
48.727

@<SCITEGIC>MOL_PROPERTY
W
SciTegic.value.DoubleValue
-55.859

@<SCITEGIC>MOL_PROPERTY
W(PB)
SciTegic.value.DoubleValue
-57.939

@<SCITEGIC>MOL_PROPERTY
W(SA)
SciTegic.value.DoubleValue
2.080

@<SCITEGIC>MOL_PROPERTY
Valence
SciTegic.value.DoubleValue
2.672

@<SCITEGIC>MOL_PROPERTY
Coulomb
SciTegic.value.DoubleValue
45.371

@<SCITEGIC>MOL_PROPERTY
VdW
SciTegic.value.DoubleValue
0.684

@<SCITEGIC>MOL_PROPERTY
VdW6
SciTegic.value.DoubleValue
-6.511

@<SCITEGIC>MOL_PROPERTY
VdW12
SciTegic.value.DoubleValue
7.196

@<SCITEGIC>MOL_PROPERTY
Bond
SciTegic.value.DoubleValue
0.203

@<SCITEGIC>MOL_PROPERTY
Angle
SciTegic.value.DoubleValue
0.915

@<SCITEGIC>MOL_PROPERTY
Pdih
SciTegic.value.DoubleValue
1.554

@<SCITEGIC>MOL_PROPERTY
Idih
SciTegic.value.DoubleValue
0.000

@<SCITEGIC>MOL_PROPERTY
Tether
SciTegic.value.DoubleValue
0.000

@<TRIPOS>MOLECULE
guest-2_vm2.mol2 : vm2 ligand conformer 33
          23          22           1
SMALL
USER_CHARGES
 
@<TRIPOS>ATOM
       1    N1      19.951636   18.107806   25.288626 N.4        1 MOL1        -0.5940
       2    H1      20.846723   17.956274   24.813948 H          1 MOL1         0.3649
       3    H2      19.658568   17.204381   25.675533 H          1 MOL1         0.3649
       4    H3      20.131602   18.729381   26.083461 H          1 MOL1         0.3649
       5    C1      18.910463   18.683140   24.348849 C.3        1 MOL1         0.0207
       6    H4      17.978521   18.791440   24.910319 H          1 MOL1         0.0950
       7    H5      18.741210   17.960727   23.546092 H          1 MOL1         0.0950
       8    C2      19.307321   20.046198   23.746890 C.3        1 MOL1        -0.1415
       9    H6      18.471841   20.423747   23.143694 H          1 MOL1         0.0976
      10    H7      19.441027   20.772271   24.559697 H          1 MOL1         0.0976
      11    C3      20.596440   20.003198   22.884727 C.3        1 MOL1        -0.1375
      12    H8      21.458148   19.792494   23.532258 H          1 MOL1         0.0976
      13    H9      20.776761   21.003559   22.467633 H          1 MOL1         0.0976
      14    C4      20.574762   18.969714   21.728765 C.3        1 MOL1        -0.1375
      15    H10     21.543211   19.008985   21.211173 H          1 MOL1         0.0976
      16    H11     20.489795   17.952598   22.133914 H          1 MOL1         0.0976
      17    C5      19.445816   19.216405   20.700406 C.3        1 MOL1        -0.1350
      18    H12     19.506886   20.246511   20.322435 H          1 MOL1         0.0976
      19    H13     18.464699   19.111486   21.182422 H          1 MOL1         0.0976
      20    C6      19.529562   18.230539   19.515738 C.3        1 MOL1        -0.2365
      21    H14     20.483495   18.333830   18.982320 H          1 MOL1         0.0987
      22    H15     18.720577   18.417754   18.797748 H          1 MOL1         0.0987
      23    H16     19.440927   17.191828   19.859871 H          1 MOL1         0.0987
@<TRIPOS>BOND
    1     1     2    1
    2     1     3    1
    3     1     4    1
    4     1     5    1
    5     5     6    1
    6     5     7    1
    7     5     8    1
    8     8     9    1
    9     8    10    1
   10     8    11    1
   11    11    12    1
   12    11    13    1
   13    11    14    1
   14    14    15    1
   15    14    16    1
   16    14    17    1
   17    17    18    1
   18    17    19    1
   19    17    20    1
   20    20    21    1
   21    20    22    1
   22    20    23    1
@<TRIPOS>SUBSTRUCTURE
       1 MOL1            1 RESIDUE      1      MOL     
@<SCITEGIC>MOL_PROPERTY
VM2 Rank
SciTegic.value.IntegerValue
33

@<SCITEGIC>MOL_PROPERTY
Conf_Id
SciTegic.value.IntegerValue
192

@<SCITEGIC>MOL_PROPERTY
Probability
SciTegic.value.DoubleValue
0.77

@<SCITEGIC>MOL_PROPERTY
Sum Probability
SciTegic.value.DoubleValue
94.11

@<SCITEGIC>MOL_PROPERTY
Delta G
SciTegic.value.DoubleValue
1.638

@<SCITEGIC>MOL_PROPERTY
G
SciTegic.value.DoubleValue
39.554

@<SCITEGIC>MOL_PROPERTY
E
SciTegic.value.DoubleValue
11.494

@<SCITEGIC>MOL_PROPERTY
-TS
SciTegic.value.DoubleValue
28.060

@<SCITEGIC>MOL_PROPERTY
U+W
SciTegic.value.DoubleValue
-7.285

@<SCITEGIC>MOL_PROPERTY
U
SciTegic.value.DoubleValue
48.590

@<SCITEGIC>MOL_PROPERTY
W
SciTegic.value.DoubleValue
-55.875

@<SCITEGIC>MOL_PROPERTY
W(PB)
SciTegic.value.DoubleValue
-57.963

@<SCITEGIC>MOL_PROPERTY
W(SA)
SciTegic.value.DoubleValue
2.087

@<SCITEGIC>MOL_PROPERTY
Valence
SciTegic.value.DoubleValue
2.601

@<SCITEGIC>MOL_PROPERTY
Coulomb
SciTegic.value.DoubleValue
45.520

@<SCITEGIC>MOL_PROPERTY
VdW
SciTegic.value.DoubleValue
0.469

@<SCITEGIC>MOL_PROPERTY
VdW6
SciTegic.value.DoubleValue
-6.867

@<SCITEGIC>MOL_PROPERTY
VdW12
SciTegic.value.DoubleValue
7.336

@<SCITEGIC>MOL_PROPERTY
Bond
SciTegic.value.DoubleValue
0.205

@<SCITEGIC>MOL_PROPERTY
Angle
SciTegic.value.DoubleValue
0.962

@<SCITEGIC>MOL_PROPERTY
Pdih
SciTegic.value.DoubleValue
1.434

@<SCITEGIC>MOL_PROPERTY
Idih
SciTegic.value.DoubleValue
0.000

@<SCITEGIC>MOL_PROPERTY
Tether
SciTegic.value.DoubleValue
0.000

@<TRIPOS>MOLECULE
guest-2_vm2.mol2 : vm2 ligand conformer 34
          23          22           1
SMALL
USER_CHARGES
 
@<TRIPOS>ATOM
       1    N1      19.674928   18.605342   25.786634 N.4        1 MOL1        -0.5940
       2    H1      20.578061   19.003780   26.062746 H          1 MOL1         0.3649
       3    H2      19.855851   17.661115   25.432897 H          1 MOL1         0.3649
       4    H3      19.119227   18.503044   26.642594 H          1 MOL1         0.3649
       5    C1      18.969567   19.467186   24.757507 C.3        1 MOL1         0.0207
       6    H4      18.773984   20.439112   25.218676 H          1 MOL1         0.0950
       7    H5      18.008202   19.001134   24.525164 H          1 MOL1         0.0950
       8    C2      19.774183   19.671787   23.459166 C.3        1 MOL1        -0.1415
       9    H6      19.234527   20.397393   22.837868 H          1 MOL1         0.0976
      10    H7      20.746700   20.122494   23.697380 H          1 MOL1         0.0976
      11    C3      19.977643   18.355285   22.668068 C.3        1 MOL1        -0.1375
      12    H8      19.001699   17.919712   22.415709 H          1 MOL1         0.0976
      13    H9      20.480048   17.618857   23.308896 H          1 MOL1         0.0976
      14    C4      20.827614   18.529591   21.382593 C.3        1 MOL1        -0.1375
      15    H10     21.835348   18.865279   21.663650 H          1 MOL1         0.0976
      16    H11     20.959776   17.545309   20.912554 H          1 MOL1         0.0976
      17    C5      20.249780   19.511148   20.330985 C.3        1 MOL1        -0.1350
      18    H12     20.934472   19.545142   19.472044 H          1 MOL1         0.0976
      19    H13     20.226828   20.531846   20.735445 H          1 MOL1         0.0976
      20    C6      18.842284   19.116661   19.829045 C.3        1 MOL1        -0.2365
      21    H14     18.096144   19.183704   20.630557 H          1 MOL1         0.0987
      22    H15     18.836079   18.091184   19.437501 H          1 MOL1         0.0987
      23    H16     18.520302   19.786604   19.021356 H          1 MOL1         0.0987
@<TRIPOS>BOND
    1     1     2    1
    2     1     3    1
    3     1     4    1
    4     1     5    1
    5     5     6    1
    6     5     7    1
    7     5     8    1
    8     8     9    1
    9     8    10    1
   10     8    11    1
   11    11    12    1
   12    11    13    1
   13    11    14    1
   14    14    15    1
   15    14    16    1
   16    14    17    1
   17    17    18    1
   18    17    19    1
   19    17    20    1
   20    20    21    1
   21    20    22    1
   22    20    23    1
@<TRIPOS>SUBSTRUCTURE
       1 MOL1            1 RESIDUE      1      MOL     
@<SCITEGIC>MOL_PROPERTY
VM2 Rank
SciTegic.value.IntegerValue
34

@<SCITEGIC>MOL_PROPERTY
Conf_Id
SciTegic.value.IntegerValue
954

@<SCITEGIC>MOL_PROPERTY
Probability
SciTegic.value.DoubleValue
0.74

@<SCITEGIC>MOL_PROPERTY
Sum Probability
SciTegic.value.DoubleValue
94.85

@<SCITEGIC>MOL_PROPERTY
Delta G
SciTegic.value.DoubleValue
1.663

@<SCITEGIC>MOL_PROPERTY
G
SciTegic.value.DoubleValue
39.579

@<SCITEGIC>MOL_PROPERTY
E
SciTegic.value.DoubleValue
11.540

@<SCITEGIC>MOL_PROPERTY
-TS
SciTegic.value.DoubleValue
28.039

@<SCITEGIC>MOL_PROPERTY
U+W
SciTegic.value.DoubleValue
-7.239

@<SCITEGIC>MOL_PROPERTY
U
SciTegic.value.DoubleValue
48.503

@<SCITEGIC>MOL_PROPERTY
W
SciTegic.value.DoubleValue
-55.741

@<SCITEGIC>MOL_PROPERTY
W(PB)
SciTegic.value.DoubleValue
-57.819

@<SCITEGIC>MOL_PROPERTY
W(SA)
SciTegic.value.DoubleValue
2.078

@<SCITEGIC>MOL_PROPERTY
Valence
SciTegic.value.DoubleValue
2.824

@<SCITEGIC>MOL_PROPERTY
Coulomb
SciTegic.value.DoubleValue
44.990

@<SCITEGIC>MOL_PROPERTY
VdW
SciTegic.value.DoubleValue
0.689

@<SCITEGIC>MOL_PROPERTY
VdW6
SciTegic.value.DoubleValue
-6.667

@<SCITEGIC>MOL_PROPERTY
VdW12
SciTegic.value.DoubleValue
7.356

@<SCITEGIC>MOL_PROPERTY
Bond
SciTegic.value.DoubleValue
0.219

@<SCITEGIC>MOL_PROPERTY
Angle
SciTegic.value.DoubleValue
1.118

@<SCITEGIC>MOL_PROPERTY
Pdih
SciTegic.value.DoubleValue
1.487

@<SCITEGIC>MOL_PROPERTY
Idih
SciTegic.value.DoubleValue
0.000

@<SCITEGIC>MOL_PROPERTY
Tether
SciTegic.value.DoubleValue
0.000

@<TRIPOS>MOLECULE
guest-2_vm2.mol2 : vm2 ligand conformer 35
          23          22           1
SMALL
USER_CHARGES
 
@<TRIPOS>ATOM
       1    N1      19.980172   17.723245   24.930070 N.4        1 MOL1        -0.5940
       2    H1      20.850738   17.881864   25.447300 H          1 MOL1         0.3649
       3    H2      20.235714   17.333391   24.017746 H          1 MOL1         0.3649
       4    H3      19.460879   16.996393   25.433926 H          1 MOL1         0.3649
       5    C1      19.170637   18.997006   24.786618 C.3        1 MOL1         0.0207
       6    H4      18.905254   19.337803   25.791083 H          1 MOL1         0.0950
       7    H5      18.246392   18.753270   24.256448 H          1 MOL1         0.0950
       8    C2      19.916038   20.124707   24.043952 C.3        1 MOL1        -0.1415
       9    H6      19.281356   21.020791   24.036493 H          1 MOL1         0.0976
      10    H7      20.817707   20.393533   24.610092 H          1 MOL1         0.0976
      11    C3      20.311788   19.766553   22.589411 C.3        1 MOL1        -0.1375
      12    H8      21.023660   18.931536   22.598833 H          1 MOL1         0.0976
      13    H9      20.847216   20.620464   22.152074 H          1 MOL1         0.0976
      14    C4      19.093220   19.420043   21.696942 C.3        1 MOL1        -0.1375
      15    H10     18.596079   18.514368   22.069146 H          1 MOL1         0.0976
      16    H11     18.354705   20.230429   21.768629 H          1 MOL1         0.0976
      17    C5      19.461057   19.220612   20.206869 C.3        1 MOL1        -0.1350
      18    H12     19.936745   20.130903   19.815881 H          1 MOL1         0.0976
      19    H13     18.535365   19.085930   19.629988 H          1 MOL1         0.0976
      20    C6      20.383088   18.004834   19.960138 C.3        1 MOL1        -0.2365
      21    H14     19.941538   17.085343   20.365734 H          1 MOL1         0.0987
      22    H15     21.368768   18.146053   20.420464 H          1 MOL1         0.0987
      23    H16     20.540570   17.854693   18.884223 H          1 MOL1         0.0987
@<TRIPOS>BOND
    1     1     2    1
    2     1     3    1
    3     1     4    1
    4     1     5    1
    5     5     6    1
    6     5     7    1
    7     5     8    1
    8     8     9    1
    9     8    10    1
   10     8    11    1
   11    11    12    1
   12    11    13    1
   13    11    14    1
   14    14    15    1
   15    14    16    1
   16    14    17    1
   17    17    18    1
   18    17    19    1
   19    17    20    1
   20    20    21    1
   21    20    22    1
   22    20    23    1
@<TRIPOS>SUBSTRUCTURE
       1 MOL1            1 RESIDUE      1      MOL     
@<SCITEGIC>MOL_PROPERTY
VM2 Rank
SciTegic.value.IntegerValue
35

@<SCITEGIC>MOL_PROPERTY
Conf_Id
SciTegic.value.IntegerValue
700

@<SCITEGIC>MOL_PROPERTY
Probability
SciTegic.value.DoubleValue
0.72

@<SCITEGIC>MOL_PROPERTY
Sum Probability
SciTegic.value.DoubleValue
95.57

@<SCITEGIC>MOL_PROPERTY
Delta G
SciTegic.value.DoubleValue
1.676

@<SCITEGIC>MOL_PROPERTY
G
SciTegic.value.DoubleValue
39.592

@<SCITEGIC>MOL_PROPERTY
E
SciTegic.value.DoubleValue
11.663

@<SCITEGIC>MOL_PROPERTY
-TS
SciTegic.value.DoubleValue
27.929

@<SCITEGIC>MOL_PROPERTY
U+W
SciTegic.value.DoubleValue
-7.116

@<SCITEGIC>MOL_PROPERTY
U
SciTegic.value.DoubleValue
48.775

@<SCITEGIC>MOL_PROPERTY
W
SciTegic.value.DoubleValue
-55.891

@<SCITEGIC>MOL_PROPERTY
W(PB)
SciTegic.value.DoubleValue
-57.964

@<SCITEGIC>MOL_PROPERTY
W(SA)
SciTegic.value.DoubleValue
2.073

@<SCITEGIC>MOL_PROPERTY
Valence
SciTegic.value.DoubleValue
2.602

@<SCITEGIC>MOL_PROPERTY
Coulomb
SciTegic.value.DoubleValue
45.581

@<SCITEGIC>MOL_PROPERTY
VdW
SciTegic.value.DoubleValue
0.592

@<SCITEGIC>MOL_PROPERTY
VdW6
SciTegic.value.DoubleValue
-6.616

@<SCITEGIC>MOL_PROPERTY
VdW12
SciTegic.value.DoubleValue
7.208

@<SCITEGIC>MOL_PROPERTY
Bond
SciTegic.value.DoubleValue
0.196

@<SCITEGIC>MOL_PROPERTY
Angle
SciTegic.value.DoubleValue
0.832

@<SCITEGIC>MOL_PROPERTY
Pdih
SciTegic.value.DoubleValue
1.574

@<SCITEGIC>MOL_PROPERTY
Idih
SciTegic.value.DoubleValue
0.000

@<SCITEGIC>MOL_PROPERTY
Tether
SciTegic.value.DoubleValue
0.000

@<TRIPOS>MOLECULE
guest-2_vm2.mol2 : vm2 ligand conformer 36
          23          22           1
SMALL
USER_CHARGES
 
@<TRIPOS>ATOM
       1    N1      20.211466   17.952986   25.245021 N.4        1 MOL1        -0.5940
       2    H1      21.132922   18.099818   24.822129 H          1 MOL1         0.3649
       3    H2      19.842881   17.072351   24.872019 H          1 MOL1         0.3649
       4    H3      20.361830   17.812464   26.249806 H          1 MOL1         0.3649
       5    C1      19.276475   19.115425   24.973609 C.3        1 MOL1         0.0207
       6    H4      19.714000   20.013695   25.417542 H          1 MOL1         0.0950
       7    H5      18.332286   18.908220   25.484617 H          1 MOL1         0.0950
       8    C2      19.005079   19.356413   23.476119 C.3        1 MOL1        -0.1415
       9    H6      18.566609   18.449767   23.040199 H          1 MOL1         0.0976
      10    H7      18.250344   20.148391   23.382095 H          1 MOL1         0.0976
      11    C3      20.280109   19.767893   22.698633 C.3        1 MOL1        -0.1375
      12    H8      21.015213   18.953280   22.719305 H          1 MOL1         0.0976
      13    H9      20.753029   20.616063   23.212815 H          1 MOL1         0.0976
      14    C4      20.001339   20.181078   21.230334 C.3        1 MOL1        -0.1375
      15    H10     19.356547   21.070697   21.225568 H          1 MOL1         0.0976
      16    H11     20.947028   20.493556   20.766403 H          1 MOL1         0.0976
      17    C5      19.348248   19.086455   20.348186 C.3        1 MOL1        -0.1350
      18    H12     19.197985   19.494651   19.338968 H          1 MOL1         0.0976
      19    H13     18.345934   18.842837   20.725180 H          1 MOL1         0.0976
      20    C6      20.193285   17.796750   20.242098 C.3        1 MOL1        -0.2365
      21    H14     20.271538   17.286468   21.210075 H          1 MOL1         0.0987
      22    H15     21.207845   18.017940   19.886175 H          1 MOL1         0.0987
      23    H16     19.734868   17.093866   19.534525 H          1 MOL1         0.0987
@<TRIPOS>BOND
    1     1     2    1
    2     1     3    1
    3     1     4    1
    4     1     5    1
    5     5     6    1
    6     5     7    1
    7     5     8    1
    8     8     9    1
    9     8    10    1
   10     8    11    1
   11    11    12    1
   12    11    13    1
   13    11    14    1
   14    14    15    1
   15    14    16    1
   16    14    17    1
   17    17    18    1
   18    17    19    1
   19    17    20    1
   20    20    21    1
   21    20    22    1
   22    20    23    1
@<TRIPOS>SUBSTRUCTURE
       1 MOL1            1 RESIDUE      1      MOL     
@<SCITEGIC>MOL_PROPERTY
VM2 Rank
SciTegic.value.IntegerValue
36

@<SCITEGIC>MOL_PROPERTY
Conf_Id
SciTegic.value.IntegerValue
854

@<SCITEGIC>MOL_PROPERTY
Probability
SciTegic.value.DoubleValue
0.69

@<SCITEGIC>MOL_PROPERTY
Sum Probability
SciTegic.value.DoubleValue
96.26

@<SCITEGIC>MOL_PROPERTY
Delta G
SciTegic.value.DoubleValue
1.701

@<SCITEGIC>MOL_PROPERTY
G
SciTegic.value.DoubleValue
39.618

@<SCITEGIC>MOL_PROPERTY
E
SciTegic.value.DoubleValue
11.563

@<SCITEGIC>MOL_PROPERTY
-TS
SciTegic.value.DoubleValue
28.055

@<SCITEGIC>MOL_PROPERTY
U+W
SciTegic.value.DoubleValue
-7.216

@<SCITEGIC>MOL_PROPERTY
U
SciTegic.value.DoubleValue
48.780

@<SCITEGIC>MOL_PROPERTY
W
SciTegic.value.DoubleValue
-55.996

@<SCITEGIC>MOL_PROPERTY
W(PB)
SciTegic.value.DoubleValue
-58.046

@<SCITEGIC>MOL_PROPERTY
W(SA)
SciTegic.value.DoubleValue
2.050

@<SCITEGIC>MOL_PROPERTY
Valence
SciTegic.value.DoubleValue
2.784

@<SCITEGIC>MOL_PROPERTY
Coulomb
SciTegic.value.DoubleValue
45.396

@<SCITEGIC>MOL_PROPERTY
VdW
SciTegic.value.DoubleValue
0.600

@<SCITEGIC>MOL_PROPERTY
VdW6
SciTegic.value.DoubleValue
-6.752

@<SCITEGIC>MOL_PROPERTY
VdW12
SciTegic.value.DoubleValue
7.352

@<SCITEGIC>MOL_PROPERTY
Bond
SciTegic.value.DoubleValue
0.213

@<SCITEGIC>MOL_PROPERTY
Angle
SciTegic.value.DoubleValue
1.043

@<SCITEGIC>MOL_PROPERTY
Pdih
SciTegic.value.DoubleValue
1.528

@<SCITEGIC>MOL_PROPERTY
Idih
SciTegic.value.DoubleValue
0.000

@<SCITEGIC>MOL_PROPERTY
Tether
SciTegic.value.DoubleValue
0.000

@<TRIPOS>MOLECULE
guest-2_vm2.mol2 : vm2 ligand conformer 37
          23          22           1
SMALL
USER_CHARGES
 
@<TRIPOS>ATOM
       1    N1      20.004563   17.866961   25.235666 N.4        1 MOL1        -0.5940
       2    H1      19.920508   17.628970   26.229770 H          1 MOL1         0.3649
       3    H2      20.915789   17.518811   24.921083 H          1 MOL1         0.3649
       4    H3      19.286724   17.331685   24.738005 H          1 MOL1         0.3649
       5    C1      19.858730   19.357732   25.000151 C.3        1 MOL1         0.0207
       6    H4      20.628491   19.863684   25.589249 H          1 MOL1         0.0950
       7    H5      18.881163   19.667244   25.379572 H          1 MOL1         0.0950
       8    C2      19.994713   19.768137   23.521205 C.3        1 MOL1        -0.1415
       9    H6      19.970885   20.864235   23.460429 H          1 MOL1         0.0976
      10    H7      20.978263   19.453159   23.150113 H          1 MOL1         0.0976
      11    C3      18.868797   19.180542   22.634330 C.3        1 MOL1        -0.1375
      12    H8      17.896410   19.427261   23.082684 H          1 MOL1         0.0976
      13    H9      18.928191   18.084746   22.624178 H          1 MOL1         0.0976
      14    C4      18.885649   19.716809   21.179522 C.3        1 MOL1        -0.1375
      15    H10     18.036649   19.282507   20.633830 H          1 MOL1         0.0976
      16    H11     18.708543   20.801041   21.196114 H          1 MOL1         0.0976
      17    C5      20.187515   19.435730   20.386394 C.3        1 MOL1        -0.1350
      18    H12     21.034224   19.961537   20.847607 H          1 MOL1         0.0976
      19    H13     20.082102   19.862622   19.379232 H          1 MOL1         0.0976
      20    C6      20.516033   17.931089   20.256732 C.3        1 MOL1        -0.2365
      21    H14     21.390303   17.782813   19.609803 H          1 MOL1         0.0987
      22    H15     19.674961   17.380103   19.816333 H          1 MOL1         0.0987
      23    H16     20.747515   17.484529   21.231663 H          1 MOL1         0.0987
@<TRIPOS>BOND
    1     1     2    1
    2     1     3    1
    3     1     4    1
    4     1     5    1
    5     5     6    1
    6     5     7    1
    7     5     8    1
    8     8     9    1
    9     8    10    1
   10     8    11    1
   11    11    12    1
   12    11    13    1
   13    11    14    1
   14    14    15    1
   15    14    16    1
   16    14    17    1
   17    17    18    1
   18    17    19    1
   19    17    20    1
   20    20    21    1
   21    20    22    1
   22    20    23    1
@<TRIPOS>SUBSTRUCTURE
       1 MOL1            1 RESIDUE      1      MOL     
@<SCITEGIC>MOL_PROPERTY
VM2 Rank
SciTegic.value.IntegerValue
37

@<SCITEGIC>MOL_PROPERTY
Conf_Id
SciTegic.value.IntegerValue
753

@<SCITEGIC>MOL_PROPERTY
Probability
SciTegic.value.DoubleValue
0.65

@<SCITEGIC>MOL_PROPERTY
Sum Probability
SciTegic.value.DoubleValue
96.91

@<SCITEGIC>MOL_PROPERTY
Delta G
SciTegic.value.DoubleValue
1.739

@<SCITEGIC>MOL_PROPERTY
G
SciTegic.value.DoubleValue
39.656

@<SCITEGIC>MOL_PROPERTY
E
SciTegic.value.DoubleValue
11.601

@<SCITEGIC>MOL_PROPERTY
-TS
SciTegic.value.DoubleValue
28.055

@<SCITEGIC>MOL_PROPERTY
U+W
SciTegic.value.DoubleValue
-7.178

@<SCITEGIC>MOL_PROPERTY
U
SciTegic.value.DoubleValue
48.780

@<SCITEGIC>MOL_PROPERTY
W
SciTegic.value.DoubleValue
-55.958

@<SCITEGIC>MOL_PROPERTY
W(PB)
SciTegic.value.DoubleValue
-58.030

@<SCITEGIC>MOL_PROPERTY
W(SA)
SciTegic.value.DoubleValue
2.071

@<SCITEGIC>MOL_PROPERTY
Valence
SciTegic.value.DoubleValue
2.785

@<SCITEGIC>MOL_PROPERTY
Coulomb
SciTegic.value.DoubleValue
45.396

@<SCITEGIC>MOL_PROPERTY
VdW
SciTegic.value.DoubleValue
0.600

@<SCITEGIC>MOL_PROPERTY
VdW6
SciTegic.value.DoubleValue
-6.752

@<SCITEGIC>MOL_PROPERTY
VdW12
SciTegic.value.DoubleValue
7.352

@<SCITEGIC>MOL_PROPERTY
Bond
SciTegic.value.DoubleValue
0.213

@<SCITEGIC>MOL_PROPERTY
Angle
SciTegic.value.DoubleValue
1.043

@<SCITEGIC>MOL_PROPERTY
Pdih
SciTegic.value.DoubleValue
1.528

@<SCITEGIC>MOL_PROPERTY
Idih
SciTegic.value.DoubleValue
0.000

@<SCITEGIC>MOL_PROPERTY
Tether
SciTegic.value.DoubleValue
0.000

@<TRIPOS>MOLECULE
guest-2_vm2.mol2 : vm2 ligand conformer 38
          23          22           1
SMALL
USER_CHARGES
 
@<TRIPOS>ATOM
       1    N1      19.215280   18.152620   25.591608 N.4        1 MOL1        -0.5940
       2    H1      20.039279   18.169278   26.201143 H          1 MOL1         0.3649
       3    H2      19.120410   17.194923   25.238794 H          1 MOL1         0.3649
       4    H3      18.400335   18.333064   26.187648 H          1 MOL1         0.3649
       5    C1      19.324285   19.161751   24.466707 C.3        1 MOL1         0.0207
       6    H4      19.393076   20.158013   24.911768 H          1 MOL1         0.0950
       7    H5      18.404170   19.110148   23.878778 H          1 MOL1         0.0950
       8    C2      20.539226   18.918090   23.552176 C.3        1 MOL1        -0.1415
       9    H6      21.454467   18.934773   24.158629 H          1 MOL1         0.0976
      10    H7      20.477873   17.913365   23.114914 H          1 MOL1         0.0976
      11    C3      20.664151   19.977731   22.429405 C.3        1 MOL1        -0.1375
      12    H8      21.558159   19.761436   21.829474 H          1 MOL1         0.0976
      13    H9      20.845860   20.959880   22.887312 H          1 MOL1         0.0976
      14    C4      19.427592   20.087785   21.496899 C.3        1 MOL1        -0.1375
      15    H10     18.570359   20.465013   22.070619 H          1 MOL1         0.0976
      16    H11     19.630812   20.852023   20.734135 H          1 MOL1         0.0976
      17    C5      19.016686   18.771864   20.788571 C.3        1 MOL1        -0.1350
      18    H12     18.129292   18.969025   20.171034 H          1 MOL1         0.0976
      19    H13     18.706693   18.022565   21.529228 H          1 MOL1         0.0976
      20    C6      20.128781   18.187159   19.888635 C.3        1 MOL1        -0.2365
      21    H14     20.464114   18.923865   19.147179 H          1 MOL1         0.0987
      22    H15     19.760994   17.307215   19.345243 H          1 MOL1         0.0987
      23    H16     20.998896   17.871925   20.477772 H          1 MOL1         0.0987
@<TRIPOS>BOND
    1     1     2    1
    2     1     3    1
    3     1     4    1
    4     1     5    1
    5     5     6    1
    6     5     7    1
    7     5     8    1
    8     8     9    1
    9     8    10    1
   10     8    11    1
   11    11    12    1
   12    11    13    1
   13    11    14    1
   14    14    15    1
   15    14    16    1
   16    14    17    1
   17    17    18    1
   18    17    19    1
   19    17    20    1
   20    20    21    1
   21    20    22    1
   22    20    23    1
@<TRIPOS>SUBSTRUCTURE
       1 MOL1            1 RESIDUE      1      MOL     
@<SCITEGIC>MOL_PROPERTY
VM2 Rank
SciTegic.value.IntegerValue
38

@<SCITEGIC>MOL_PROPERTY
Conf_Id
SciTegic.value.IntegerValue
245

@<SCITEGIC>MOL_PROPERTY
Probability
SciTegic.value.DoubleValue
0.65

@<SCITEGIC>MOL_PROPERTY
Sum Probability
SciTegic.value.DoubleValue
97.55

@<SCITEGIC>MOL_PROPERTY
Delta G
SciTegic.value.DoubleValue
1.739

@<SCITEGIC>MOL_PROPERTY
G
SciTegic.value.DoubleValue
39.656

@<SCITEGIC>MOL_PROPERTY
E
SciTegic.value.DoubleValue
11.473

@<SCITEGIC>MOL_PROPERTY
-TS
SciTegic.value.DoubleValue
28.183

@<SCITEGIC>MOL_PROPERTY
U+W
SciTegic.value.DoubleValue
-7.306

@<SCITEGIC>MOL_PROPERTY
U
SciTegic.value.DoubleValue
48.641

@<SCITEGIC>MOL_PROPERTY
W
SciTegic.value.DoubleValue
-55.947

@<SCITEGIC>MOL_PROPERTY
W(PB)
SciTegic.value.DoubleValue
-58.031

@<SCITEGIC>MOL_PROPERTY
W(SA)
SciTegic.value.DoubleValue
2.084

@<SCITEGIC>MOL_PROPERTY
Valence
SciTegic.value.DoubleValue
2.922

@<SCITEGIC>MOL_PROPERTY
Coulomb
SciTegic.value.DoubleValue
45.269

@<SCITEGIC>MOL_PROPERTY
VdW
SciTegic.value.DoubleValue
0.450

@<SCITEGIC>MOL_PROPERTY
VdW6
SciTegic.value.DoubleValue
-7.044

@<SCITEGIC>MOL_PROPERTY
VdW12
SciTegic.value.DoubleValue
7.494

@<SCITEGIC>MOL_PROPERTY
Bond
SciTegic.value.DoubleValue
0.220

@<SCITEGIC>MOL_PROPERTY
Angle
SciTegic.value.DoubleValue
1.205

@<SCITEGIC>MOL_PROPERTY
Pdih
SciTegic.value.DoubleValue
1.497

@<SCITEGIC>MOL_PROPERTY
Idih
SciTegic.value.DoubleValue
0.000

@<SCITEGIC>MOL_PROPERTY
Tether
SciTegic.value.DoubleValue
0.000

@<TRIPOS>MOLECULE
guest-2_vm2.mol2 : vm2 ligand conformer 39
          23          22           1
SMALL
USER_CHARGES
 
@<TRIPOS>ATOM
       1    N1      20.535528   18.701962   25.651743 N.4        1 MOL1        -0.5940
       2    H1      20.933507   19.387087   26.303030 H          1 MOL1         0.3649
       3    H2      21.307612   18.104985   25.338424 H          1 MOL1         0.3649
       4    H3      19.898165   18.110580   26.194715 H          1 MOL1         0.3649
       5    C1      19.831658   19.372866   24.489810 C.3        1 MOL1         0.0207
       6    H4      20.559537   20.007000   23.976977 H          1 MOL1         0.0950
       7    H5      19.043386   20.012500   24.895822 H          1 MOL1         0.0950
       8    C2      19.222459   18.370182   23.492154 C.3        1 MOL1        -0.1415
       9    H6      20.010903   17.719063   23.093616 H          1 MOL1         0.0976
      10    H7      18.521286   17.714274   24.024948 H          1 MOL1         0.0976
      11    C3      18.471490   19.065362   22.329472 C.3        1 MOL1        -0.1375
      12    H8      17.612955   19.614650   22.739977 H          1 MOL1         0.0976
      13    H9      18.043768   18.299081   21.669306 H          1 MOL1         0.0976
      14    C4      19.333693   20.048735   21.492608 C.3        1 MOL1        -0.1375
      15    H10     18.709046   20.468464   20.692100 H          1 MOL1         0.0976
      16    H11     19.623651   20.903347   22.118602 H          1 MOL1         0.0976
      17    C5      20.608876   19.434422   20.861142 C.3        1 MOL1        -0.1350
      18    H12     21.299612   19.101598   21.647419 H          1 MOL1         0.0976
      19    H13     21.139894   20.221806   20.308206 H          1 MOL1         0.0976
      20    C6      20.312297   18.263470   19.897071 C.3        1 MOL1        -0.2365
      21    H14     19.612728   18.569480   19.108464 H          1 MOL1         0.0987
      22    H15     19.879260   17.405945   20.426873 H          1 MOL1         0.0987
      23    H16     21.235681   17.920832   19.412506 H          1 MOL1         0.0987
@<TRIPOS>BOND
    1     1     2    1
    2     1     3    1
    3     1     4    1
    4     1     5    1
    5     5     6    1
    6     5     7    1
    7     5     8    1
    8     8     9    1
    9     8    10    1
   10     8    11    1
   11    11    12    1
   12    11    13    1
   13    11    14    1
   14    14    15    1
   15    14    16    1
   16    14    17    1
   17    17    18    1
   18    17    19    1
   19    17    20    1
   20    20    21    1
   21    20    22    1
   22    20    23    1
@<TRIPOS>SUBSTRUCTURE
       1 MOL1            1 RESIDUE      1      MOL     
@<SCITEGIC>MOL_PROPERTY
VM2 Rank
SciTegic.value.IntegerValue
39

@<SCITEGIC>MOL_PROPERTY
Conf_Id
SciTegic.value.IntegerValue
107

@<SCITEGIC>MOL_PROPERTY
Probability
SciTegic.value.DoubleValue
0.59

@<SCITEGIC>MOL_PROPERTY
Sum Probability
SciTegic.value.DoubleValue
98.14

@<SCITEGIC>MOL_PROPERTY
Delta G
SciTegic.value.DoubleValue
1.794

@<SCITEGIC>MOL_PROPERTY
G
SciTegic.value.DoubleValue
39.710

@<SCITEGIC>MOL_PROPERTY
E
SciTegic.value.DoubleValue
11.527

@<SCITEGIC>MOL_PROPERTY
-TS
SciTegic.value.DoubleValue
28.184

@<SCITEGIC>MOL_PROPERTY
U+W
SciTegic.value.DoubleValue
-7.252

@<SCITEGIC>MOL_PROPERTY
U
SciTegic.value.DoubleValue
48.641

@<SCITEGIC>MOL_PROPERTY
W
SciTegic.value.DoubleValue
-55.893

@<SCITEGIC>MOL_PROPERTY
W(PB)
SciTegic.value.DoubleValue
-57.963

@<SCITEGIC>MOL_PROPERTY
W(SA)
SciTegic.value.DoubleValue
2.070

@<SCITEGIC>MOL_PROPERTY
Valence
SciTegic.value.DoubleValue
2.922

@<SCITEGIC>MOL_PROPERTY
Coulomb
SciTegic.value.DoubleValue
45.269

@<SCITEGIC>MOL_PROPERTY
VdW
SciTegic.value.DoubleValue
0.449

@<SCITEGIC>MOL_PROPERTY
VdW6
SciTegic.value.DoubleValue
-7.045

@<SCITEGIC>MOL_PROPERTY
VdW12
SciTegic.value.DoubleValue
7.494

@<SCITEGIC>MOL_PROPERTY
Bond
SciTegic.value.DoubleValue
0.220

@<SCITEGIC>MOL_PROPERTY
Angle
SciTegic.value.DoubleValue
1.205

@<SCITEGIC>MOL_PROPERTY
Pdih
SciTegic.value.DoubleValue
1.497

@<SCITEGIC>MOL_PROPERTY
Idih
SciTegic.value.DoubleValue
0.000

@<SCITEGIC>MOL_PROPERTY
Tether
SciTegic.value.DoubleValue
0.000

@<TRIPOS>MOLECULE
guest-2_vm2.mol2 : vm2 ligand conformer 40
          23          22           1
SMALL
USER_CHARGES
 
@<TRIPOS>ATOM
       1    N1      19.091772   18.920272   25.429471 N.4        1 MOL1        -0.5940
       2    H1      18.516265   18.212512   24.963326 H          1 MOL1         0.3649
       3    H2      18.469347   19.461937   26.038504 H          1 MOL1         0.3649
       4    H3      19.748692   18.423093   26.039180 H          1 MOL1         0.3649
       5    C1      19.810918   19.803736   24.429224 C.3        1 MOL1         0.0207
       6    H4      20.379274   20.549435   24.991699 H          1 MOL1         0.0950
       7    H5      19.057274   20.327718   23.835649 H          1 MOL1         0.0950
       8    C2      20.763656   19.031000   23.495011 C.3        1 MOL1        -0.1415
       9    H6      21.298068   19.749990   22.861020 H          1 MOL1         0.0976
      10    H7      21.533858   18.533224   24.098848 H          1 MOL1         0.0976
      11    C3      20.053690   17.978212   22.604063 C.3        1 MOL1        -0.1375
      12    H8      19.655376   17.176093   23.239634 H          1 MOL1         0.0976
      13    H9      20.800333   17.494537   21.960330 H          1 MOL1         0.0976
      14    C4      18.900808   18.538175   21.727758 C.3        1 MOL1        -0.1375
      15    H10     18.480685   17.715368   21.133093 H          1 MOL1         0.0976
      16    H11     18.083029   18.881585   22.375286 H          1 MOL1         0.0976
      17    C5      19.300506   19.691431   20.772558 C.3        1 MOL1        -0.1350
      18    H12     19.630603   20.565569   21.349598 H          1 MOL1         0.0976
      19    H13     18.406597   20.015063   20.221318 H          1 MOL1         0.0976
      20    C6      20.394649   19.294174   19.755915 C.3        1 MOL1        -0.2365
      21    H14     20.092543   18.412684   19.175712 H          1 MOL1         0.0987
      22    H15     21.344853   19.067861   20.255337 H          1 MOL1         0.0987
      23    H16     20.579403   20.113926   19.049722 H          1 MOL1         0.0987
@<TRIPOS>BOND
    1     1     2    1
    2     1     3    1
    3     1     4    1
    4     1     5    1
    5     5     6    1
    6     5     7    1
    7     5     8    1
    8     8     9    1
    9     8    10    1
   10     8    11    1
   11    11    12    1
   12    11    13    1
   13    11    14    1
   14    14    15    1
   15    14    16    1
   16    14    17    1
   17    17    18    1
   18    17    19    1
   19    17    20    1
   20    20    21    1
   21    20    22    1
   22    20    23    1
@<TRIPOS>SUBSTRUCTURE
       1 MOL1            1 RESIDUE      1      MOL     
@<SCITEGIC>MOL_PROPERTY
VM2 Rank
SciTegic.value.IntegerValue
40

@<SCITEGIC>MOL_PROPERTY
Conf_Id
SciTegic.value.IntegerValue
187

@<SCITEGIC>MOL_PROPERTY
Probability
SciTegic.value.DoubleValue
0.33

@<SCITEGIC>MOL_PROPERTY
Sum Probability
SciTegic.value.DoubleValue
98.47

@<SCITEGIC>MOL_PROPERTY
Delta G
SciTegic.value.DoubleValue
2.147

@<SCITEGIC>MOL_PROPERTY
G
SciTegic.value.DoubleValue
40.064

@<SCITEGIC>MOL_PROPERTY
E
SciTegic.value.DoubleValue
11.688

@<SCITEGIC>MOL_PROPERTY
-TS
SciTegic.value.DoubleValue
28.376

@<SCITEGIC>MOL_PROPERTY
U+W
SciTegic.value.DoubleValue
-7.091

@<SCITEGIC>MOL_PROPERTY
U
SciTegic.value.DoubleValue
48.991

@<SCITEGIC>MOL_PROPERTY
W
SciTegic.value.DoubleValue
-56.082

@<SCITEGIC>MOL_PROPERTY
W(PB)
SciTegic.value.DoubleValue
-58.124

@<SCITEGIC>MOL_PROPERTY
W(SA)
SciTegic.value.DoubleValue
2.041

@<SCITEGIC>MOL_PROPERTY
Valence
SciTegic.value.DoubleValue
3.025

@<SCITEGIC>MOL_PROPERTY
Coulomb
SciTegic.value.DoubleValue
45.510

@<SCITEGIC>MOL_PROPERTY
VdW
SciTegic.value.DoubleValue
0.456

@<SCITEGIC>MOL_PROPERTY
VdW6
SciTegic.value.DoubleValue
-7.728

@<SCITEGIC>MOL_PROPERTY
VdW12
SciTegic.value.DoubleValue
8.183

@<SCITEGIC>MOL_PROPERTY
Bond
SciTegic.value.DoubleValue
0.246

@<SCITEGIC>MOL_PROPERTY
Angle
SciTegic.value.DoubleValue
1.276

@<SCITEGIC>MOL_PROPERTY
Pdih
SciTegic.value.DoubleValue
1.503

@<SCITEGIC>MOL_PROPERTY
Idih
SciTegic.value.DoubleValue
0.000

@<SCITEGIC>MOL_PROPERTY
Tether
SciTegic.value.DoubleValue
0.000

@<TRIPOS>MOLECULE
guest-2_vm2.mol2 : vm2 ligand conformer 41
          23          22           1
SMALL
USER_CHARGES
 
@<TRIPOS>ATOM
       1    N1      20.091428   19.335896   25.474996 N.4        1 MOL1        -0.5940
       2    H1      19.934796   18.500407   26.047621 H          1 MOL1         0.3649
       3    H2      20.097895   20.139028   26.112707 H          1 MOL1         0.3649
       4    H3      21.032598   19.258807   25.077908 H          1 MOL1         0.3649
       5    C1      19.038690   19.482659   24.394077 C.3        1 MOL1         0.0207
       6    H4      19.243044   20.404988   23.844154 H          1 MOL1         0.0950
       7    H5      18.068231   19.588515   24.886498 H          1 MOL1         0.0950
       8    C2      18.988980   18.293159   23.414174 C.3        1 MOL1        -0.1415
       9    H6      18.753576   17.377286   23.972180 H          1 MOL1         0.0976
      10    H7      18.154027   18.442838   22.717797 H          1 MOL1         0.0976
      11    C3      20.301701   18.081331   22.615366 C.3        1 MOL1        -0.1375
      12    H8      20.169599   17.232341   21.931570 H          1 MOL1         0.0976
      13    H9      21.099790   17.776594   23.305430 H          1 MOL1         0.0976
      14    C4      20.782965   19.320723   21.813555 C.3        1 MOL1        -0.1375
      15    H10     21.063928   20.120958   22.511171 H          1 MOL1         0.0976
      16    H11     21.706450   19.056548   21.280144 H          1 MOL1         0.0976
      17    C5      19.760228   19.882566   20.793503 C.3        1 MOL1        -0.1350
      18    H12     20.201663   20.761420   20.303168 H          1 MOL1         0.0976
      19    H13     18.864978   20.247216   21.314669 H          1 MOL1         0.0976
      20    C6      19.352009   18.860665   19.708329 C.3        1 MOL1        -0.2365
      21    H14     20.233058   18.471078   19.182112 H          1 MOL1         0.0987
      22    H15     18.696969   19.331253   18.963812 H          1 MOL1         0.0987
      23    H16     18.806138   18.012350   20.139505 H          1 MOL1         0.0987
@<TRIPOS>BOND
    1     1     2    1
    2     1     3    1
    3     1     4    1
    4     1     5    1
    5     5     6    1
    6     5     7    1
    7     5     8    1
    8     8     9    1
    9     8    10    1
   10     8    11    1
   11    11    12    1
   12    11    13    1
   13    11    14    1
   14    14    15    1
   15    14    16    1
   16    14    17    1
   17    17    18    1
   18    17    19    1
   19    17    20    1
   20    20    21    1
   21    20    22    1
   22    20    23    1
@<TRIPOS>SUBSTRUCTURE
       1 MOL1            1 RESIDUE      1      MOL     
@<SCITEGIC>MOL_PROPERTY
VM2 Rank
SciTegic.value.IntegerValue
41

@<SCITEGIC>MOL_PROPERTY
Conf_Id
SciTegic.value.IntegerValue
106

@<SCITEGIC>MOL_PROPERTY
Probability
SciTegic.value.DoubleValue
0.31

@<SCITEGIC>MOL_PROPERTY
Sum Probability
SciTegic.value.DoubleValue
98.78

@<SCITEGIC>MOL_PROPERTY
Delta G
SciTegic.value.DoubleValue
2.187

@<SCITEGIC>MOL_PROPERTY
G
SciTegic.value.DoubleValue
40.103

@<SCITEGIC>MOL_PROPERTY
E
SciTegic.value.DoubleValue
11.727

@<SCITEGIC>MOL_PROPERTY
-TS
SciTegic.value.DoubleValue
28.376

@<SCITEGIC>MOL_PROPERTY
U+W
SciTegic.value.DoubleValue
-7.052

@<SCITEGIC>MOL_PROPERTY
U
SciTegic.value.DoubleValue
48.991

@<SCITEGIC>MOL_PROPERTY
W
SciTegic.value.DoubleValue
-56.043

@<SCITEGIC>MOL_PROPERTY
W(PB)
SciTegic.value.DoubleValue
-58.100

@<SCITEGIC>MOL_PROPERTY
W(SA)
SciTegic.value.DoubleValue
2.057

@<SCITEGIC>MOL_PROPERTY
Valence
SciTegic.value.DoubleValue
3.025

@<SCITEGIC>MOL_PROPERTY
Coulomb
SciTegic.value.DoubleValue
45.511

@<SCITEGIC>MOL_PROPERTY
VdW
SciTegic.value.DoubleValue
0.456

@<SCITEGIC>MOL_PROPERTY
VdW6
SciTegic.value.DoubleValue
-7.727

@<SCITEGIC>MOL_PROPERTY
VdW12
SciTegic.value.DoubleValue
8.183

@<SCITEGIC>MOL_PROPERTY
Bond
SciTegic.value.DoubleValue
0.246

@<SCITEGIC>MOL_PROPERTY
Angle
SciTegic.value.DoubleValue
1.276

@<SCITEGIC>MOL_PROPERTY
Pdih
SciTegic.value.DoubleValue
1.503

@<SCITEGIC>MOL_PROPERTY
Idih
SciTegic.value.DoubleValue
0.000

@<SCITEGIC>MOL_PROPERTY
Tether
SciTegic.value.DoubleValue
0.000

@<TRIPOS>MOLECULE
guest-2_vm2.mol2 : vm2 ligand conformer 42
          23          22           1
SMALL
USER_CHARGES
 
@<TRIPOS>ATOM
       1    N1      20.633122   18.014505   24.831795 N.4        1 MOL1        -0.5940
       2    H1      21.459805   17.971055   25.437443 H          1 MOL1         0.3649
       3    H2      20.955205   17.871773   23.870782 H          1 MOL1         0.3649
       4    H3      20.043223   17.212459   25.075739 H          1 MOL1         0.3649
       5    C1      19.889590   19.326857   24.989594 C.3        1 MOL1         0.0207
       6    H4      20.580372   20.146868   24.775776 H          1 MOL1         0.0950
       7    H5      19.592340   19.399755   26.039288 H          1 MOL1         0.0950
       8    C2      18.633472   19.455055   24.102704 C.3        1 MOL1        -0.1415
       9    H6      18.071720   18.511513   24.107355 H          1 MOL1         0.0976
      10    H7      17.972975   20.200722   24.564873 H          1 MOL1         0.0976
      11    C3      18.915921   19.908355   22.647323 C.3        1 MOL1        -0.1375
      12    H8      19.421795   20.883762   22.659892 H          1 MOL1         0.0976
      13    H9      17.951076   20.070781   22.147178 H          1 MOL1         0.0976
      14    C4      19.749330   18.905660   21.814341 C.3        1 MOL1        -0.1375
      15    H10     20.768828   18.846459   22.214884 H          1 MOL1         0.0976
      16    H11     19.306778   17.902830   21.891048 H          1 MOL1         0.0976
      17    C5      19.825708   19.319919   20.327983 C.3        1 MOL1        -0.1350
      18    H12     20.261255   20.325623   20.244962 H          1 MOL1         0.0976
      19    H13     18.812777   19.377434   19.905337 H          1 MOL1         0.0976
      20    C6      20.668856   18.326648   19.500259 C.3        1 MOL1        -0.2365
      21    H14     20.710029   18.636465   18.447945 H          1 MOL1         0.0987
      22    H15     20.238941   17.317181   19.537392 H          1 MOL1         0.0987
      23    H16     21.698995   18.273783   19.876033 H          1 MOL1         0.0987
@<TRIPOS>BOND
    1     1     2    1
    2     1     3    1
    3     1     4    1
    4     1     5    1
    5     5     6    1
    6     5     7    1
    7     5     8    1
    8     8     9    1
    9     8    10    1
   10     8    11    1
   11    11    12    1
   12    11    13    1
   13    11    14    1
   14    14    15    1
   15    14    16    1
   16    14    17    1
   17    17    18    1
   18    17    19    1
   19    17    20    1
   20    20    21    1
   21    20    22    1
   22    20    23    1
@<TRIPOS>SUBSTRUCTURE
       1 MOL1            1 RESIDUE      1      MOL     
@<SCITEGIC>MOL_PROPERTY
VM2 Rank
SciTegic.value.IntegerValue
42

@<SCITEGIC>MOL_PROPERTY
Conf_Id
SciTegic.value.IntegerValue
734

@<SCITEGIC>MOL_PROPERTY
Probability
SciTegic.value.DoubleValue
0.11

@<SCITEGIC>MOL_PROPERTY
Sum Probability
SciTegic.value.DoubleValue
98.88

@<SCITEGIC>MOL_PROPERTY
Delta G
SciTegic.value.DoubleValue
2.812

@<SCITEGIC>MOL_PROPERTY
G
SciTegic.value.DoubleValue
40.728

@<SCITEGIC>MOL_PROPERTY
E
SciTegic.value.DoubleValue
13.063

@<SCITEGIC>MOL_PROPERTY
-TS
SciTegic.value.DoubleValue
27.665

@<SCITEGIC>MOL_PROPERTY
U+W
SciTegic.value.DoubleValue
-5.716

@<SCITEGIC>MOL_PROPERTY
U
SciTegic.value.DoubleValue
50.170

@<SCITEGIC>MOL_PROPERTY
W
SciTegic.value.DoubleValue
-55.886

@<SCITEGIC>MOL_PROPERTY
W(PB)
SciTegic.value.DoubleValue
-57.990

@<SCITEGIC>MOL_PROPERTY
W(SA)
SciTegic.value.DoubleValue
2.104

@<SCITEGIC>MOL_PROPERTY
Valence
SciTegic.value.DoubleValue
3.335

@<SCITEGIC>MOL_PROPERTY
Coulomb
SciTegic.value.DoubleValue
46.425

@<SCITEGIC>MOL_PROPERTY
VdW
SciTegic.value.DoubleValue
0.410

@<SCITEGIC>MOL_PROPERTY
VdW6
SciTegic.value.DoubleValue
-6.121

@<SCITEGIC>MOL_PROPERTY
VdW12
SciTegic.value.DoubleValue
6.530

@<SCITEGIC>MOL_PROPERTY
Bond
SciTegic.value.DoubleValue
0.172

@<SCITEGIC>MOL_PROPERTY
Angle
SciTegic.value.DoubleValue
0.958

@<SCITEGIC>MOL_PROPERTY
Pdih
SciTegic.value.DoubleValue
2.205

@<SCITEGIC>MOL_PROPERTY
Idih
SciTegic.value.DoubleValue
0.000

@<SCITEGIC>MOL_PROPERTY
Tether
SciTegic.value.DoubleValue
0.000

@<TRIPOS>MOLECULE
guest-2_vm2.mol2 : vm2 ligand conformer 43
          23          22           1
SMALL
USER_CHARGES
 
@<TRIPOS>ATOM
       1    N1      19.697128   17.625033   24.789104 N.4        1 MOL1        -0.5940
       2    H1      19.100553   16.989405   25.329637 H          1 MOL1         0.3649
       3    H2      20.660034   17.469207   25.104222 H          1 MOL1         0.3649
       4    H3      19.647121   17.327316   23.811084 H          1 MOL1         0.3649
       5    C1      19.277257   19.072097   24.961510 C.3        1 MOL1         0.0207
       6    H4      19.352478   19.300147   26.028218 H          1 MOL1         0.0950
       7    H5      18.228461   19.168169   24.668060 H          1 MOL1         0.0950
       8    C2      20.137039   20.080649   24.171295 C.3        1 MOL1        -0.1415
       9    H6      20.036681   21.059374   24.659046 H          1 MOL1         0.0976
      10    H7      21.199037   19.812687   24.250139 H          1 MOL1         0.0976
      11    C3      19.731005   20.247474   22.684452 C.3        1 MOL1        -0.1375
      12    H8      20.332274   21.061195   22.255748 H          1 MOL1         0.0976
      13    H9      18.684416   20.577217   22.626094 H          1 MOL1         0.0976
      14    C4      19.920409   18.976867   21.822183 C.3        1 MOL1        -0.1375
      15    H10     20.935047   18.580120   21.965382 H          1 MOL1         0.0976
      16    H11     19.215502   18.200482   22.144133 H          1 MOL1         0.0976
      17    C5      19.688913   19.262969   20.321762 C.3        1 MOL1        -0.1350
      18    H12     20.392181   20.034157   19.977305 H          1 MOL1         0.0976
      19    H13     18.677683   19.666999   20.172737 H          1 MOL1         0.0976
      20    C6      19.864250   17.991910   19.463694 C.3        1 MOL1        -0.2365
      21    H14     19.149237   17.213342   19.759958 H          1 MOL1         0.0987
      22    H15     20.877745   17.582702   19.566678 H          1 MOL1         0.0987
      23    H16     19.697714   18.215259   18.401890 H          1 MOL1         0.0987
@<TRIPOS>BOND
    1     1     2    1
    2     1     3    1
    3     1     4    1
    4     1     5    1
    5     5     6    1
    6     5     7    1
    7     5     8    1
    8     8     9    1
    9     8    10    1
   10     8    11    1
   11    11    12    1
   12    11    13    1
   13    11    14    1
   14    14    15    1
   15    14    16    1
   16    14    17    1
   17    17    18    1
   18    17    19    1
   19    17    20    1
   20    20    21    1
   21    20    22    1
   22    20    23    1
@<TRIPOS>SUBSTRUCTURE
       1 MOL1            1 RESIDUE      1      MOL     
@<SCITEGIC>MOL_PROPERTY
VM2 Rank
SciTegic.value.IntegerValue
43

@<SCITEGIC>MOL_PROPERTY
Conf_Id
SciTegic.value.IntegerValue
671

@<SCITEGIC>MOL_PROPERTY
Probability
SciTegic.value.DoubleValue
0.11

@<SCITEGIC>MOL_PROPERTY
Sum Probability
SciTegic.value.DoubleValue
98.99

@<SCITEGIC>MOL_PROPERTY
Delta G
SciTegic.value.DoubleValue
2.817

@<SCITEGIC>MOL_PROPERTY
G
SciTegic.value.DoubleValue
40.734

@<SCITEGIC>MOL_PROPERTY
E
SciTegic.value.DoubleValue
13.068

@<SCITEGIC>MOL_PROPERTY
-TS
SciTegic.value.DoubleValue
27.666

@<SCITEGIC>MOL_PROPERTY
U+W
SciTegic.value.DoubleValue
-5.711

@<SCITEGIC>MOL_PROPERTY
U
SciTegic.value.DoubleValue
50.170

@<SCITEGIC>MOL_PROPERTY
W
SciTegic.value.DoubleValue
-55.881

@<SCITEGIC>MOL_PROPERTY
W(PB)
SciTegic.value.DoubleValue
-57.975

@<SCITEGIC>MOL_PROPERTY
W(SA)
SciTegic.value.DoubleValue
2.094

@<SCITEGIC>MOL_PROPERTY
Valence
SciTegic.value.DoubleValue
3.335

@<SCITEGIC>MOL_PROPERTY
Coulomb
SciTegic.value.DoubleValue
46.425

@<SCITEGIC>MOL_PROPERTY
VdW
SciTegic.value.DoubleValue
0.410

@<SCITEGIC>MOL_PROPERTY
VdW6
SciTegic.value.DoubleValue
-6.121

@<SCITEGIC>MOL_PROPERTY
VdW12
SciTegic.value.DoubleValue
6.531

@<SCITEGIC>MOL_PROPERTY
Bond
SciTegic.value.DoubleValue
0.172

@<SCITEGIC>MOL_PROPERTY
Angle
SciTegic.value.DoubleValue
0.958

@<SCITEGIC>MOL_PROPERTY
Pdih
SciTegic.value.DoubleValue
2.206

@<SCITEGIC>MOL_PROPERTY
Idih
SciTegic.value.DoubleValue
0.000

@<SCITEGIC>MOL_PROPERTY
Tether
SciTegic.value.DoubleValue
0.000

@<TRIPOS>MOLECULE
guest-2_vm2.mol2 : vm2 ligand conformer 44
          23          22           1
SMALL
USER_CHARGES
 
@<TRIPOS>ATOM
       1    N1      20.693161   18.841430   25.643389 N.4        1 MOL1        -0.5940
       2    H1      21.666903   19.107312   25.825364 H          1 MOL1         0.3649
       3    H2      20.624392   17.831840   25.807165 H          1 MOL1         0.3649
       4    H3      20.120378   19.302314   26.357756 H          1 MOL1         0.3649
       5    C1      20.259085   19.217677   24.241307 C.3        1 MOL1         0.0207
       6    H4      20.928922   18.714625   23.539747 H          1 MOL1         0.0950
       7    H5      20.383062   20.297970   24.127411 H          1 MOL1         0.0950
       8    C2      18.802292   18.827083   23.935696 C.3        1 MOL1        -0.1415
       9    H6      18.694559   17.736581   24.007027 H          1 MOL1         0.0976
      10    H7      18.151035   19.254305   24.709844 H          1 MOL1         0.0976
      11    C3      18.301437   19.307900   22.550255 C.3        1 MOL1        -0.1375
      12    H8      18.333825   20.404836   22.495093 H          1 MOL1         0.0976
      13    H9      17.239078   19.038202   22.471597 H          1 MOL1         0.0976
      14    C4      19.046229   18.686432   21.339675 C.3        1 MOL1        -0.1375
      15    H10     19.344508   17.654232   21.569551 H          1 MOL1         0.0976
      16    H11     18.339962   18.617458   20.500623 H          1 MOL1         0.0976
      17    C5      20.270226   19.508704   20.867935 C.3        1 MOL1        -0.1350
      18    H12     21.011571   19.600716   21.670104 H          1 MOL1         0.0976
      19    H13     19.953047   20.530245   20.615677 H          1 MOL1         0.0976
      20    C6      20.943570   18.867775   19.635743 C.3        1 MOL1        -0.2365
      21    H14     21.805374   19.464865   19.310434 H          1 MOL1         0.0987
      22    H15     20.243409   18.800505   18.792845 H          1 MOL1         0.0987
      23    H16     21.302067   17.855552   19.864014 H          1 MOL1         0.0987
@<TRIPOS>BOND
    1     1     2    1
    2     1     3    1
    3     1     4    1
    4     1     5    1
    5     5     6    1
    6     5     7    1
    7     5     8    1
    8     8     9    1
    9     8    10    1
   10     8    11    1
   11    11    12    1
   12    11    13    1
   13    11    14    1
   14    14    15    1
   15    14    16    1
   16    14    17    1
   17    17    18    1
   18    17    19    1
   19    17    20    1
   20    20    21    1
   21    20    22    1
   22    20    23    1
@<TRIPOS>SUBSTRUCTURE
       1 MOL1            1 RESIDUE      1      MOL     
@<SCITEGIC>MOL_PROPERTY
VM2 Rank
SciTegic.value.IntegerValue
44

@<SCITEGIC>MOL_PROPERTY
Conf_Id
SciTegic.value.IntegerValue
343

@<SCITEGIC>MOL_PROPERTY
Probability
SciTegic.value.DoubleValue
0.10

@<SCITEGIC>MOL_PROPERTY
Sum Probability
SciTegic.value.DoubleValue
99.09

@<SCITEGIC>MOL_PROPERTY
Delta G
SciTegic.value.DoubleValue
2.836

@<SCITEGIC>MOL_PROPERTY
G
SciTegic.value.DoubleValue
40.753

@<SCITEGIC>MOL_PROPERTY
E
SciTegic.value.DoubleValue
13.107

@<SCITEGIC>MOL_PROPERTY
-TS
SciTegic.value.DoubleValue
27.646

@<SCITEGIC>MOL_PROPERTY
U+W
SciTegic.value.DoubleValue
-5.672

@<SCITEGIC>MOL_PROPERTY
U
SciTegic.value.DoubleValue
50.133

@<SCITEGIC>MOL_PROPERTY
W
SciTegic.value.DoubleValue
-55.805

@<SCITEGIC>MOL_PROPERTY
W(PB)
SciTegic.value.DoubleValue
-57.921

@<SCITEGIC>MOL_PROPERTY
W(SA)
SciTegic.value.DoubleValue
2.116

@<SCITEGIC>MOL_PROPERTY
Valence
SciTegic.value.DoubleValue
4.276

@<SCITEGIC>MOL_PROPERTY
Coulomb
SciTegic.value.DoubleValue
45.339

@<SCITEGIC>MOL_PROPERTY
VdW
SciTegic.value.DoubleValue
0.519

@<SCITEGIC>MOL_PROPERTY
VdW6
SciTegic.value.DoubleValue
-6.084

@<SCITEGIC>MOL_PROPERTY
VdW12
SciTegic.value.DoubleValue
6.602

@<SCITEGIC>MOL_PROPERTY
Bond
SciTegic.value.DoubleValue
0.193

@<SCITEGIC>MOL_PROPERTY
Angle
SciTegic.value.DoubleValue
1.128

@<SCITEGIC>MOL_PROPERTY
Pdih
SciTegic.value.DoubleValue
2.955

@<SCITEGIC>MOL_PROPERTY
Idih
SciTegic.value.DoubleValue
0.000

@<SCITEGIC>MOL_PROPERTY
Tether
SciTegic.value.DoubleValue
0.000

@<TRIPOS>MOLECULE
guest-2_vm2.mol2 : vm2 ligand conformer 45
          23          22           1
SMALL
USER_CHARGES
 
@<TRIPOS>ATOM
       1    N1      19.006541   18.139411   25.566308 N.4        1 MOL1        -0.5940
       2    H1      19.026632   18.846951   26.307792 H          1 MOL1         0.3649
       3    H2      19.757087   17.470775   25.767372 H          1 MOL1         0.3649
       4    H3      18.120821   17.631421   25.663419 H          1 MOL1         0.3649
       5    C1      19.153502   18.757616   24.190794 C.3        1 MOL1         0.0207
       6    H4      18.310247   19.435365   24.032825 H          1 MOL1         0.0950
       7    H5      19.094224   17.951173   23.455901 H          1 MOL1         0.0950
       8    C2      20.476083   19.523797   24.012031 C.3        1 MOL1        -0.1415
       9    H6      20.570311   20.261410   24.820121 H          1 MOL1         0.0976
      10    H7      21.318468   18.828750   24.126854 H          1 MOL1         0.0976
      11    C3      20.594679   20.262197   22.654759 C.3        1 MOL1        -0.1375
      12    H8      21.537366   20.826740   22.667466 H          1 MOL1         0.0976
      13    H9      19.799499   21.014795   22.561764 H          1 MOL1         0.0976
      14    C4      20.605935   19.335359   21.410857 C.3        1 MOL1        -0.1375
      15    H10     21.215752   19.813667   20.631804 H          1 MOL1         0.0976
      16    H11     21.109437   18.388572   21.650296 H          1 MOL1         0.0976
      17    C5      19.201246   19.064090   20.819162 C.3        1 MOL1        -0.1350
      18    H12     18.720388   20.017451   20.559043 H          1 MOL1         0.0976
      19    H13     18.553299   18.578592   21.558074 H          1 MOL1         0.0976
      20    C6      19.278015   18.174531   19.560089 C.3        1 MOL1        -0.2365
      21    H14     19.725182   17.199281   19.792792 H          1 MOL1         0.0987
      22    H15     19.882641   18.649658   18.776566 H          1 MOL1         0.0987
      23    H16     18.275605   17.996071   19.149758 H          1 MOL1         0.0987
@<TRIPOS>BOND
    1     1     2    1
    2     1     3    1
    3     1     4    1
    4     1     5    1
    5     5     6    1
    6     5     7    1
    7     5     8    1
    8     8     9    1
    9     8    10    1
   10     8    11    1
   11    11    12    1
   12    11    13    1
   13    11    14    1
   14    14    15    1
   15    14    16    1
   16    14    17    1
   17    17    18    1
   18    17    19    1
   19    17    20    1
   20    20    21    1
   21    20    22    1
   22    20    23    1
@<TRIPOS>SUBSTRUCTURE
       1 MOL1            1 RESIDUE      1      MOL     
@<SCITEGIC>MOL_PROPERTY
VM2 Rank
SciTegic.value.IntegerValue
45

@<SCITEGIC>MOL_PROPERTY
Conf_Id
SciTegic.value.IntegerValue
861

@<SCITEGIC>MOL_PROPERTY
Probability
SciTegic.value.DoubleValue
0.10

@<SCITEGIC>MOL_PROPERTY
Sum Probability
SciTegic.value.DoubleValue
99.19

@<SCITEGIC>MOL_PROPERTY
Delta G
SciTegic.value.DoubleValue
2.882

@<SCITEGIC>MOL_PROPERTY
G
SciTegic.value.DoubleValue
40.799

@<SCITEGIC>MOL_PROPERTY
E
SciTegic.value.DoubleValue
13.152

@<SCITEGIC>MOL_PROPERTY
-TS
SciTegic.value.DoubleValue
27.646

@<SCITEGIC>MOL_PROPERTY
U+W
SciTegic.value.DoubleValue
-5.627

@<SCITEGIC>MOL_PROPERTY
U
SciTegic.value.DoubleValue
50.134

@<SCITEGIC>MOL_PROPERTY
W
SciTegic.value.DoubleValue
-55.760

@<SCITEGIC>MOL_PROPERTY
W(PB)
SciTegic.value.DoubleValue
-57.887

@<SCITEGIC>MOL_PROPERTY
W(SA)
SciTegic.value.DoubleValue
2.126

@<SCITEGIC>MOL_PROPERTY
Valence
SciTegic.value.DoubleValue
4.276

@<SCITEGIC>MOL_PROPERTY
Coulomb
SciTegic.value.DoubleValue
45.339

@<SCITEGIC>MOL_PROPERTY
VdW
SciTegic.value.DoubleValue
0.519

@<SCITEGIC>MOL_PROPERTY
VdW6
SciTegic.value.DoubleValue
-6.084

@<SCITEGIC>MOL_PROPERTY
VdW12
SciTegic.value.DoubleValue
6.603

@<SCITEGIC>MOL_PROPERTY
Bond
SciTegic.value.DoubleValue
0.193

@<SCITEGIC>MOL_PROPERTY
Angle
SciTegic.value.DoubleValue
1.127

@<SCITEGIC>MOL_PROPERTY
Pdih
SciTegic.value.DoubleValue
2.955

@<SCITEGIC>MOL_PROPERTY
Idih
SciTegic.value.DoubleValue
0.000

@<SCITEGIC>MOL_PROPERTY
Tether
SciTegic.value.DoubleValue
0.000

@<TRIPOS>MOLECULE
guest-2_vm2.mol2 : vm2 ligand conformer 46
          23          22           1
SMALL
USER_CHARGES
 
@<TRIPOS>ATOM
       1    N1      20.062477   17.854567   24.996745 N.4        1 MOL1        -0.5940
       2    H1      19.163973   17.558717   25.391563 H          1 MOL1         0.3649
       3    H2      20.794929   17.477077   25.607544 H          1 MOL1         0.3649
       4    H3      20.160319   17.393778   24.088097 H          1 MOL1         0.3649
       5    C1      20.153606   19.363483   24.876914 C.3        1 MOL1         0.0207
       6    H4      21.148443   19.623669   24.505546 H          1 MOL1         0.0950
       7    H5      20.052540   19.769709   25.887006 H          1 MOL1         0.0950
       8    C2      19.075177   19.995423   23.972198 C.3        1 MOL1        -0.1415
       9    H6      18.097214   19.540144   24.177445 H          1 MOL1         0.0976
      10    H7      18.980255   21.052348   24.254606 H          1 MOL1         0.0976
      11    C3      19.392251   19.935722   22.455911 C.3        1 MOL1        -0.1375
      12    H8      20.349049   20.441408   22.268927 H          1 MOL1         0.0976
      13    H9      18.627460   20.517597   21.923240 H          1 MOL1         0.0976
      14    C4      19.431490   18.503299   21.867251 C.3        1 MOL1        -0.1375
      15    H10     20.310182   17.966520   22.245801 H          1 MOL1         0.0976
      16    H11     18.545836   17.947954   22.205583 H          1 MOL1         0.0976
      17    C5      19.464234   18.479911   20.319998 C.3        1 MOL1        -0.1350
      18    H12     18.573368   18.985106   19.921307 H          1 MOL1         0.0976
      19    H13     19.402838   17.436417   19.980592 H          1 MOL1         0.0976
      20    C6      20.736766   19.124595   19.724983 C.3        1 MOL1        -0.2365
      21    H14     20.784270   20.198511   19.944373 H          1 MOL1         0.0987
      22    H15     20.751427   19.009672   18.633425 H          1 MOL1         0.0987
      23    H16     21.643114   18.651335   20.124423 H          1 MOL1         0.0987
@<TRIPOS>BOND
    1     1     2    1
    2     1     3    1
    3     1     4    1
    4     1     5    1
    5     5     6    1
    6     5     7    1
    7     5     8    1
    8     8     9    1
    9     8    10    1
   10     8    11    1
   11    11    12    1
   12    11    13    1
   13    11    14    1
   14    14    15    1
   15    14    16    1
   16    14    17    1
   17    17    18    1
   18    17    19    1
   19    17    20    1
   20    20    21    1
   21    20    22    1
   22    20    23    1
@<TRIPOS>SUBSTRUCTURE
       1 MOL1            1 RESIDUE      1      MOL     
@<SCITEGIC>MOL_PROPERTY
VM2 Rank
SciTegic.value.IntegerValue
46

@<SCITEGIC>MOL_PROPERTY
Conf_Id
SciTegic.value.IntegerValue
868

@<SCITEGIC>MOL_PROPERTY
Probability
SciTegic.value.DoubleValue
0.05

@<SCITEGIC>MOL_PROPERTY
Sum Probability
SciTegic.value.DoubleValue
99.24

@<SCITEGIC>MOL_PROPERTY
Delta G
SciTegic.value.DoubleValue
3.293

@<SCITEGIC>MOL_PROPERTY
G
SciTegic.value.DoubleValue
41.209

@<SCITEGIC>MOL_PROPERTY
E
SciTegic.value.DoubleValue
13.408

@<SCITEGIC>MOL_PROPERTY
-TS
SciTegic.value.DoubleValue
27.801

@<SCITEGIC>MOL_PROPERTY
U+W
SciTegic.value.DoubleValue
-5.371

@<SCITEGIC>MOL_PROPERTY
U
SciTegic.value.DoubleValue
50.658

@<SCITEGIC>MOL_PROPERTY
W
SciTegic.value.DoubleValue
-56.029

@<SCITEGIC>MOL_PROPERTY
W(PB)
SciTegic.value.DoubleValue
-58.111

@<SCITEGIC>MOL_PROPERTY
W(SA)
SciTegic.value.DoubleValue
2.082

@<SCITEGIC>MOL_PROPERTY
Valence
SciTegic.value.DoubleValue
3.782

@<SCITEGIC>MOL_PROPERTY
Coulomb
SciTegic.value.DoubleValue
46.354

@<SCITEGIC>MOL_PROPERTY
VdW
SciTegic.value.DoubleValue
0.522

@<SCITEGIC>MOL_PROPERTY
VdW6
SciTegic.value.DoubleValue
-6.754

@<SCITEGIC>MOL_PROPERTY
VdW12
SciTegic.value.DoubleValue
7.276

@<SCITEGIC>MOL_PROPERTY
Bond
SciTegic.value.DoubleValue
0.207

@<SCITEGIC>MOL_PROPERTY
Angle
SciTegic.value.DoubleValue
1.136

@<SCITEGIC>MOL_PROPERTY
Pdih
SciTegic.value.DoubleValue
2.439

@<SCITEGIC>MOL_PROPERTY
Idih
SciTegic.value.DoubleValue
0.000

@<SCITEGIC>MOL_PROPERTY
Tether
SciTegic.value.DoubleValue
0.000

@<TRIPOS>MOLECULE
guest-2_vm2.mol2 : vm2 ligand conformer 47
          23          22           1
SMALL
USER_CHARGES
 
@<TRIPOS>ATOM
       1    N1      20.368528   18.357325   25.866531 N.4        1 MOL1        -0.5940
       2    H1      20.598593   18.800528   26.762466 H          1 MOL1         0.3649
       3    H2      21.212392   17.868500   25.550756 H          1 MOL1         0.3649
       4    H3      19.660523   17.642080   26.061462 H          1 MOL1         0.3649
       5    C1      19.885074   19.368280   24.846612 C.3        1 MOL1         0.0207
       6    H4      20.673563   20.113317   24.709931 H          1 MOL1         0.0950
       7    H5      19.005877   19.870191   25.259616 H          1 MOL1         0.0950
       8    C2      19.530249   18.735148   23.489571 C.3        1 MOL1        -0.1415
       9    H6      20.409263   18.213478   23.094785 H          1 MOL1         0.0976
      10    H7      18.750302   17.976264   23.636663 H          1 MOL1         0.0976
      11    C3      19.031271   19.800761   22.484212 C.3        1 MOL1        -0.1375
      12    H8      19.778056   20.598629   22.369464 H          1 MOL1         0.0976
      13    H9      18.138744   20.279904   22.910320 H          1 MOL1         0.0976
      14    C4      18.658991   19.216152   21.096459 C.3        1 MOL1        -0.1375
      15    H10     18.307681   18.180312   21.200258 H          1 MOL1         0.0976
      16    H11     17.801057   19.781284   20.706508 H          1 MOL1         0.0976
      17    C5      19.787067   19.292463   20.035903 C.3        1 MOL1        -0.1350
      18    H12     20.059761   20.342926   19.862869 H          1 MOL1         0.0976
      19    H13     19.392164   18.919947   19.080335 H          1 MOL1         0.0976
      20    C6      21.054820   18.486872   20.394710 C.3        1 MOL1        -0.2365
      21    H14     21.581516   18.931822   21.247789 H          1 MOL1         0.0987
      22    H15     21.754014   18.475715   19.548603 H          1 MOL1         0.0987
      23    H16     20.807194   17.445853   20.639273 H          1 MOL1         0.0987
@<TRIPOS>BOND
    1     1     2    1
    2     1     3    1
    3     1     4    1
    4     1     5    1
    5     5     6    1
    6     5     7    1
    7     5     8    1
    8     8     9    1
    9     8    10    1
   10     8    11    1
   11    11    12    1
   12    11    13    1
   13    11    14    1
   14    14    15    1
   15    14    16    1
   16    14    17    1
   17    17    18    1
   18    17    19    1
   19    17    20    1
   20    20    21    1
   21    20    22    1
   22    20    23    1
@<TRIPOS>SUBSTRUCTURE
       1 MOL1            1 RESIDUE      1      MOL     
@<SCITEGIC>MOL_PROPERTY
VM2 Rank
SciTegic.value.IntegerValue
47

@<SCITEGIC>MOL_PROPERTY
Conf_Id
SciTegic.value.IntegerValue
462

@<SCITEGIC>MOL_PROPERTY
Probability
SciTegic.value.DoubleValue
0.05

@<SCITEGIC>MOL_PROPERTY
Sum Probability
SciTegic.value.DoubleValue
99.28

@<SCITEGIC>MOL_PROPERTY
Delta G
SciTegic.value.DoubleValue
3.302

@<SCITEGIC>MOL_PROPERTY
G
SciTegic.value.DoubleValue
41.218

@<SCITEGIC>MOL_PROPERTY
E
SciTegic.value.DoubleValue
13.357

@<SCITEGIC>MOL_PROPERTY
-TS
SciTegic.value.DoubleValue
27.861

@<SCITEGIC>MOL_PROPERTY
U+W
SciTegic.value.DoubleValue
-5.422

@<SCITEGIC>MOL_PROPERTY
U
SciTegic.value.DoubleValue
50.253

@<SCITEGIC>MOL_PROPERTY
W
SciTegic.value.DoubleValue
-55.675

@<SCITEGIC>MOL_PROPERTY
W(PB)
SciTegic.value.DoubleValue
-57.772

@<SCITEGIC>MOL_PROPERTY
W(SA)
SciTegic.value.DoubleValue
2.097

@<SCITEGIC>MOL_PROPERTY
Valence
SciTegic.value.DoubleValue
4.702

@<SCITEGIC>MOL_PROPERTY
Coulomb
SciTegic.value.DoubleValue
44.992

@<SCITEGIC>MOL_PROPERTY
VdW
SciTegic.value.DoubleValue
0.559

@<SCITEGIC>MOL_PROPERTY
VdW6
SciTegic.value.DoubleValue
-6.152

@<SCITEGIC>MOL_PROPERTY
VdW12
SciTegic.value.DoubleValue
6.711

@<SCITEGIC>MOL_PROPERTY
Bond
SciTegic.value.DoubleValue
0.198

@<SCITEGIC>MOL_PROPERTY
Angle
SciTegic.value.DoubleValue
1.163

@<SCITEGIC>MOL_PROPERTY
Pdih
SciTegic.value.DoubleValue
3.340

@<SCITEGIC>MOL_PROPERTY
Idih
SciTegic.value.DoubleValue
0.000

@<SCITEGIC>MOL_PROPERTY
Tether
SciTegic.value.DoubleValue
0.000

@<TRIPOS>MOLECULE
guest-2_vm2.mol2 : vm2 ligand conformer 48
          23          22           1
SMALL
USER_CHARGES
 
@<TRIPOS>ATOM
       1    N1      19.559749   18.020740   25.829600 N.4        1 MOL1        -0.5940
       2    H1      19.337825   17.088683   25.465196 H          1 MOL1         0.3649
       3    H2      19.015076   18.141603   26.690287 H          1 MOL1         0.3649
       4    H3      20.548024   18.010972   26.101739 H          1 MOL1         0.3649
       5    C1      19.262501   19.109273   24.818294 C.3        1 MOL1         0.0207
       6    H4      19.492407   20.072435   25.281907 H          1 MOL1         0.0950
       7    H5      18.192122   19.081179   24.596994 H          1 MOL1         0.0950
       8    C2      20.064949   18.957643   23.513912 C.3        1 MOL1        -0.1415
       9    H6      21.138328   18.969732   23.745360 H          1 MOL1         0.0976
      10    H7      19.847861   17.980016   23.069190 H          1 MOL1         0.0976
      11    C3      19.738612   20.095119   22.516455 C.3        1 MOL1        -0.1375
      12    H8      19.992790   21.051309   22.994830 H          1 MOL1         0.0976
      13    H9      18.658414   20.132919   22.318488 H          1 MOL1         0.0976
      14    C4      20.521426   19.991128   21.181310 C.3        1 MOL1        -0.1375
      15    H10     20.753567   21.009845   20.840994 H          1 MOL1         0.0976
      16    H11     21.493448   19.505945   21.345395 H          1 MOL1         0.0976
      17    C5      19.757921   19.280311   20.034591 C.3        1 MOL1        -0.1350
      18    H12     20.372956   19.328010   19.125039 H          1 MOL1         0.0976
      19    H13     18.836098   19.833724   19.807102 H          1 MOL1         0.0976
      20    C6      19.410841   17.802786   20.319839 C.3        1 MOL1        -0.2365
      21    H14     20.302825   17.235995   20.616431 H          1 MOL1         0.0987
      22    H15     18.993746   17.327058   19.422840 H          1 MOL1         0.0987
      23    H16     18.659890   17.716151   21.114636 H          1 MOL1         0.0987
@<TRIPOS>BOND
    1     1     2    1
    2     1     3    1
    3     1     4    1
    4     1     5    1
    5     5     6    1
    6     5     7    1
    7     5     8    1
    8     8     9    1
    9     8    10    1
   10     8    11    1
   11    11    12    1
   12    11    13    1
   13    11    14    1
   14    14    15    1
   15    14    16    1
   16    14    17    1
   17    17    18    1
   18    17    19    1
   19    17    20    1
   20    20    21    1
   21    20    22    1
   22    20    23    1
@<TRIPOS>SUBSTRUCTURE
       1 MOL1            1 RESIDUE      1      MOL     
@<SCITEGIC>MOL_PROPERTY
VM2 Rank
SciTegic.value.IntegerValue
48

@<SCITEGIC>MOL_PROPERTY
Conf_Id
SciTegic.value.IntegerValue
273

@<SCITEGIC>MOL_PROPERTY
Probability
SciTegic.value.DoubleValue
0.04

@<SCITEGIC>MOL_PROPERTY
Sum Probability
SciTegic.value.DoubleValue
99.33

@<SCITEGIC>MOL_PROPERTY
Delta G
SciTegic.value.DoubleValue
3.353

@<SCITEGIC>MOL_PROPERTY
G
SciTegic.value.DoubleValue
41.269

@<SCITEGIC>MOL_PROPERTY
E
SciTegic.value.DoubleValue
13.408

@<SCITEGIC>MOL_PROPERTY
-TS
SciTegic.value.DoubleValue
27.862

@<SCITEGIC>MOL_PROPERTY
U+W
SciTegic.value.DoubleValue
-5.371

@<SCITEGIC>MOL_PROPERTY
U
SciTegic.value.DoubleValue
50.253

@<SCITEGIC>MOL_PROPERTY
W
SciTegic.value.DoubleValue
-55.624

@<SCITEGIC>MOL_PROPERTY
W(PB)
SciTegic.value.DoubleValue
-57.711

@<SCITEGIC>MOL_PROPERTY
W(SA)
SciTegic.value.DoubleValue
2.087

@<SCITEGIC>MOL_PROPERTY
Valence
SciTegic.value.DoubleValue
4.702

@<SCITEGIC>MOL_PROPERTY
Coulomb
SciTegic.value.DoubleValue
44.992

@<SCITEGIC>MOL_PROPERTY
VdW
SciTegic.value.DoubleValue
0.559

@<SCITEGIC>MOL_PROPERTY
VdW6
SciTegic.value.DoubleValue
-6.152

@<SCITEGIC>MOL_PROPERTY
VdW12
SciTegic.value.DoubleValue
6.711

@<SCITEGIC>MOL_PROPERTY
Bond
SciTegic.value.DoubleValue
0.198

@<SCITEGIC>MOL_PROPERTY
Angle
SciTegic.value.DoubleValue
1.163

@<SCITEGIC>MOL_PROPERTY
Pdih
SciTegic.value.DoubleValue
3.340

@<SCITEGIC>MOL_PROPERTY
Idih
SciTegic.value.DoubleValue
0.000

@<SCITEGIC>MOL_PROPERTY
Tether
SciTegic.value.DoubleValue
0.000

@<TRIPOS>MOLECULE
guest-2_vm2.mol2 : vm2 ligand conformer 49
          23          22           1
SMALL
USER_CHARGES
 
@<TRIPOS>ATOM
       1    N1      20.197668   17.910752   25.002879 N.4        1 MOL1        -0.5940
       2    H1      19.903270   17.106294   25.567005 H          1 MOL1         0.3649
       3    H2      21.007400   18.325244   25.475374 H          1 MOL1         0.3649
       4    H3      20.525454   17.545546   24.104705 H          1 MOL1         0.3649
       5    C1      19.074946   18.914912   24.827809 C.3        1 MOL1         0.0207
       6    H4      18.780113   19.240546   25.829087 H          1 MOL1         0.0950
       7    H5      18.221042   18.406334   24.372281 H          1 MOL1         0.0950
       8    C2      19.454951   20.153348   23.989510 C.3        1 MOL1        -0.1415
       9    H6      18.751557   20.957232   24.244191 H          1 MOL1         0.0976
      10    H7      20.447929   20.517723   24.284540 H          1 MOL1         0.0976
      11    C3      19.392164   19.935671   22.455917 C.3        1 MOL1        -0.1375
      12    H8      19.558435   20.904813   21.965673 H          1 MOL1         0.0976
      13    H9      18.376980   19.621154   22.179108 H          1 MOL1         0.0976
      14    C4      20.424305   18.916249   21.912450 C.3        1 MOL1        -0.1375
      15    H10     21.412972   19.140499   22.336134 H          1 MOL1         0.0976
      16    H11     20.158126   17.903260   22.238843 H          1 MOL1         0.0976
      17    C5      20.537781   18.926487   20.368872 C.3        1 MOL1        -0.1350
      18    H12     21.345954   18.244723   20.069038 H          1 MOL1         0.0976
      19    H13     20.836364   19.926477   20.024361 H          1 MOL1         0.0976
      20    C6      19.234185   18.499580   19.656562 C.3        1 MOL1        -0.2365
      21    H14     18.902022   17.511171   19.999653 H          1 MOL1         0.0987
      22    H15     19.389854   18.443253   18.571427 H          1 MOL1         0.0987
      23    H16     18.423552   19.216558   19.836840 H          1 MOL1         0.0987
@<TRIPOS>BOND
    1     1     2    1
    2     1     3    1
    3     1     4    1
    4     1     5    1
    5     5     6    1
    6     5     7    1
    7     5     8    1
    8     8     9    1
    9     8    10    1
   10     8    11    1
   11    11    12    1
   12    11    13    1
   13    11    14    1
   14    14    15    1
   15    14    16    1
   16    14    17    1
   17    17    18    1
   18    17    19    1
   19    17    20    1
   20    20    21    1
   21    20    22    1
   22    20    23    1
@<TRIPOS>SUBSTRUCTURE
       1 MOL1            1 RESIDUE      1      MOL     
@<SCITEGIC>MOL_PROPERTY
VM2 Rank
SciTegic.value.IntegerValue
49

@<SCITEGIC>MOL_PROPERTY
Conf_Id
SciTegic.value.IntegerValue
544

@<SCITEGIC>MOL_PROPERTY
Probability
SciTegic.value.DoubleValue
0.04

@<SCITEGIC>MOL_PROPERTY
Sum Probability
SciTegic.value.DoubleValue
99.37

@<SCITEGIC>MOL_PROPERTY
Delta G
SciTegic.value.DoubleValue
3.366

@<SCITEGIC>MOL_PROPERTY
G
SciTegic.value.DoubleValue
41.282

@<SCITEGIC>MOL_PROPERTY
E
SciTegic.value.DoubleValue
13.481

@<SCITEGIC>MOL_PROPERTY
-TS
SciTegic.value.DoubleValue
27.801

@<SCITEGIC>MOL_PROPERTY
U+W
SciTegic.value.DoubleValue
-5.298

@<SCITEGIC>MOL_PROPERTY
U
SciTegic.value.DoubleValue
50.658

@<SCITEGIC>MOL_PROPERTY
W
SciTegic.value.DoubleValue
-55.956

@<SCITEGIC>MOL_PROPERTY
W(PB)
SciTegic.value.DoubleValue
-58.038

@<SCITEGIC>MOL_PROPERTY
W(SA)
SciTegic.value.DoubleValue
2.082

@<SCITEGIC>MOL_PROPERTY
Valence
SciTegic.value.DoubleValue
3.782

@<SCITEGIC>MOL_PROPERTY
Coulomb
SciTegic.value.DoubleValue
46.354

@<SCITEGIC>MOL_PROPERTY
VdW
SciTegic.value.DoubleValue
0.522

@<SCITEGIC>MOL_PROPERTY
VdW6
SciTegic.value.DoubleValue
-6.753

@<SCITEGIC>MOL_PROPERTY
VdW12
SciTegic.value.DoubleValue
7.276

@<SCITEGIC>MOL_PROPERTY
Bond
SciTegic.value.DoubleValue
0.207

@<SCITEGIC>MOL_PROPERTY
Angle
SciTegic.value.DoubleValue
1.137

@<SCITEGIC>MOL_PROPERTY
Pdih
SciTegic.value.DoubleValue
2.439

@<SCITEGIC>MOL_PROPERTY
Idih
SciTegic.value.DoubleValue
0.000

@<SCITEGIC>MOL_PROPERTY
Tether
SciTegic.value.DoubleValue
0.000

@<TRIPOS>MOLECULE
guest-2_vm2.mol2 : vm2 ligand conformer 50
          23          22           1
SMALL
USER_CHARGES
 
@<TRIPOS>ATOM
       1    N1      18.807915   18.303539   25.131135 N.4        1 MOL1        -0.5940
       2    H1      19.379228   18.285387   25.981956 H          1 MOL1         0.3649
       3    H2      19.038360   17.462410   24.593941 H          1 MOL1         0.3649
       4    H3      17.829941   18.212570   25.426362 H          1 MOL1         0.3649
       5    C1      19.037555   19.567446   24.325493 C.3        1 MOL1         0.0207
       6    H4      18.734628   20.413208   24.948760 H          1 MOL1         0.0950
       7    H5      18.377813   19.536598   23.456872 H          1 MOL1         0.0950
       8    C2      20.502947   19.764473   23.882295 C.3        1 MOL1        -0.1415
       9    H6      20.617675   20.760123   23.433707 H          1 MOL1         0.0976
      10    H7      21.133071   19.766217   24.781655 H          1 MOL1         0.0976
      11    C3      21.032628   18.685475   22.899872 C.3        1 MOL1        -0.1375
      12    H8      20.671073   17.689513   23.186439 H          1 MOL1         0.0976
      13    H9      22.125469   18.641219   23.005446 H          1 MOL1         0.0976
      14    C4      20.723016   18.950995   21.403535 C.3        1 MOL1        -0.1375
      15    H10     21.181875   19.901130   21.097045 H          1 MOL1         0.0976
      16    H11     21.217447   18.169560   20.809958 H          1 MOL1         0.0976
      17    C5      19.218296   18.970279   21.049095 C.3        1 MOL1        -0.1350
      18    H12     18.739906   19.849723   21.498725 H          1 MOL1         0.0976
      19    H13     18.724117   18.080995   21.464426 H          1 MOL1         0.0976
      20    C6      18.993643   19.014793   19.522576 C.3        1 MOL1        -0.2365
      21    H14     19.455935   19.907625   19.081683 H          1 MOL1         0.0987
      22    H15     17.921293   19.040517   19.289274 H          1 MOL1         0.0987
      23    H16     19.422915   18.130558   19.033641 H          1 MOL1         0.0987
@<TRIPOS>BOND
    1     1     2    1
    2     1     3    1
    3     1     4    1
    4     1     5    1
    5     5     6    1
    6     5     7    1
    7     5     8    1
    8     8     9    1
    9     8    10    1
   10     8    11    1
   11    11    12    1
   12    11    13    1
   13    11    14    1
   14    14    15    1
   15    14    16    1
   16    14    17    1
   17    17    18    1
   18    17    19    1
   19    17    20    1
   20    20    21    1
   21    20    22    1
   22    20    23    1
@<TRIPOS>SUBSTRUCTURE
       1 MOL1            1 RESIDUE      1      MOL     
@<SCITEGIC>MOL_PROPERTY
VM2 Rank
SciTegic.value.IntegerValue
50

@<SCITEGIC>MOL_PROPERTY
Conf_Id
SciTegic.value.IntegerValue
686

@<SCITEGIC>MOL_PROPERTY
Probability
SciTegic.value.DoubleValue
0.04

@<SCITEGIC>MOL_PROPERTY
Sum Probability
SciTegic.value.DoubleValue
99.41

@<SCITEGIC>MOL_PROPERTY
Delta G
SciTegic.value.DoubleValue
3.401

@<SCITEGIC>MOL_PROPERTY
G
SciTegic.value.DoubleValue
41.317

@<SCITEGIC>MOL_PROPERTY
E
SciTegic.value.DoubleValue
13.418

@<SCITEGIC>MOL_PROPERTY
-TS
SciTegic.value.DoubleValue
27.899

@<SCITEGIC>MOL_PROPERTY
U+W
SciTegic.value.DoubleValue
-5.361

@<SCITEGIC>MOL_PROPERTY
U
SciTegic.value.DoubleValue
50.743

@<SCITEGIC>MOL_PROPERTY
W
SciTegic.value.DoubleValue
-56.104

@<SCITEGIC>MOL_PROPERTY
W(PB)
SciTegic.value.DoubleValue
-58.187

@<SCITEGIC>MOL_PROPERTY
W(SA)
SciTegic.value.DoubleValue
2.083

@<SCITEGIC>MOL_PROPERTY
Valence
SciTegic.value.DoubleValue
4.299

@<SCITEGIC>MOL_PROPERTY
Coulomb
SciTegic.value.DoubleValue
45.941

@<SCITEGIC>MOL_PROPERTY
VdW
SciTegic.value.DoubleValue
0.503

@<SCITEGIC>MOL_PROPERTY
VdW6
SciTegic.value.DoubleValue
-6.823

@<SCITEGIC>MOL_PROPERTY
VdW12
SciTegic.value.DoubleValue
7.326

@<SCITEGIC>MOL_PROPERTY
Bond
SciTegic.value.DoubleValue
0.216

@<SCITEGIC>MOL_PROPERTY
Angle
SciTegic.value.DoubleValue
1.354

@<SCITEGIC>MOL_PROPERTY
Pdih
SciTegic.value.DoubleValue
2.729

@<SCITEGIC>MOL_PROPERTY
Idih
SciTegic.value.DoubleValue
0.000

@<SCITEGIC>MOL_PROPERTY
Tether
SciTegic.value.DoubleValue
0.000

@<TRIPOS>MOLECULE
guest-2_vm2.mol2 : vm2 ligand conformer 51
          23          22           1
SMALL
USER_CHARGES
 
@<TRIPOS>ATOM
       1    N1      19.592582   17.921917   25.738479 N.4        1 MOL1        -0.5940
       2    H1      20.513067   17.472256   25.702028 H          1 MOL1         0.3649
       3    H2      18.905562   17.229347   25.423635 H          1 MOL1         0.3649
       4    H3      19.392823   18.111826   26.726452 H          1 MOL1         0.3649
       5    C1      19.546714   19.184897   24.902560 C.3        1 MOL1         0.0207
       6    H4      20.279346   19.886352   25.310822 H          1 MOL1         0.0950
       7    H5      18.551833   19.625361   25.010665 H          1 MOL1         0.0950
       8    C2      19.843201   18.934547   23.413303 C.3        1 MOL1        -0.1415
       9    H6      20.836987   18.479052   23.309964 H          1 MOL1         0.0976
      10    H7      19.109659   18.219142   23.021377 H          1 MOL1         0.0976
      11    C3      19.782530   20.246341   22.598447 C.3        1 MOL1        -0.1375
      12    H8      20.420645   20.997343   23.084777 H          1 MOL1         0.0976
      13    H9      18.760290   20.648297   22.629786 H          1 MOL1         0.0976
      14    C4      20.236540   20.106436   21.122213 C.3        1 MOL1        -0.1375
      15    H10     20.193713   21.106065   20.667903 H          1 MOL1         0.0976
      16    H11     21.292905   19.807477   21.078224 H          1 MOL1         0.0976
      17    C5      19.371896   19.148968   20.261950 C.3        1 MOL1        -0.1350
      18    H12     19.315814   19.551139   19.240632 H          1 MOL1         0.0976
      19    H13     18.338449   19.128043   20.634993 H          1 MOL1         0.0976
      20    C6      19.942537   17.713895   20.177048 C.3        1 MOL1        -0.2365
      21    H14     19.306413   17.085097   19.540752 H          1 MOL1         0.0987
      22    H15     20.004447   17.234790   21.160189 H          1 MOL1         0.0987
      23    H16     20.949359   17.718084   19.739625 H          1 MOL1         0.0987
@<TRIPOS>BOND
    1     1     2    1
    2     1     3    1
    3     1     4    1
    4     1     5    1
    5     5     6    1
    6     5     7    1
    7     5     8    1
    8     8     9    1
    9     8    10    1
   10     8    11    1
   11    11    12    1
   12    11    13    1
   13    11    14    1
   14    14    15    1
   15    14    16    1
   16    14    17    1
   17    17    18    1
   18    17    19    1
   19    17    20    1
   20    20    21    1
   21    20    22    1
   22    20    23    1
@<TRIPOS>SUBSTRUCTURE
       1 MOL1            1 RESIDUE      1      MOL     
@<SCITEGIC>MOL_PROPERTY
VM2 Rank
SciTegic.value.IntegerValue
51

@<SCITEGIC>MOL_PROPERTY
Conf_Id
SciTegic.value.IntegerValue
550

@<SCITEGIC>MOL_PROPERTY
Probability
SciTegic.value.DoubleValue
0.04

@<SCITEGIC>MOL_PROPERTY
Sum Probability
SciTegic.value.DoubleValue
99.45

@<SCITEGIC>MOL_PROPERTY
Delta G
SciTegic.value.DoubleValue
3.401

@<SCITEGIC>MOL_PROPERTY
G
SciTegic.value.DoubleValue
41.318

@<SCITEGIC>MOL_PROPERTY
E
SciTegic.value.DoubleValue
13.465

@<SCITEGIC>MOL_PROPERTY
-TS
SciTegic.value.DoubleValue
27.853

@<SCITEGIC>MOL_PROPERTY
U+W
SciTegic.value.DoubleValue
-5.314

@<SCITEGIC>MOL_PROPERTY
U
SciTegic.value.DoubleValue
50.301

@<SCITEGIC>MOL_PROPERTY
W
SciTegic.value.DoubleValue
-55.615

@<SCITEGIC>MOL_PROPERTY
W(PB)
SciTegic.value.DoubleValue
-57.714

@<SCITEGIC>MOL_PROPERTY
W(SA)
SciTegic.value.DoubleValue
2.099

@<SCITEGIC>MOL_PROPERTY
Valence
SciTegic.value.DoubleValue
4.724

@<SCITEGIC>MOL_PROPERTY
Coulomb
SciTegic.value.DoubleValue
45.004

@<SCITEGIC>MOL_PROPERTY
VdW
SciTegic.value.DoubleValue
0.574

@<SCITEGIC>MOL_PROPERTY
VdW6
SciTegic.value.DoubleValue
-6.145

@<SCITEGIC>MOL_PROPERTY
VdW12
SciTegic.value.DoubleValue
6.719

@<SCITEGIC>MOL_PROPERTY
Bond
SciTegic.value.DoubleValue
0.198

@<SCITEGIC>MOL_PROPERTY
Angle
SciTegic.value.DoubleValue
1.201

@<SCITEGIC>MOL_PROPERTY
Pdih
SciTegic.value.DoubleValue
3.325

@<SCITEGIC>MOL_PROPERTY
Idih
SciTegic.value.DoubleValue
0.000

@<SCITEGIC>MOL_PROPERTY
Tether
SciTegic.value.DoubleValue
0.000

@<TRIPOS>MOLECULE
guest-2_vm2.mol2 : vm2 ligand conformer 52
          23          22           1
SMALL
USER_CHARGES
 
@<TRIPOS>ATOM
       1    N1      20.422630   18.267280   25.776330 N.4        1 MOL1        -0.5940
       2    H1      21.419641   18.275434   25.538260 H          1 MOL1         0.3649
       3    H2      20.097867   17.299470   25.683123 H          1 MOL1         0.3649
       4    H3      20.351692   18.510809   26.770172 H          1 MOL1         0.3649
       5    C1      19.625329   19.217580   24.906144 C.3        1 MOL1         0.0207
       6    H4      20.003266   20.229269   25.076826 H          1 MOL1         0.0950
       7    H5      18.582767   19.180383   25.233482 H          1 MOL1         0.0950
       8    C2      19.710053   18.879130   23.407229 C.3        1 MOL1        -0.1415
       9    H6      20.761864   18.906534   23.096687 H          1 MOL1         0.0976
      10    H7      19.343085   17.857493   23.241840 H          1 MOL1         0.0976
      11    C3      18.887011   19.873762   22.557646 C.3        1 MOL1        -0.1375
      12    H8      19.317448   20.880104   22.655241 H          1 MOL1         0.0976
      13    H9      17.869647   19.935982   22.968509 H          1 MOL1         0.0976
      14    C4      18.781941   19.501310   21.055916 C.3        1 MOL1        -0.1375
      15    H10     18.255527   18.543913   20.939741 H          1 MOL1         0.0976
      16    H11     18.139505   20.251507   20.574284 H          1 MOL1         0.0976
      17    C5      20.133503   19.465814   20.296690 C.3        1 MOL1        -0.1350
      18    H12     20.844803   20.170651   20.749316 H          1 MOL1         0.0976
      19    H13     19.967377   19.822271   19.270378 H          1 MOL1         0.0976
      20    C6      20.755532   18.052124   20.214046 C.3        1 MOL1        -0.2365
      21    H14     21.696506   18.079409   19.649480 H          1 MOL1         0.0987
      22    H15     20.079676   17.356367   19.700053 H          1 MOL1         0.0987
      23    H16     20.975178   17.638587   21.204343 H          1 MOL1         0.0987
@<TRIPOS>BOND
    1     1     2    1
    2     1     3    1
    3     1     4    1
    4     1     5    1
    5     5     6    1
    6     5     7    1
    7     5     8    1
    8     8     9    1
    9     8    10    1
   10     8    11    1
   11    11    12    1
   12    11    13    1
   13    11    14    1
   14    14    15    1
   15    14    16    1
   16    14    17    1
   17    17    18    1
   18    17    19    1
   19    17    20    1
   20    20    21    1
   21    20    22    1
   22    20    23    1
@<TRIPOS>SUBSTRUCTURE
       1 MOL1            1 RESIDUE      1      MOL     
@<SCITEGIC>MOL_PROPERTY
VM2 Rank
SciTegic.value.IntegerValue
52

@<SCITEGIC>MOL_PROPERTY
Conf_Id
SciTegic.value.IntegerValue
359

@<SCITEGIC>MOL_PROPERTY
Probability
SciTegic.value.DoubleValue
0.04

@<SCITEGIC>MOL_PROPERTY
Sum Probability
SciTegic.value.DoubleValue
99.48

@<SCITEGIC>MOL_PROPERTY
Delta G
SciTegic.value.DoubleValue
3.454

@<SCITEGIC>MOL_PROPERTY
G
SciTegic.value.DoubleValue
41.370

@<SCITEGIC>MOL_PROPERTY
E
SciTegic.value.DoubleValue
13.518

@<SCITEGIC>MOL_PROPERTY
-TS
SciTegic.value.DoubleValue
27.852

@<SCITEGIC>MOL_PROPERTY
U+W
SciTegic.value.DoubleValue
-5.261

@<SCITEGIC>MOL_PROPERTY
U
SciTegic.value.DoubleValue
50.301

@<SCITEGIC>MOL_PROPERTY
W
SciTegic.value.DoubleValue
-55.563

@<SCITEGIC>MOL_PROPERTY
W(PB)
SciTegic.value.DoubleValue
-57.697

@<SCITEGIC>MOL_PROPERTY
W(SA)
SciTegic.value.DoubleValue
2.134

@<SCITEGIC>MOL_PROPERTY
Valence
SciTegic.value.DoubleValue
4.724

@<SCITEGIC>MOL_PROPERTY
Coulomb
SciTegic.value.DoubleValue
45.004

@<SCITEGIC>MOL_PROPERTY
VdW
SciTegic.value.DoubleValue
0.574

@<SCITEGIC>MOL_PROPERTY
VdW6
SciTegic.value.DoubleValue
-6.145

@<SCITEGIC>MOL_PROPERTY
VdW12
SciTegic.value.DoubleValue
6.719

@<SCITEGIC>MOL_PROPERTY
Bond
SciTegic.value.DoubleValue
0.198

@<SCITEGIC>MOL_PROPERTY
Angle
SciTegic.value.DoubleValue
1.201

@<SCITEGIC>MOL_PROPERTY
Pdih
SciTegic.value.DoubleValue
3.325

@<SCITEGIC>MOL_PROPERTY
Idih
SciTegic.value.DoubleValue
0.000

@<SCITEGIC>MOL_PROPERTY
Tether
SciTegic.value.DoubleValue
0.000

@<TRIPOS>MOLECULE
guest-2_vm2.mol2 : vm2 ligand conformer 53
          23          22           1
SMALL
USER_CHARGES
 
@<TRIPOS>ATOM
       1    N1      20.749860   19.112526   25.220088 N.4        1 MOL1        -0.5940
       2    H1      21.477317   19.731824   25.593107 H          1 MOL1         0.3649
       3    H2      21.225938   18.373494   24.694384 H          1 MOL1         0.3649
       4    H3      20.295765   18.667678   26.024161 H          1 MOL1         0.3649
       5    C1      19.756036   19.866681   24.358225 C.3        1 MOL1         0.0207
       6    H4      20.308249   20.340224   23.544876 H          1 MOL1         0.0950
       7    H5      19.320786   20.657549   24.975172 H          1 MOL1         0.0950
       8    C2      18.623111   18.981518   23.796465 C.3        1 MOL1        -0.1415
       9    H6      18.110013   18.507287   24.643662 H          1 MOL1         0.0976
      10    H7      17.872045   19.616509   23.308206 H          1 MOL1         0.0976
      11    C3      19.092572   17.877282   22.811469 C.3        1 MOL1        -0.1375
      12    H8      18.349441   17.068162   22.833468 H          1 MOL1         0.0976
      13    H9      20.029746   17.422421   23.157293 H          1 MOL1         0.0976
      14    C4      19.237530   18.331992   21.335799 C.3        1 MOL1        -0.1375
      15    H10     19.490773   17.449989   20.731337 H          1 MOL1         0.0976
      16    H11     18.266132   18.686160   20.964055 H          1 MOL1         0.0976
      17    C5      20.306372   19.423540   21.098562 C.3        1 MOL1        -0.1350
      18    H12     21.251022   19.133698   21.579361 H          1 MOL1         0.0976
      19    H13     19.983671   20.367821   21.555341 H          1 MOL1         0.0976
      20    C6      20.550518   19.663461   19.593391 C.3        1 MOL1        -0.2365
      21    H14     20.914012   18.751862   19.101394 H          1 MOL1         0.0987
      22    H15     21.302308   20.449119   19.443136 H          1 MOL1         0.0987
      23    H16     19.627701   19.979306   19.089506 H          1 MOL1         0.0987
@<TRIPOS>BOND
    1     1     2    1
    2     1     3    1
    3     1     4    1
    4     1     5    1
    5     5     6    1
    6     5     7    1
    7     5     8    1
    8     8     9    1
    9     8    10    1
   10     8    11    1
   11    11    12    1
   12    11    13    1
   13    11    14    1
   14    14    15    1
   15    14    16    1
   16    14    17    1
   17    17    18    1
   18    17    19    1
   19    17    20    1
   20    20    21    1
   21    20    22    1
   22    20    23    1
@<TRIPOS>SUBSTRUCTURE
       1 MOL1            1 RESIDUE      1      MOL     
@<SCITEGIC>MOL_PROPERTY
VM2 Rank
SciTegic.value.IntegerValue
53

@<SCITEGIC>MOL_PROPERTY
Conf_Id
SciTegic.value.IntegerValue
134

@<SCITEGIC>MOL_PROPERTY
Probability
SciTegic.value.DoubleValue
0.04

@<SCITEGIC>MOL_PROPERTY
Sum Probability
SciTegic.value.DoubleValue
99.52

@<SCITEGIC>MOL_PROPERTY
Delta G
SciTegic.value.DoubleValue
3.460

@<SCITEGIC>MOL_PROPERTY
G
SciTegic.value.DoubleValue
41.377

@<SCITEGIC>MOL_PROPERTY
E
SciTegic.value.DoubleValue
13.478

@<SCITEGIC>MOL_PROPERTY
-TS
SciTegic.value.DoubleValue
27.899

@<SCITEGIC>MOL_PROPERTY
U+W
SciTegic.value.DoubleValue
-5.301

@<SCITEGIC>MOL_PROPERTY
U
SciTegic.value.DoubleValue
50.742

@<SCITEGIC>MOL_PROPERTY
W
SciTegic.value.DoubleValue
-56.044

@<SCITEGIC>MOL_PROPERTY
W(PB)
SciTegic.value.DoubleValue
-58.112

@<SCITEGIC>MOL_PROPERTY
W(SA)
SciTegic.value.DoubleValue
2.068

@<SCITEGIC>MOL_PROPERTY
Valence
SciTegic.value.DoubleValue
4.299

@<SCITEGIC>MOL_PROPERTY
Coulomb
SciTegic.value.DoubleValue
45.940

@<SCITEGIC>MOL_PROPERTY
VdW
SciTegic.value.DoubleValue
0.503

@<SCITEGIC>MOL_PROPERTY
VdW6
SciTegic.value.DoubleValue
-6.823

@<SCITEGIC>MOL_PROPERTY
VdW12
SciTegic.value.DoubleValue
7.326

@<SCITEGIC>MOL_PROPERTY
Bond
SciTegic.value.DoubleValue
0.215

@<SCITEGIC>MOL_PROPERTY
Angle
SciTegic.value.DoubleValue
1.353

@<SCITEGIC>MOL_PROPERTY
Pdih
SciTegic.value.DoubleValue
2.730

@<SCITEGIC>MOL_PROPERTY
Idih
SciTegic.value.DoubleValue
0.000

@<SCITEGIC>MOL_PROPERTY
Tether
SciTegic.value.DoubleValue
0.000

@<TRIPOS>MOLECULE
guest-2_vm2.mol2 : vm2 ligand conformer 54
          23          22           1
SMALL
USER_CHARGES
 
@<TRIPOS>ATOM
       1    N1      19.003230   18.059293   25.090341 N.4        1 MOL1        -0.5940
       2    H1      19.691965   17.346419   25.351513 H          1 MOL1         0.3649
       3    H2      18.583146   17.763402   24.205167 H          1 MOL1         0.3649
       4    H3      18.263168   18.032060   25.800022 H          1 MOL1         0.3649
       5    C1      19.631649   19.435734   24.986645 C.3        1 MOL1         0.0207
       6    H4      20.044555   19.671216   25.971319 H          1 MOL1         0.0950
       7    H5      18.845464   20.162953   24.766694 H          1 MOL1         0.0950
       8    C2      20.754599   19.542711   23.933828 C.3        1 MOL1        -0.1415
       9    H6      21.404945   20.378591   24.224059 H          1 MOL1         0.0976
      10    H7      21.386763   18.645349   23.964785 H          1 MOL1         0.0976
      11    C3      20.261697   19.806372   22.487683 C.3        1 MOL1        -0.1375
      12    H8      21.146308   19.976472   21.861098 H          1 MOL1         0.0976
      13    H9      19.684719   20.741094   22.463347 H          1 MOL1         0.0976
      14    C4      19.412783   18.660485   21.881710 C.3        1 MOL1        -0.1375
      15    H10     19.952007   17.707319   21.970736 H          1 MOL1         0.0976
      16    H11     18.484126   18.556459   22.455600 H          1 MOL1         0.0976
      17    C5      19.024429   18.897278   20.401794 C.3        1 MOL1        -0.1350
      18    H12     18.501541   19.858863   20.302885 H          1 MOL1         0.0976
      19    H13     18.303902   18.124131   20.100155 H          1 MOL1         0.0976
      20    C6      20.227612   18.855126   19.431998 C.3        1 MOL1        -0.2365
      21    H14     19.884134   18.925681   18.391812 H          1 MOL1         0.0987
      22    H15     20.786932   17.916434   19.536953 H          1 MOL1         0.0987
      23    H16     20.918595   19.688813   19.606385 H          1 MOL1         0.0987
@<TRIPOS>BOND
    1     1     2    1
    2     1     3    1
    3     1     4    1
    4     1     5    1
    5     5     6    1
    6     5     7    1
    7     5     8    1
    8     8     9    1
    9     8    10    1
   10     8    11    1
   11    11    12    1
   12    11    13    1
   13    11    14    1
   14    14    15    1
   15    14    16    1
   16    14    17    1
   17    17    18    1
   18    17    19    1
   19    17    20    1
   20    20    21    1
   21    20    22    1
   22    20    23    1
@<TRIPOS>SUBSTRUCTURE
       1 MOL1            1 RESIDUE      1      MOL     
@<SCITEGIC>MOL_PROPERTY
VM2 Rank
SciTegic.value.IntegerValue
54

@<SCITEGIC>MOL_PROPERTY
Conf_Id
SciTegic.value.IntegerValue
511

@<SCITEGIC>MOL_PROPERTY
Probability
SciTegic.value.DoubleValue
0.03

@<SCITEGIC>MOL_PROPERTY
Sum Probability
SciTegic.value.DoubleValue
99.55

@<SCITEGIC>MOL_PROPERTY
Delta G
SciTegic.value.DoubleValue
3.518

@<SCITEGIC>MOL_PROPERTY
G
SciTegic.value.DoubleValue
41.434

@<SCITEGIC>MOL_PROPERTY
E
SciTegic.value.DoubleValue
13.748

@<SCITEGIC>MOL_PROPERTY
-TS
SciTegic.value.DoubleValue
27.687

@<SCITEGIC>MOL_PROPERTY
U+W
SciTegic.value.DoubleValue
-5.032

@<SCITEGIC>MOL_PROPERTY
U
SciTegic.value.DoubleValue
50.916

@<SCITEGIC>MOL_PROPERTY
W
SciTegic.value.DoubleValue
-55.948

@<SCITEGIC>MOL_PROPERTY
W(PB)
SciTegic.value.DoubleValue
-58.032

@<SCITEGIC>MOL_PROPERTY
W(SA)
SciTegic.value.DoubleValue
2.084

@<SCITEGIC>MOL_PROPERTY
Valence
SciTegic.value.DoubleValue
3.987

@<SCITEGIC>MOL_PROPERTY
Coulomb
SciTegic.value.DoubleValue
46.335

@<SCITEGIC>MOL_PROPERTY
VdW
SciTegic.value.DoubleValue
0.594

@<SCITEGIC>MOL_PROPERTY
VdW6
SciTegic.value.DoubleValue
-6.628

@<SCITEGIC>MOL_PROPERTY
VdW12
SciTegic.value.DoubleValue
7.222

@<SCITEGIC>MOL_PROPERTY
Bond
SciTegic.value.DoubleValue
0.215

@<SCITEGIC>MOL_PROPERTY
Angle
SciTegic.value.DoubleValue
1.275

@<SCITEGIC>MOL_PROPERTY
Pdih
SciTegic.value.DoubleValue
2.498

@<SCITEGIC>MOL_PROPERTY
Idih
SciTegic.value.DoubleValue
0.000

@<SCITEGIC>MOL_PROPERTY
Tether
SciTegic.value.DoubleValue
0.000

@<TRIPOS>MOLECULE
guest-2_vm2.mol2 : vm2 ligand conformer 55
          23          22           1
SMALL
USER_CHARGES
 
@<TRIPOS>ATOM
       1    N1      20.789243   18.802121   25.171670 N.4        1 MOL1        -0.5940
       2    H1      20.790205   17.803121   25.401354 H          1 MOL1         0.3649
       3    H2      21.273006   19.283838   25.937178 H          1 MOL1         0.3649
       4    H3      21.362249   18.919447   24.331760 H          1 MOL1         0.3649
       5    C1      19.381676   19.331692   24.975293 C.3        1 MOL1         0.0207
       6    H4      19.435772   20.408463   24.793772 H          1 MOL1         0.0950
       7    H5      18.848763   19.173615   25.916856 H          1 MOL1         0.0950
       8    C2      18.599281   18.646269   23.835585 C.3        1 MOL1        -0.1415
       9    H6      18.788334   17.564606   23.846279 H          1 MOL1         0.0976
      10    H7      17.528476   18.766275   24.047371 H          1 MOL1         0.0976
      11    C3      18.870854   19.227971   22.424319 C.3        1 MOL1        -0.1375
      12    H8      18.616108   20.296716   22.414727 H          1 MOL1         0.0976
      13    H9      18.178012   18.742026   21.725817 H          1 MOL1         0.0976
      14    C4      20.325002   19.039993   21.923291 C.3        1 MOL1        -0.1375
      15    H10     21.006064   19.605556   22.570494 H          1 MOL1         0.0976
      16    H11     20.614343   17.982894   22.000990 H          1 MOL1         0.0976
      17    C5      20.544752   19.529642   20.471052 C.3        1 MOL1        -0.1350
      18    H12     21.621297   19.503996   20.251299 H          1 MOL1         0.0976
      19    H13     20.238712   20.581423   20.381957 H          1 MOL1         0.0976
      20    C6      19.805192   18.679311   19.412789 C.3        1 MOL1        -0.2365
      21    H14     20.068976   17.617694   19.504345 H          1 MOL1         0.0987
      22    H15     20.077026   19.005747   18.400619 H          1 MOL1         0.0987
      23    H16     18.716393   18.772679   19.506068 H          1 MOL1         0.0987
@<TRIPOS>BOND
    1     1     2    1
    2     1     3    1
    3     1     4    1
    4     1     5    1
    5     5     6    1
    6     5     7    1
    7     5     8    1
    8     8     9    1
    9     8    10    1
   10     8    11    1
   11    11    12    1
   12    11    13    1
   13    11    14    1
   14    14    15    1
   15    14    16    1
   16    14    17    1
   17    17    18    1
   18    17    19    1
   19    17    20    1
   20    20    21    1
   21    20    22    1
   22    20    23    1
@<TRIPOS>SUBSTRUCTURE
       1 MOL1            1 RESIDUE      1      MOL     
@<SCITEGIC>MOL_PROPERTY
VM2 Rank
SciTegic.value.IntegerValue
55

@<SCITEGIC>MOL_PROPERTY
Conf_Id
SciTegic.value.IntegerValue
867

@<SCITEGIC>MOL_PROPERTY
Probability
SciTegic.value.DoubleValue
0.03

@<SCITEGIC>MOL_PROPERTY
Sum Probability
SciTegic.value.DoubleValue
99.59

@<SCITEGIC>MOL_PROPERTY
Delta G
SciTegic.value.DoubleValue
3.522

@<SCITEGIC>MOL_PROPERTY
G
SciTegic.value.DoubleValue
41.438

@<SCITEGIC>MOL_PROPERTY
E
SciTegic.value.DoubleValue
13.751

@<SCITEGIC>MOL_PROPERTY
-TS
SciTegic.value.DoubleValue
27.687

@<SCITEGIC>MOL_PROPERTY
U+W
SciTegic.value.DoubleValue
-5.028

@<SCITEGIC>MOL_PROPERTY
U
SciTegic.value.DoubleValue
50.916

@<SCITEGIC>MOL_PROPERTY
W
SciTegic.value.DoubleValue
-55.944

@<SCITEGIC>MOL_PROPERTY
W(PB)
SciTegic.value.DoubleValue
-58.002

@<SCITEGIC>MOL_PROPERTY
W(SA)
SciTegic.value.DoubleValue
2.058

@<SCITEGIC>MOL_PROPERTY
Valence
SciTegic.value.DoubleValue
3.987

@<SCITEGIC>MOL_PROPERTY
Coulomb
SciTegic.value.DoubleValue
46.335

@<SCITEGIC>MOL_PROPERTY
VdW
SciTegic.value.DoubleValue
0.594

@<SCITEGIC>MOL_PROPERTY
VdW6
SciTegic.value.DoubleValue
-6.628

@<SCITEGIC>MOL_PROPERTY
VdW12
SciTegic.value.DoubleValue
7.222

@<SCITEGIC>MOL_PROPERTY
Bond
SciTegic.value.DoubleValue
0.215

@<SCITEGIC>MOL_PROPERTY
Angle
SciTegic.value.DoubleValue
1.275

@<SCITEGIC>MOL_PROPERTY
Pdih
SciTegic.value.DoubleValue
2.498

@<SCITEGIC>MOL_PROPERTY
Idih
SciTegic.value.DoubleValue
0.000

@<SCITEGIC>MOL_PROPERTY
Tether
SciTegic.value.DoubleValue
0.000

@<TRIPOS>MOLECULE
guest-2_vm2.mol2 : vm2 ligand conformer 56
          23          22           1
SMALL
USER_CHARGES
 
@<TRIPOS>ATOM
       1    N1      20.200703   18.033681   25.416878 N.4        1 MOL1        -0.5940
       2    H1      20.095995   18.691660   26.195900 H          1 MOL1         0.3649
       3    H2      21.024628   17.458272   25.621784 H          1 MOL1         0.3649
       4    H3      19.388059   17.409296   25.438626 H          1 MOL1         0.3649
       5    C1      20.329217   18.748307   24.087077 C.3        1 MOL1         0.0207
       6    H4      20.472492   17.991011   23.314312 H          1 MOL1         0.0950
       7    H5      21.227279   19.370675   24.125278 H          1 MOL1         0.0950
       8    C2      19.107611   19.626386   23.754266 C.3        1 MOL1        -0.1415
       9    H6      18.192250   19.019909   23.752335 H          1 MOL1         0.0976
      10    H7      18.989048   20.363198   24.559881 H          1 MOL1         0.0976
      11    C3      19.245271   20.385805   22.410140 C.3        1 MOL1        -0.1375
      12    H8      20.274390   20.746376   22.279954 H          1 MOL1         0.0976
      13    H9      18.625547   21.291136   22.470743 H          1 MOL1         0.0976
      14    C4      18.779469   19.591961   21.159308 C.3        1 MOL1        -0.1375
      15    H10     17.719911   19.327782   21.280650 H          1 MOL1         0.0976
      16    H11     18.819860   20.261057   20.288712 H          1 MOL1         0.0976
      17    C5      19.576735   18.306217   20.827425 C.3        1 MOL1        -0.1350
      18    H12     19.135866   17.846830   19.931684 H          1 MOL1         0.0976
      19    H13     19.454746   17.565368   21.627554 H          1 MOL1         0.0976
      20    C6      21.076994   18.564643   20.558907 C.3        1 MOL1        -0.2365
      21    H14     21.590152   18.945709   21.449811 H          1 MOL1         0.0987
      22    H15     21.210994   19.294244   19.749793 H          1 MOL1         0.0987
      23    H16     21.579463   17.635934   20.259129 H          1 MOL1         0.0987
@<TRIPOS>BOND
    1     1     2    1
    2     1     3    1
    3     1     4    1
    4     1     5    1
    5     5     6    1
    6     5     7    1
    7     5     8    1
    8     8     9    1
    9     8    10    1
   10     8    11    1
   11    11    12    1
   12    11    13    1
   13    11    14    1
   14    14    15    1
   15    14    16    1
   16    14    17    1
   17    17    18    1
   18    17    19    1
   19    17    20    1
   20    20    21    1
   21    20    22    1
   22    20    23    1
@<TRIPOS>SUBSTRUCTURE
       1 MOL1            1 RESIDUE      1      MOL     
@<SCITEGIC>MOL_PROPERTY
VM2 Rank
SciTegic.value.IntegerValue
56

@<SCITEGIC>MOL_PROPERTY
Conf_Id
SciTegic.value.IntegerValue
172

@<SCITEGIC>MOL_PROPERTY
Probability
SciTegic.value.DoubleValue
0.03

@<SCITEGIC>MOL_PROPERTY
Sum Probability
SciTegic.value.DoubleValue
99.62

@<SCITEGIC>MOL_PROPERTY
Delta G
SciTegic.value.DoubleValue
3.566

@<SCITEGIC>MOL_PROPERTY
G
SciTegic.value.DoubleValue
41.483

@<SCITEGIC>MOL_PROPERTY
E
SciTegic.value.DoubleValue
13.153

@<SCITEGIC>MOL_PROPERTY
-TS
SciTegic.value.DoubleValue
28.330

@<SCITEGIC>MOL_PROPERTY
U+W
SciTegic.value.DoubleValue
-5.626

@<SCITEGIC>MOL_PROPERTY
U
SciTegic.value.DoubleValue
50.461

@<SCITEGIC>MOL_PROPERTY
W
SciTegic.value.DoubleValue
-56.086

@<SCITEGIC>MOL_PROPERTY
W(PB)
SciTegic.value.DoubleValue
-58.153

@<SCITEGIC>MOL_PROPERTY
W(SA)
SciTegic.value.DoubleValue
2.066

@<SCITEGIC>MOL_PROPERTY
Valence
SciTegic.value.DoubleValue
4.630

@<SCITEGIC>MOL_PROPERTY
Coulomb
SciTegic.value.DoubleValue
45.564

@<SCITEGIC>MOL_PROPERTY
VdW
SciTegic.value.DoubleValue
0.266

@<SCITEGIC>MOL_PROPERTY
VdW6
SciTegic.value.DoubleValue
-7.363

@<SCITEGIC>MOL_PROPERTY
VdW12
SciTegic.value.DoubleValue
7.629

@<SCITEGIC>MOL_PROPERTY
Bond
SciTegic.value.DoubleValue
0.225

@<SCITEGIC>MOL_PROPERTY
Angle
SciTegic.value.DoubleValue
1.702

@<SCITEGIC>MOL_PROPERTY
Pdih
SciTegic.value.DoubleValue
2.703

@<SCITEGIC>MOL_PROPERTY
Idih
SciTegic.value.DoubleValue
0.000

@<SCITEGIC>MOL_PROPERTY
Tether
SciTegic.value.DoubleValue
0.000

@<TRIPOS>MOLECULE
guest-2_vm2.mol2 : vm2 ligand conformer 57
          23          22           1
SMALL
USER_CHARGES
 
@<TRIPOS>ATOM
       1    N1      19.941908   17.925889   25.405003 N.4        1 MOL1        -0.5940
       2    H1      20.952718   18.060187   25.509621 H          1 MOL1         0.3649
       3    H2      19.755229   16.929976   25.563881 H          1 MOL1         0.3649
       4    H3      19.489240   18.439010   26.168270 H          1 MOL1         0.3649
       5    C1      19.448513   18.381897   24.046993 C.3        1 MOL1         0.0207
       6    H4      18.374533   18.183804   23.995586 H          1 MOL1         0.0950
       7    H5      19.943916   17.771173   23.290167 H          1 MOL1         0.0950
       8    C2      19.709940   19.877017   23.781690 C.3        1 MOL1        -0.1415
       9    H6      19.209045   20.454744   24.569916 H          1 MOL1         0.0976
      10    H7      20.781991   20.097426   23.870193 H          1 MOL1         0.0976
      11    C3      19.179669   20.358541   22.407175 C.3        1 MOL1        -0.1375
      12    H8      18.968721   21.433982   22.486435 H          1 MOL1         0.0976
      13    H9      18.212213   19.888239   22.186063 H          1 MOL1         0.0976
      14    C4      20.165659   20.168908   21.222440 C.3        1 MOL1        -0.1375
      15    H10     19.730873   20.640186   20.330186 H          1 MOL1         0.0976
      16    H11     21.086840   20.729150   21.433936 H          1 MOL1         0.0976
      17    C5      20.542604   18.708196   20.871512 C.3        1 MOL1        -0.1350
      18    H12     21.090769   18.246340   21.702266 H          1 MOL1         0.0976
      19    H13     21.246864   18.725324   20.028022 H          1 MOL1         0.0976
      20    C6      19.327706   17.836552   20.479187 C.3        1 MOL1        -0.2365
      21    H14     19.656140   16.835340   20.171704 H          1 MOL1         0.0987
      22    H15     18.779865   18.282182   19.638816 H          1 MOL1         0.0987
      23    H16     18.628490   17.713268   21.314741 H          1 MOL1         0.0987
@<TRIPOS>BOND
    1     1     2    1
    2     1     3    1
    3     1     4    1
    4     1     5    1
    5     5     6    1
    6     5     7    1
    7     5     8    1
    8     8     9    1
    9     8    10    1
   10     8    11    1
   11    11    12    1
   12    11    13    1
   13    11    14    1
   14    14    15    1
   15    14    16    1
   16    14    17    1
   17    17    18    1
   18    17    19    1
   19    17    20    1
   20    20    21    1
   21    20    22    1
   22    20    23    1
@<TRIPOS>SUBSTRUCTURE
       1 MOL1            1 RESIDUE      1      MOL     
@<SCITEGIC>MOL_PROPERTY
VM2 Rank
SciTegic.value.IntegerValue
57

@<SCITEGIC>MOL_PROPERTY
Conf_Id
SciTegic.value.IntegerValue
371

@<SCITEGIC>MOL_PROPERTY
Probability
SciTegic.value.DoubleValue
0.03

@<SCITEGIC>MOL_PROPERTY
Sum Probability
SciTegic.value.DoubleValue
99.65

@<SCITEGIC>MOL_PROPERTY
Delta G
SciTegic.value.DoubleValue
3.584

@<SCITEGIC>MOL_PROPERTY
G
SciTegic.value.DoubleValue
41.501

@<SCITEGIC>MOL_PROPERTY
E
SciTegic.value.DoubleValue
13.171

@<SCITEGIC>MOL_PROPERTY
-TS
SciTegic.value.DoubleValue
28.330

@<SCITEGIC>MOL_PROPERTY
U+W
SciTegic.value.DoubleValue
-5.608

@<SCITEGIC>MOL_PROPERTY
U
SciTegic.value.DoubleValue
50.461

@<SCITEGIC>MOL_PROPERTY
W
SciTegic.value.DoubleValue
-56.068

@<SCITEGIC>MOL_PROPERTY
W(PB)
SciTegic.value.DoubleValue
-58.143

@<SCITEGIC>MOL_PROPERTY
W(SA)
SciTegic.value.DoubleValue
2.075

@<SCITEGIC>MOL_PROPERTY
Valence
SciTegic.value.DoubleValue
4.630

@<SCITEGIC>MOL_PROPERTY
Coulomb
SciTegic.value.DoubleValue
45.564

@<SCITEGIC>MOL_PROPERTY
VdW
SciTegic.value.DoubleValue
0.266

@<SCITEGIC>MOL_PROPERTY
VdW6
SciTegic.value.DoubleValue
-7.363

@<SCITEGIC>MOL_PROPERTY
VdW12
SciTegic.value.DoubleValue
7.629

@<SCITEGIC>MOL_PROPERTY
Bond
SciTegic.value.DoubleValue
0.225

@<SCITEGIC>MOL_PROPERTY
Angle
SciTegic.value.DoubleValue
1.702

@<SCITEGIC>MOL_PROPERTY
Pdih
SciTegic.value.DoubleValue
2.703

@<SCITEGIC>MOL_PROPERTY
Idih
SciTegic.value.DoubleValue
0.000

@<SCITEGIC>MOL_PROPERTY
Tether
SciTegic.value.DoubleValue
0.000

@<TRIPOS>MOLECULE
guest-2_vm2.mol2 : vm2 ligand conformer 58
          23          22           1
SMALL
USER_CHARGES
 
@<TRIPOS>ATOM
       1    N1      18.935131   18.570675   25.506052 N.4        1 MOL1        -0.5940
       2    H1      18.314264   19.343376   25.247143 H          1 MOL1         0.3649
       3    H2      18.966873   18.542215   26.530802 H          1 MOL1         0.3649
       4    H3      18.485073   17.703289   25.196804 H          1 MOL1         0.3649
       5    C1      20.317375   18.734376   24.904620 C.3        1 MOL1         0.0207
       6    H4      20.932081   17.899768   25.252655 H          1 MOL1         0.0950
       7    H5      20.748920   19.660574   25.293633 H          1 MOL1         0.0950
       8    C2      20.323515   18.766531   23.364036 C.3        1 MOL1        -0.1415
       9    H6      21.365872   18.799220   23.020415 H          1 MOL1         0.0976
      10    H7      19.890026   17.832121   22.986489 H          1 MOL1         0.0976
      11    C3      19.553999   19.981302   22.791623 C.3        1 MOL1        -0.1375
      12    H8      19.897999   20.892219   23.301023 H          1 MOL1         0.0976
      13    H9      18.484625   19.885647   23.022787 H          1 MOL1         0.0976
      14    C4      19.726924   20.185179   21.264154 C.3        1 MOL1        -0.1375
      15    H10     19.184285   21.100625   20.990332 H          1 MOL1         0.0976
      16    H11     20.780745   20.384488   21.025563 H          1 MOL1         0.0976
      17    C5      19.187845   19.025742   20.386886 C.3        1 MOL1        -0.1350
      18    H12     18.777351   19.450854   19.460207 H          1 MOL1         0.0976
      19    H13     18.346970   18.526377   20.888034 H          1 MOL1         0.0976
      20    C6      20.271211   17.993195   19.996630 C.3        1 MOL1        -0.2365
      21    H14     21.085938   18.472196   19.438230 H          1 MOL1         0.0987
      22    H15     19.843104   17.212073   19.355161 H          1 MOL1         0.0987
      23    H16     20.706955   17.500184   20.872337 H          1 MOL1         0.0987
@<TRIPOS>BOND
    1     1     2    1
    2     1     3    1
    3     1     4    1
    4     1     5    1
    5     5     6    1
    6     5     7    1
    7     5     8    1
    8     8     9    1
    9     8    10    1
   10     8    11    1
   11    11    12    1
   12    11    13    1
   13    11    14    1
   14    14    15    1
   15    14    16    1
   16    14    17    1
   17    17    18    1
   18    17    19    1
   19    17    20    1
   20    20    21    1
   21    20    22    1
   22    20    23    1
@<TRIPOS>SUBSTRUCTURE
       1 MOL1            1 RESIDUE      1      MOL     
@<SCITEGIC>MOL_PROPERTY
VM2 Rank
SciTegic.value.IntegerValue
58

@<SCITEGIC>MOL_PROPERTY
Conf_Id
SciTegic.value.IntegerValue
761

@<SCITEGIC>MOL_PROPERTY
Probability
SciTegic.value.DoubleValue
0.03

@<SCITEGIC>MOL_PROPERTY
Sum Probability
SciTegic.value.DoubleValue
99.67

@<SCITEGIC>MOL_PROPERTY
Delta G
SciTegic.value.DoubleValue
3.638

@<SCITEGIC>MOL_PROPERTY
G
SciTegic.value.DoubleValue
41.555

@<SCITEGIC>MOL_PROPERTY
E
SciTegic.value.DoubleValue
13.601

@<SCITEGIC>MOL_PROPERTY
-TS
SciTegic.value.DoubleValue
27.954

@<SCITEGIC>MOL_PROPERTY
U+W
SciTegic.value.DoubleValue
-5.178

@<SCITEGIC>MOL_PROPERTY
U
SciTegic.value.DoubleValue
50.700

@<SCITEGIC>MOL_PROPERTY
W
SciTegic.value.DoubleValue
-55.878

@<SCITEGIC>MOL_PROPERTY
W(PB)
SciTegic.value.DoubleValue
-57.963

@<SCITEGIC>MOL_PROPERTY
W(SA)
SciTegic.value.DoubleValue
2.085

@<SCITEGIC>MOL_PROPERTY
Valence
SciTegic.value.DoubleValue
4.817

@<SCITEGIC>MOL_PROPERTY
Coulomb
SciTegic.value.DoubleValue
45.214

@<SCITEGIC>MOL_PROPERTY
VdW
SciTegic.value.DoubleValue
0.668

@<SCITEGIC>MOL_PROPERTY
VdW6
SciTegic.value.DoubleValue
-6.661

@<SCITEGIC>MOL_PROPERTY
VdW12
SciTegic.value.DoubleValue
7.329

@<SCITEGIC>MOL_PROPERTY
Bond
SciTegic.value.DoubleValue
0.218

@<SCITEGIC>MOL_PROPERTY
Angle
SciTegic.value.DoubleValue
1.218

@<SCITEGIC>MOL_PROPERTY
Pdih
SciTegic.value.DoubleValue
3.381

@<SCITEGIC>MOL_PROPERTY
Idih
SciTegic.value.DoubleValue
0.000

@<SCITEGIC>MOL_PROPERTY
Tether
SciTegic.value.DoubleValue
0.000

@<TRIPOS>MOLECULE
guest-2_vm2.mol2 : vm2 ligand conformer 59
          23          22           1
SMALL
USER_CHARGES
 
@<TRIPOS>ATOM
       1    N1      19.655711   19.272032   25.798855 N.4        1 MOL1        -0.5940
       2    H1      19.074930   19.347072   26.640871 H          1 MOL1         0.3649
       3    H2      19.881672   20.227135   25.505164 H          1 MOL1         0.3649
       4    H3      20.534264   18.825620   26.080786 H          1 MOL1         0.3649
       5    C1      18.956114   18.495919   24.700014 C.3        1 MOL1         0.0207
       6    H4      18.020227   19.009824   24.464579 H          1 MOL1         0.0950
       7    H5      18.710919   17.507196   25.097355 H          1 MOL1         0.0950
       8    C2      19.796651   18.336878   23.418234 C.3        1 MOL1        -0.1415
       9    H6      20.737362   17.824982   23.660706 H          1 MOL1         0.0976
      10    H7      19.254984   17.675035   22.733233 H          1 MOL1         0.0976
      11    C3      20.097358   19.692463   22.729295 C.3        1 MOL1        -0.1375
      12    H8      20.707726   20.301452   23.409424 H          1 MOL1         0.0976
      13    H9      19.167027   20.254643   22.568696 H          1 MOL1         0.0976
      14    C4      20.866838   19.544856   21.390559 C.3        1 MOL1        -0.1375
      15    H10     21.563905   20.389635   21.301459 H          1 MOL1         0.0976
      16    H11     21.495469   18.643924   21.408876 H          1 MOL1         0.0976
      17    C5      19.971575   19.544809   20.124970 C.3        1 MOL1        -0.1350
      18    H12     20.620772   19.510082   19.238882 H          1 MOL1         0.0976
      19    H13     19.422622   20.494797   20.062160 H          1 MOL1         0.0976
      20    C6      18.971753   18.370043   20.052072 C.3        1 MOL1        -0.2365
      21    H14     18.199893   18.454760   20.826883 H          1 MOL1         0.0987
      22    H15     19.483409   17.406211   20.170691 H          1 MOL1         0.0987
      23    H16     18.460759   18.361325   19.080630 H          1 MOL1         0.0987
@<TRIPOS>BOND
    1     1     2    1
    2     1     3    1
    3     1     4    1
    4     1     5    1
    5     5     6    1
    6     5     7    1
    7     5     8    1
    8     8     9    1
    9     8    10    1
   10     8    11    1
   11    11    12    1
   12    11    13    1
   13    11    14    1
   14    14    15    1
   15    14    16    1
   16    14    17    1
   17    17    18    1
   18    17    19    1
   19    17    20    1
   20    20    21    1
   21    20    22    1
   22    20    23    1
@<TRIPOS>SUBSTRUCTURE
       1 MOL1            1 RESIDUE      1      MOL     
@<SCITEGIC>MOL_PROPERTY
VM2 Rank
SciTegic.value.IntegerValue
59

@<SCITEGIC>MOL_PROPERTY
Conf_Id
SciTegic.value.IntegerValue
283

@<SCITEGIC>MOL_PROPERTY
Probability
SciTegic.value.DoubleValue
0.03

@<SCITEGIC>MOL_PROPERTY
Sum Probability
SciTegic.value.DoubleValue
99.70

@<SCITEGIC>MOL_PROPERTY
Delta G
SciTegic.value.DoubleValue
3.653

@<SCITEGIC>MOL_PROPERTY
G
SciTegic.value.DoubleValue
41.569

@<SCITEGIC>MOL_PROPERTY
E
SciTegic.value.DoubleValue
13.583

@<SCITEGIC>MOL_PROPERTY
-TS
SciTegic.value.DoubleValue
27.986

@<SCITEGIC>MOL_PROPERTY
U+W
SciTegic.value.DoubleValue
-5.196

@<SCITEGIC>MOL_PROPERTY
U
SciTegic.value.DoubleValue
50.626

@<SCITEGIC>MOL_PROPERTY
W
SciTegic.value.DoubleValue
-55.822

@<SCITEGIC>MOL_PROPERTY
W(PB)
SciTegic.value.DoubleValue
-57.895

@<SCITEGIC>MOL_PROPERTY
W(SA)
SciTegic.value.DoubleValue
2.073

@<SCITEGIC>MOL_PROPERTY
Valence
SciTegic.value.DoubleValue
4.837

@<SCITEGIC>MOL_PROPERTY
Coulomb
SciTegic.value.DoubleValue
45.097

@<SCITEGIC>MOL_PROPERTY
VdW
SciTegic.value.DoubleValue
0.692

@<SCITEGIC>MOL_PROPERTY
VdW6
SciTegic.value.DoubleValue
-6.655

@<SCITEGIC>MOL_PROPERTY
VdW12
SciTegic.value.DoubleValue
7.347

@<SCITEGIC>MOL_PROPERTY
Bond
SciTegic.value.DoubleValue
0.223

@<SCITEGIC>MOL_PROPERTY
Angle
SciTegic.value.DoubleValue
1.167

@<SCITEGIC>MOL_PROPERTY
Pdih
SciTegic.value.DoubleValue
3.447

@<SCITEGIC>MOL_PROPERTY
Idih
SciTegic.value.DoubleValue
0.000

@<SCITEGIC>MOL_PROPERTY
Tether
SciTegic.value.DoubleValue
0.000

@<TRIPOS>MOLECULE
guest-2_vm2.mol2 : vm2 ligand conformer 60
          23          22           1
SMALL
USER_CHARGES
 
@<TRIPOS>ATOM
       1    N1      19.417690   19.173128   25.787983 N.4        1 MOL1        -0.5940
       2    H1      18.605633   19.696360   25.446920 H          1 MOL1         0.3649
       3    H2      19.706920   19.610214   26.669589 H          1 MOL1         0.3649
       4    H3      19.095211   18.227106   26.015302 H          1 MOL1         0.3649
       5    C1      20.543475   19.156261   24.772326 C.3        1 MOL1         0.0207
       6    H4      21.384766   18.619521   25.219216 H          1 MOL1         0.0950
       7    H5      20.854866   20.188990   24.593657 H          1 MOL1         0.0950
       8    C2      20.165454   18.490239   23.435064 C.3        1 MOL1        -0.1415
       9    H6      21.067376   18.428865   22.815839 H          1 MOL1         0.0976
      10    H7      19.848718   17.455284   23.620309 H          1 MOL1         0.0976
      11    C3      19.048068   19.255882   22.681466 C.3        1 MOL1        -0.1375
      12    H8      19.315533   20.316343   22.575449 H          1 MOL1         0.0976
      13    H9      18.135697   19.231427   23.292178 H          1 MOL1         0.0976
      14    C4      18.716324   18.650135   21.292540 C.3        1 MOL1        -0.1375
      15    H10     18.911605   17.568905   21.291087 H          1 MOL1         0.0976
      16    H11     17.635823   18.755361   21.122432 H          1 MOL1         0.0976
      17    C5      19.442887   19.324864   20.100881 C.3        1 MOL1        -0.1350
      18    H12     19.160384   20.385712   20.050219 H          1 MOL1         0.0976
      19    H13     19.080576   18.869288   19.168682 H          1 MOL1         0.0976
      20    C6      20.982102   19.206491   20.143741 C.3        1 MOL1        -0.2365
      21    H14     21.403737   19.787768   20.972968 H          1 MOL1         0.0987
      22    H15     21.422296   19.593523   19.215664 H          1 MOL1         0.0987
      23    H16     21.296253   18.160485   20.253357 H          1 MOL1         0.0987
@<TRIPOS>BOND
    1     1     2    1
    2     1     3    1
    3     1     4    1
    4     1     5    1
    5     5     6    1
    6     5     7    1
    7     5     8    1
    8     8     9    1
    9     8    10    1
   10     8    11    1
   11    11    12    1
   12    11    13    1
   13    11    14    1
   14    14    15    1
   15    14    16    1
   16    14    17    1
   17    17    18    1
   18    17    19    1
   19    17    20    1
   20    20    21    1
   21    20    22    1
   22    20    23    1
@<TRIPOS>SUBSTRUCTURE
       1 MOL1            1 RESIDUE      1      MOL     
@<SCITEGIC>MOL_PROPERTY
VM2 Rank
SciTegic.value.IntegerValue
60

@<SCITEGIC>MOL_PROPERTY
Conf_Id
SciTegic.value.IntegerValue
285

@<SCITEGIC>MOL_PROPERTY
Probability
SciTegic.value.DoubleValue
0.02

@<SCITEGIC>MOL_PROPERTY
Sum Probability
SciTegic.value.DoubleValue
99.72

@<SCITEGIC>MOL_PROPERTY
Delta G
SciTegic.value.DoubleValue
3.697

@<SCITEGIC>MOL_PROPERTY
G
SciTegic.value.DoubleValue
41.614

@<SCITEGIC>MOL_PROPERTY
E
SciTegic.value.DoubleValue
13.627

@<SCITEGIC>MOL_PROPERTY
-TS
SciTegic.value.DoubleValue
27.986

@<SCITEGIC>MOL_PROPERTY
U+W
SciTegic.value.DoubleValue
-5.152

@<SCITEGIC>MOL_PROPERTY
U
SciTegic.value.DoubleValue
50.626

@<SCITEGIC>MOL_PROPERTY
W
SciTegic.value.DoubleValue
-55.777

@<SCITEGIC>MOL_PROPERTY
W(PB)
SciTegic.value.DoubleValue
-57.841

@<SCITEGIC>MOL_PROPERTY
W(SA)
SciTegic.value.DoubleValue
2.064

@<SCITEGIC>MOL_PROPERTY
Valence
SciTegic.value.DoubleValue
4.837

@<SCITEGIC>MOL_PROPERTY
Coulomb
SciTegic.value.DoubleValue
45.097

@<SCITEGIC>MOL_PROPERTY
VdW
SciTegic.value.DoubleValue
0.692

@<SCITEGIC>MOL_PROPERTY
VdW6
SciTegic.value.DoubleValue
-6.655

@<SCITEGIC>MOL_PROPERTY
VdW12
SciTegic.value.DoubleValue
7.347

@<SCITEGIC>MOL_PROPERTY
Bond
SciTegic.value.DoubleValue
0.223

@<SCITEGIC>MOL_PROPERTY
Angle
SciTegic.value.DoubleValue
1.166

@<SCITEGIC>MOL_PROPERTY
Pdih
SciTegic.value.DoubleValue
3.447

@<SCITEGIC>MOL_PROPERTY
Idih
SciTegic.value.DoubleValue
0.000

@<SCITEGIC>MOL_PROPERTY
Tether
SciTegic.value.DoubleValue
0.000

@<TRIPOS>MOLECULE
guest-2_vm2.mol2 : vm2 ligand conformer 61
          23          22           1
SMALL
USER_CHARGES
 
@<TRIPOS>ATOM
       1    N1      20.442747   19.198127   25.574762 N.4        1 MOL1        -0.5940
       2    H1      20.351294   20.191138   25.339944 H          1 MOL1         0.3649
       3    H2      21.396837   18.915080   25.329519 H          1 MOL1         0.3649
       4    H3      20.361152   19.122546   26.594350 H          1 MOL1         0.3649
       5    C1      19.403477   18.354063   24.863011 C.3        1 MOL1         0.0207
       6    H4      18.414546   18.689129   25.187278 H          1 MOL1         0.0950
       7    H5      19.536185   17.318883   25.189128 H          1 MOL1         0.0950
       8    C2      19.495861   18.422046   23.326352 C.3        1 MOL1        -0.1415
       9    H6      20.491101   18.082256   23.013923 H          1 MOL1         0.0976
      10    H7      18.767930   17.717935   22.902094 H          1 MOL1         0.0976
      11    C3      19.219859   19.842200   22.776382 C.3        1 MOL1        -0.1375
      12    H8      20.020059   20.524670   23.092702 H          1 MOL1         0.0976
      13    H9      18.293833   20.224538   23.227920 H          1 MOL1         0.0976
      14    C4      19.072514   19.912762   21.234324 C.3        1 MOL1        -0.1375
      15    H10     18.210451   19.314559   20.908463 H          1 MOL1         0.0976
      16    H11     18.826029   20.951489   20.974001 H          1 MOL1         0.0976
      17    C5      20.339989   19.505349   20.439328 C.3        1 MOL1        -0.1350
      18    H12     21.244842   19.732725   21.019954 H          1 MOL1         0.0976
      19    H13     20.398649   20.125745   19.533995 H          1 MOL1         0.0976
      20    C6      20.341553   18.022453   19.999840 C.3        1 MOL1        -0.2365
      21    H14     19.473872   17.801075   19.364898 H          1 MOL1         0.0987
      22    H15     20.317283   17.337931   20.854612 H          1 MOL1         0.0987
      23    H16     21.244886   17.795617   19.418940 H          1 MOL1         0.0987
@<TRIPOS>BOND
    1     1     2    1
    2     1     3    1
    3     1     4    1
    4     1     5    1
    5     5     6    1
    6     5     7    1
    7     5     8    1
    8     8     9    1
    9     8    10    1
   10     8    11    1
   11    11    12    1
   12    11    13    1
   13    11    14    1
   14    14    15    1
   15    14    16    1
   16    14    17    1
   17    17    18    1
   18    17    19    1
   19    17    20    1
   20    20    21    1
   21    20    22    1
   22    20    23    1
@<TRIPOS>SUBSTRUCTURE
       1 MOL1            1 RESIDUE      1      MOL     
@<SCITEGIC>MOL_PROPERTY
VM2 Rank
SciTegic.value.IntegerValue
61

@<SCITEGIC>MOL_PROPERTY
Conf_Id
SciTegic.value.IntegerValue
931

@<SCITEGIC>MOL_PROPERTY
Probability
SciTegic.value.DoubleValue
0.02

@<SCITEGIC>MOL_PROPERTY
Sum Probability
SciTegic.value.DoubleValue
99.75

@<SCITEGIC>MOL_PROPERTY
Delta G
SciTegic.value.DoubleValue
3.706

@<SCITEGIC>MOL_PROPERTY
G
SciTegic.value.DoubleValue
41.623

@<SCITEGIC>MOL_PROPERTY
E
SciTegic.value.DoubleValue
13.669

@<SCITEGIC>MOL_PROPERTY
-TS
SciTegic.value.DoubleValue
27.953

@<SCITEGIC>MOL_PROPERTY
U+W
SciTegic.value.DoubleValue
-5.110

@<SCITEGIC>MOL_PROPERTY
U
SciTegic.value.DoubleValue
50.700

@<SCITEGIC>MOL_PROPERTY
W
SciTegic.value.DoubleValue
-55.810

@<SCITEGIC>MOL_PROPERTY
W(PB)
SciTegic.value.DoubleValue
-57.884

@<SCITEGIC>MOL_PROPERTY
W(SA)
SciTegic.value.DoubleValue
2.074

@<SCITEGIC>MOL_PROPERTY
Valence
SciTegic.value.DoubleValue
4.818

@<SCITEGIC>MOL_PROPERTY
Coulomb
SciTegic.value.DoubleValue
45.214

@<SCITEGIC>MOL_PROPERTY
VdW
SciTegic.value.DoubleValue
0.668

@<SCITEGIC>MOL_PROPERTY
VdW6
SciTegic.value.DoubleValue
-6.660

@<SCITEGIC>MOL_PROPERTY
VdW12
SciTegic.value.DoubleValue
7.328

@<SCITEGIC>MOL_PROPERTY
Bond
SciTegic.value.DoubleValue
0.218

@<SCITEGIC>MOL_PROPERTY
Angle
SciTegic.value.DoubleValue
1.219

@<SCITEGIC>MOL_PROPERTY
Pdih
SciTegic.value.DoubleValue
3.381

@<SCITEGIC>MOL_PROPERTY
Idih
SciTegic.value.DoubleValue
0.000

@<SCITEGIC>MOL_PROPERTY
Tether
SciTegic.value.DoubleValue
0.000

@<TRIPOS>MOLECULE
guest-2_vm2.mol2 : vm2 ligand conformer 62
          23          22           1
SMALL
USER_CHARGES
 
@<TRIPOS>ATOM
       1    N1      20.018501   18.746530   25.775847 N.4        1 MOL1        -0.5940
       2    H1      20.517799   17.852781   25.725381 H          1 MOL1         0.3649
       3    H2      19.682253   18.846916   26.739594 H          1 MOL1         0.3649
       4    H3      20.708281   19.487934   25.621172 H          1 MOL1         0.3649
       5    C1      18.882485   18.815108   24.773675 C.3        1 MOL1         0.0207
       6    H4      18.379115   19.778047   24.895282 H          1 MOL1         0.0950
       7    H5      18.170747   18.024717   25.027215 H          1 MOL1         0.0950
       8    C2      19.331608   18.645422   23.309187 C.3        1 MOL1        -0.1415
       9    H6      19.860985   17.690172   23.195575 H          1 MOL1         0.0976
      10    H7      18.430197   18.588159   22.686858 H          1 MOL1         0.0976
      11    C3      20.223090   19.811751   22.817514 C.3        1 MOL1        -0.1375
      12    H8      21.072380   19.936050   23.502048 H          1 MOL1         0.0976
      13    H9      19.653131   20.750024   22.864412 H          1 MOL1         0.0976
      14    C4      20.788836   19.624432   21.385767 C.3        1 MOL1        -0.1375
      15    H10     21.434570   20.487145   21.170733 H          1 MOL1         0.0976
      16    H11     21.448843   18.746648   21.352434 H          1 MOL1         0.0976
      17    C5      19.718426   19.533514   20.267557 C.3        1 MOL1        -0.1350
      18    H12     20.107781   20.032298   19.368897 H          1 MOL1         0.0976
      19    H13     18.816496   20.091570   20.555125 H          1 MOL1         0.0976
      20    C6      19.353053   18.080243   19.884453 C.3        1 MOL1        -0.2365
      21    H14     18.936890   17.522158   20.730307 H          1 MOL1         0.0987
      22    H15     20.235981   17.536841   19.523605 H          1 MOL1         0.0987
      23    H16     18.605844   18.071493   19.080391 H          1 MOL1         0.0987
@<TRIPOS>BOND
    1     1     2    1
    2     1     3    1
    3     1     4    1
    4     1     5    1
    5     5     6    1
    6     5     7    1
    7     5     8    1
    8     8     9    1
    9     8    10    1
   10     8    11    1
   11    11    12    1
   12    11    13    1
   13    11    14    1
   14    14    15    1
   15    14    16    1
   16    14    17    1
   17    17    18    1
   18    17    19    1
   19    17    20    1
   20    20    21    1
   21    20    22    1
   22    20    23    1
@<TRIPOS>SUBSTRUCTURE
       1 MOL1            1 RESIDUE      1      MOL     
@<SCITEGIC>MOL_PROPERTY
VM2 Rank
SciTegic.value.IntegerValue
62

@<SCITEGIC>MOL_PROPERTY
Conf_Id
SciTegic.value.IntegerValue
111

@<SCITEGIC>MOL_PROPERTY
Probability
SciTegic.value.DoubleValue
0.02

@<SCITEGIC>MOL_PROPERTY
Sum Probability
SciTegic.value.DoubleValue
99.77

@<SCITEGIC>MOL_PROPERTY
Delta G
SciTegic.value.DoubleValue
3.712

@<SCITEGIC>MOL_PROPERTY
G
SciTegic.value.DoubleValue
41.629

@<SCITEGIC>MOL_PROPERTY
E
SciTegic.value.DoubleValue
13.680

@<SCITEGIC>MOL_PROPERTY
-TS
SciTegic.value.DoubleValue
27.949

@<SCITEGIC>MOL_PROPERTY
U+W
SciTegic.value.DoubleValue
-5.099

@<SCITEGIC>MOL_PROPERTY
U
SciTegic.value.DoubleValue
50.701

@<SCITEGIC>MOL_PROPERTY
W
SciTegic.value.DoubleValue
-55.800

@<SCITEGIC>MOL_PROPERTY
W(PB)
SciTegic.value.DoubleValue
-57.867

@<SCITEGIC>MOL_PROPERTY
W(SA)
SciTegic.value.DoubleValue
2.067

@<SCITEGIC>MOL_PROPERTY
Valence
SciTegic.value.DoubleValue
4.881

@<SCITEGIC>MOL_PROPERTY
Coulomb
SciTegic.value.DoubleValue
45.095

@<SCITEGIC>MOL_PROPERTY
VdW
SciTegic.value.DoubleValue
0.726

@<SCITEGIC>MOL_PROPERTY
VdW6
SciTegic.value.DoubleValue
-6.620

@<SCITEGIC>MOL_PROPERTY
VdW12
SciTegic.value.DoubleValue
7.345

@<SCITEGIC>MOL_PROPERTY
Bond
SciTegic.value.DoubleValue
0.222

@<SCITEGIC>MOL_PROPERTY
Angle
SciTegic.value.DoubleValue
1.260

@<SCITEGIC>MOL_PROPERTY
Pdih
SciTegic.value.DoubleValue
3.398

@<SCITEGIC>MOL_PROPERTY
Idih
SciTegic.value.DoubleValue
0.000

@<SCITEGIC>MOL_PROPERTY
Tether
SciTegic.value.DoubleValue
0.000

@<TRIPOS>MOLECULE
guest-2_vm2.mol2 : vm2 ligand conformer 63
          23          22           1
SMALL
USER_CHARGES
 
@<TRIPOS>ATOM
       1    N1      20.827951   18.808448   25.241586 N.4        1 MOL1        -0.5940
       2    H1      21.014992   18.850423   26.249161 H          1 MOL1         0.3649
       3    H2      21.219819   19.660175   24.828741 H          1 MOL1         0.3649
       4    H3      21.363630   18.017144   24.871004 H          1 MOL1         0.3649
       5    C1      19.346174   18.672207   24.950122 C.3        1 MOL1         0.0207
       6    H4      18.832454   19.529509   25.393434 H          1 MOL1         0.0950
       7    H5      18.991892   17.766826   25.450455 H          1 MOL1         0.0950
       8    C2      19.014667   18.588660   23.447689 C.3        1 MOL1        -0.1415
       9    H6      19.534705   17.728827   23.010814 H          1 MOL1         0.0976
      10    H7      17.940734   18.385371   23.342565 H          1 MOL1         0.0976
      11    C3      19.361937   19.894324   22.687606 C.3        1 MOL1        -0.1375
      12    H8      20.427945   20.135769   22.791849 H          1 MOL1         0.0976
      13    H9      18.815135   20.720341   23.163344 H          1 MOL1         0.0976
      14    C4      18.978077   19.854372   21.185194 C.3        1 MOL1        -0.1375
      15    H10     18.103944   19.206902   21.031103 H          1 MOL1         0.0976
      16    H11     18.655205   20.861815   20.888073 H          1 MOL1         0.0976
      17    C5      20.126505   19.434213   20.232425 C.3        1 MOL1        -0.1350
      18    H12     20.955257   20.151174   20.315384 H          1 MOL1         0.0976
      19    H13     19.764245   19.507440   19.197429 H          1 MOL1         0.0976
      20    C6      20.660689   18.004776   20.469378 C.3        1 MOL1        -0.2365
      21    H14     19.845019   17.270288   20.462086 H          1 MOL1         0.0987
      22    H15     21.190537   17.931117   21.426830 H          1 MOL1         0.0987
      23    H16     21.371021   17.725483   19.680518 H          1 MOL1         0.0987
@<TRIPOS>BOND
    1     1     2    1
    2     1     3    1
    3     1     4    1
    4     1     5    1
    5     5     6    1
    6     5     7    1
    7     5     8    1
    8     8     9    1
    9     8    10    1
   10     8    11    1
   11    11    12    1
   12    11    13    1
   13    11    14    1
   14    14    15    1
   15    14    16    1
   16    14    17    1
   17    17    18    1
   18    17    19    1
   19    17    20    1
   20    20    21    1
   21    20    22    1
   22    20    23    1
@<TRIPOS>SUBSTRUCTURE
       1 MOL1            1 RESIDUE      1      MOL     
@<SCITEGIC>MOL_PROPERTY
VM2 Rank
SciTegic.value.IntegerValue
63

@<SCITEGIC>MOL_PROPERTY
Conf_Id
SciTegic.value.IntegerValue
669

@<SCITEGIC>MOL_PROPERTY
Probability
SciTegic.value.DoubleValue
0.02

@<SCITEGIC>MOL_PROPERTY
Sum Probability
SciTegic.value.DoubleValue
99.79

@<SCITEGIC>MOL_PROPERTY
Delta G
SciTegic.value.DoubleValue
3.762

@<SCITEGIC>MOL_PROPERTY
G
SciTegic.value.DoubleValue
41.678

@<SCITEGIC>MOL_PROPERTY
E
SciTegic.value.DoubleValue
13.725

@<SCITEGIC>MOL_PROPERTY
-TS
SciTegic.value.DoubleValue
27.954

@<SCITEGIC>MOL_PROPERTY
U+W
SciTegic.value.DoubleValue
-5.054

@<SCITEGIC>MOL_PROPERTY
U
SciTegic.value.DoubleValue
50.975

@<SCITEGIC>MOL_PROPERTY
W
SciTegic.value.DoubleValue
-56.030

@<SCITEGIC>MOL_PROPERTY
W(PB)
SciTegic.value.DoubleValue
-58.076

@<SCITEGIC>MOL_PROPERTY
W(SA)
SciTegic.value.DoubleValue
2.047

@<SCITEGIC>MOL_PROPERTY
Valence
SciTegic.value.DoubleValue
4.792

@<SCITEGIC>MOL_PROPERTY
Coulomb
SciTegic.value.DoubleValue
45.573

@<SCITEGIC>MOL_PROPERTY
VdW
SciTegic.value.DoubleValue
0.610

@<SCITEGIC>MOL_PROPERTY
VdW6
SciTegic.value.DoubleValue
-6.731

@<SCITEGIC>MOL_PROPERTY
VdW12
SciTegic.value.DoubleValue
7.341

@<SCITEGIC>MOL_PROPERTY
Bond
SciTegic.value.DoubleValue
0.224

@<SCITEGIC>MOL_PROPERTY
Angle
SciTegic.value.DoubleValue
1.226

@<SCITEGIC>MOL_PROPERTY
Pdih
SciTegic.value.DoubleValue
3.342

@<SCITEGIC>MOL_PROPERTY
Idih
SciTegic.value.DoubleValue
0.000

@<SCITEGIC>MOL_PROPERTY
Tether
SciTegic.value.DoubleValue
0.000

@<TRIPOS>MOLECULE
guest-2_vm2.mol2 : vm2 ligand conformer 64
          23          22           1
SMALL
USER_CHARGES
 
@<TRIPOS>ATOM
       1    N1      18.966453   18.034217   25.157165 N.4        1 MOL1        -0.5940
       2    H1      18.120299   18.371034   24.688105 H          1 MOL1         0.3649
       3    H2      18.727544   17.899040   26.145397 H          1 MOL1         0.3649
       4    H3      19.179194   17.108598   24.771920 H          1 MOL1         0.3649
       5    C1      20.125716   18.996432   24.985638 C.3        1 MOL1         0.0207
       6    H4      20.976699   18.592358   25.540719 H          1 MOL1         0.0950
       7    H5      19.845199   19.950735   25.439528 H          1 MOL1         0.0950
       8    C2      20.533739   19.220461   23.516794 C.3        1 MOL1        -0.1415
       9    H6      21.439658   19.840774   23.501598 H          1 MOL1         0.0976
      10    H7      20.811233   18.259715   23.068942 H          1 MOL1         0.0976
      11    C3      19.424317   19.920120   22.690512 C.3        1 MOL1        -0.1375
      12    H8      19.186286   20.874537   23.180464 H          1 MOL1         0.0976
      13    H9      18.497128   19.332174   22.703921 H          1 MOL1         0.0976
      14    C4      19.838403   20.212468   21.224480 C.3        1 MOL1        -0.1375
      15    H10     19.374453   21.161233   20.921066 H          1 MOL1         0.0976
      16    H11     20.922286   20.379967   21.159593 H          1 MOL1         0.0976
      17    C5      19.404009   19.133669   20.199452 C.3        1 MOL1        -0.1350
      18    H12     19.686472   19.475489   19.193875 H          1 MOL1         0.0976
      19    H13     18.308268   19.049548   20.194801 H          1 MOL1         0.0976
      20    C6      20.023364   17.739633   20.439959 C.3        1 MOL1        -0.2365
      21    H14     21.116469   17.799699   20.519700 H          1 MOL1         0.0987
      22    H15     19.784025   17.065211   19.607643 H          1 MOL1         0.0987
      23    H16     19.629516   17.281246   21.355186 H          1 MOL1         0.0987
@<TRIPOS>BOND
    1     1     2    1
    2     1     3    1
    3     1     4    1
    4     1     5    1
    5     5     6    1
    6     5     7    1
    7     5     8    1
    8     8     9    1
    9     8    10    1
   10     8    11    1
   11    11    12    1
   12    11    13    1
   13    11    14    1
   14    14    15    1
   15    14    16    1
   16    14    17    1
   17    17    18    1
   18    17    19    1
   19    17    20    1
   20    20    21    1
   21    20    22    1
   22    20    23    1
@<TRIPOS>SUBSTRUCTURE
       1 MOL1            1 RESIDUE      1      MOL     
@<SCITEGIC>MOL_PROPERTY
VM2 Rank
SciTegic.value.IntegerValue
64

@<SCITEGIC>MOL_PROPERTY
Conf_Id
SciTegic.value.IntegerValue
730

@<SCITEGIC>MOL_PROPERTY
Probability
SciTegic.value.DoubleValue
0.02

@<SCITEGIC>MOL_PROPERTY
Sum Probability
SciTegic.value.DoubleValue
99.81

@<SCITEGIC>MOL_PROPERTY
Delta G
SciTegic.value.DoubleValue
3.796

@<SCITEGIC>MOL_PROPERTY
G
SciTegic.value.DoubleValue
41.712

@<SCITEGIC>MOL_PROPERTY
E
SciTegic.value.DoubleValue
13.759

@<SCITEGIC>MOL_PROPERTY
-TS
SciTegic.value.DoubleValue
27.953

@<SCITEGIC>MOL_PROPERTY
U+W
SciTegic.value.DoubleValue
-5.020

@<SCITEGIC>MOL_PROPERTY
U
SciTegic.value.DoubleValue
50.975

@<SCITEGIC>MOL_PROPERTY
W
SciTegic.value.DoubleValue
-55.995

@<SCITEGIC>MOL_PROPERTY
W(PB)
SciTegic.value.DoubleValue
-58.046

@<SCITEGIC>MOL_PROPERTY
W(SA)
SciTegic.value.DoubleValue
2.051

@<SCITEGIC>MOL_PROPERTY
Valence
SciTegic.value.DoubleValue
4.792

@<SCITEGIC>MOL_PROPERTY
Coulomb
SciTegic.value.DoubleValue
45.573

@<SCITEGIC>MOL_PROPERTY
VdW
SciTegic.value.DoubleValue
0.610

@<SCITEGIC>MOL_PROPERTY
VdW6
SciTegic.value.DoubleValue
-6.731

@<SCITEGIC>MOL_PROPERTY
VdW12
SciTegic.value.DoubleValue
7.341

@<SCITEGIC>MOL_PROPERTY
Bond
SciTegic.value.DoubleValue
0.224

@<SCITEGIC>MOL_PROPERTY
Angle
SciTegic.value.DoubleValue
1.227

@<SCITEGIC>MOL_PROPERTY
Pdih
SciTegic.value.DoubleValue
3.341

@<SCITEGIC>MOL_PROPERTY
Idih
SciTegic.value.DoubleValue
0.000

@<SCITEGIC>MOL_PROPERTY
Tether
SciTegic.value.DoubleValue
0.000

@<TRIPOS>MOLECULE
guest-2_vm2.mol2 : vm2 ligand conformer 65
          23          22           1
SMALL
USER_CHARGES
 
@<TRIPOS>ATOM
       1    N1      19.536802   18.546358   25.753941 N.4        1 MOL1        -0.5940
       2    H1      19.627073   18.824196   26.737102 H          1 MOL1         0.3649
       3    H2      19.822860   17.563918   25.693817 H          1 MOL1         0.3649
       4    H3      18.539699   18.586170   25.522416 H          1 MOL1         0.3649
       5    C1      20.363503   19.431193   24.841134 C.3        1 MOL1         0.0207
       6    H4      21.403024   19.369233   25.174493 H          1 MOL1         0.0950
       7    H5      20.025762   20.463034   24.970193 H          1 MOL1         0.0950
       8    C2      20.281938   19.040646   23.352492 C.3        1 MOL1        -0.1415
       9    H6      21.003449   19.658517   22.804065 H          1 MOL1         0.0976
      10    H7      20.595512   17.995613   23.229103 H          1 MOL1         0.0976
      11    C3      18.868517   19.248054   22.755810 C.3        1 MOL1        -0.1375
      12    H8      18.600543   20.311964   22.816570 H          1 MOL1         0.0976
      13    H9      18.131338   18.712225   23.368007 H          1 MOL1         0.0976
      14    C4      18.715103   18.761659   21.291249 C.3        1 MOL1        -0.1375
      15    H10     18.875967   17.676213   21.235076 H          1 MOL1         0.0976
      16    H11     17.667701   18.919977   20.999068 H          1 MOL1         0.0976
      17    C5      19.617513   19.491609   20.263011 C.3        1 MOL1        -0.1350
      18    H12     19.833189   20.514551   20.601641 H          1 MOL1         0.0976
      19    H13     19.060744   19.596931   19.321264 H          1 MOL1         0.0976
      20    C6      20.932623   18.737480   19.956362 C.3        1 MOL1        -0.2365
      21    H14     21.525720   19.286465   19.213551 H          1 MOL1         0.0987
      22    H15     20.725590   17.740761   19.545573 H          1 MOL1         0.0987
      23    H16     21.554215   18.610879   20.849512 H          1 MOL1         0.0987
@<TRIPOS>BOND
    1     1     2    1
    2     1     3    1
    3     1     4    1
    4     1     5    1
    5     5     6    1
    6     5     7    1
    7     5     8    1
    8     8     9    1
    9     8    10    1
   10     8    11    1
   11    11    12    1
   12    11    13    1
   13    11    14    1
   14    14    15    1
   15    14    16    1
   16    14    17    1
   17    17    18    1
   18    17    19    1
   19    17    20    1
   20    20    21    1
   21    20    22    1
   22    20    23    1
@<TRIPOS>SUBSTRUCTURE
       1 MOL1            1 RESIDUE      1      MOL     
@<SCITEGIC>MOL_PROPERTY
VM2 Rank
SciTegic.value.IntegerValue
65

@<SCITEGIC>MOL_PROPERTY
Conf_Id
SciTegic.value.IntegerValue
456

@<SCITEGIC>MOL_PROPERTY
Probability
SciTegic.value.DoubleValue
0.02

@<SCITEGIC>MOL_PROPERTY
Sum Probability
SciTegic.value.DoubleValue
99.83

@<SCITEGIC>MOL_PROPERTY
Delta G
SciTegic.value.DoubleValue
3.803

@<SCITEGIC>MOL_PROPERTY
G
SciTegic.value.DoubleValue
41.719

@<SCITEGIC>MOL_PROPERTY
E
SciTegic.value.DoubleValue
13.770

@<SCITEGIC>MOL_PROPERTY
-TS
SciTegic.value.DoubleValue
27.949

@<SCITEGIC>MOL_PROPERTY
U+W
SciTegic.value.DoubleValue
-5.009

@<SCITEGIC>MOL_PROPERTY
U
SciTegic.value.DoubleValue
50.701

@<SCITEGIC>MOL_PROPERTY
W
SciTegic.value.DoubleValue
-55.710

@<SCITEGIC>MOL_PROPERTY
W(PB)
SciTegic.value.DoubleValue
-57.768

@<SCITEGIC>MOL_PROPERTY
W(SA)
SciTegic.value.DoubleValue
2.058

@<SCITEGIC>MOL_PROPERTY
Valence
SciTegic.value.DoubleValue
4.880

@<SCITEGIC>MOL_PROPERTY
Coulomb
SciTegic.value.DoubleValue
45.095

@<SCITEGIC>MOL_PROPERTY
VdW
SciTegic.value.DoubleValue
0.726

@<SCITEGIC>MOL_PROPERTY
VdW6
SciTegic.value.DoubleValue
-6.620

@<SCITEGIC>MOL_PROPERTY
VdW12
SciTegic.value.DoubleValue
7.346

@<SCITEGIC>MOL_PROPERTY
Bond
SciTegic.value.DoubleValue
0.222

@<SCITEGIC>MOL_PROPERTY
Angle
SciTegic.value.DoubleValue
1.260

@<SCITEGIC>MOL_PROPERTY
Pdih
SciTegic.value.DoubleValue
3.398

@<SCITEGIC>MOL_PROPERTY
Idih
SciTegic.value.DoubleValue
0.000

@<SCITEGIC>MOL_PROPERTY
Tether
SciTegic.value.DoubleValue
0.000

@<TRIPOS>MOLECULE
guest-2_vm2.mol2 : vm2 ligand conformer 66
          23          22           1
SMALL
USER_CHARGES
 
@<TRIPOS>ATOM
       1    N1      20.989755   18.913806   24.756547 N.4        1 MOL1        -0.5940
       2    H1      20.863201   19.528428   25.567025 H          1 MOL1         0.3649
       3    H2      21.355113   19.490611   23.993065 H          1 MOL1         0.3649
       4    H3      21.721295   18.239123   25.004525 H          1 MOL1         0.3649
       5    C1      19.696201   18.225406   24.367153 C.3        1 MOL1         0.0207
       6    H4      19.378464   17.613678   25.215881 H          1 MOL1         0.0950
       7    H5      19.899717   17.554757   23.529516 H          1 MOL1         0.0950
       8    C2      18.564331   19.201473   23.992943 C.3        1 MOL1        -0.1415
       9    H6      17.658172   18.621075   23.774423 H          1 MOL1         0.0976
      10    H7      18.324967   19.812867   24.873130 H          1 MOL1         0.0976
      11    C3      18.869209   20.142024   22.796343 C.3        1 MOL1        -0.1375
      12    H8      19.735985   20.780036   23.014181 H          1 MOL1         0.0976
      13    H9      18.018402   20.830812   22.700542 H          1 MOL1         0.0976
      14    C4      19.052982   19.426406   21.432142 C.3        1 MOL1        -0.1375
      15    H10     18.371365   18.567546   21.362297 H          1 MOL1         0.0976
      16    H11     18.744553   20.121845   20.639162 H          1 MOL1         0.0976
      17    C5      20.506758   18.983073   21.138577 C.3        1 MOL1        -0.1350
      18    H12     20.846926   18.248781   21.877185 H          1 MOL1         0.0976
      19    H13     21.180491   19.847709   21.216041 H          1 MOL1         0.0976
      20    C6      20.636763   18.364812   19.730296 C.3        1 MOL1        -0.2365
      21    H14     19.997283   17.478320   19.628177 H          1 MOL1         0.0987
      22    H15     21.672440   18.057102   19.536051 H          1 MOL1         0.0987
      23    H16     20.348713   19.085415   18.953779 H          1 MOL1         0.0987
@<TRIPOS>BOND
    1     1     2    1
    2     1     3    1
    3     1     4    1
    4     1     5    1
    5     5     6    1
    6     5     7    1
    7     5     8    1
    8     8     9    1
    9     8    10    1
   10     8    11    1
   11    11    12    1
   12    11    13    1
   13    11    14    1
   14    14    15    1
   15    14    16    1
   16    14    17    1
   17    17    18    1
   18    17    19    1
   19    17    20    1
   20    20    21    1
   21    20    22    1
   22    20    23    1
@<TRIPOS>SUBSTRUCTURE
       1 MOL1            1 RESIDUE      1      MOL     
@<SCITEGIC>MOL_PROPERTY
VM2 Rank
SciTegic.value.IntegerValue
66

@<SCITEGIC>MOL_PROPERTY
Conf_Id
SciTegic.value.IntegerValue
124

@<SCITEGIC>MOL_PROPERTY
Probability
SciTegic.value.DoubleValue
0.02

@<SCITEGIC>MOL_PROPERTY
Sum Probability
SciTegic.value.DoubleValue
99.85

@<SCITEGIC>MOL_PROPERTY
Delta G
SciTegic.value.DoubleValue
3.856

@<SCITEGIC>MOL_PROPERTY
G
SciTegic.value.DoubleValue
41.773

@<SCITEGIC>MOL_PROPERTY
E
SciTegic.value.DoubleValue
13.753

@<SCITEGIC>MOL_PROPERTY
-TS
SciTegic.value.DoubleValue
28.020

@<SCITEGIC>MOL_PROPERTY
U+W
SciTegic.value.DoubleValue
-5.026

@<SCITEGIC>MOL_PROPERTY
U
SciTegic.value.DoubleValue
51.112

@<SCITEGIC>MOL_PROPERTY
W
SciTegic.value.DoubleValue
-56.138

@<SCITEGIC>MOL_PROPERTY
W(PB)
SciTegic.value.DoubleValue
-58.230

@<SCITEGIC>MOL_PROPERTY
W(SA)
SciTegic.value.DoubleValue
2.093

@<SCITEGIC>MOL_PROPERTY
Valence
SciTegic.value.DoubleValue
4.455

@<SCITEGIC>MOL_PROPERTY
Coulomb
SciTegic.value.DoubleValue
46.320

@<SCITEGIC>MOL_PROPERTY
VdW
SciTegic.value.DoubleValue
0.337

@<SCITEGIC>MOL_PROPERTY
VdW6
SciTegic.value.DoubleValue
-7.022

@<SCITEGIC>MOL_PROPERTY
VdW12
SciTegic.value.DoubleValue
7.359

@<SCITEGIC>MOL_PROPERTY
Bond
SciTegic.value.DoubleValue
0.222

@<SCITEGIC>MOL_PROPERTY
Angle
SciTegic.value.DoubleValue
1.455

@<SCITEGIC>MOL_PROPERTY
Pdih
SciTegic.value.DoubleValue
2.778

@<SCITEGIC>MOL_PROPERTY
Idih
SciTegic.value.DoubleValue
0.000

@<SCITEGIC>MOL_PROPERTY
Tether
SciTegic.value.DoubleValue
0.000

@<TRIPOS>MOLECULE
guest-2_vm2.mol2 : vm2 ligand conformer 67
          23          22           1
SMALL
USER_CHARGES
 
@<TRIPOS>ATOM
       1    N1      20.302567   18.196768   25.653899 N.4        1 MOL1        -0.5940
       2    H1      20.955009   18.563599   26.355147 H          1 MOL1         0.3649
       3    H2      20.719022   17.338112   25.279738 H          1 MOL1         0.3649
       4    H3      19.449836   17.925521   26.153974 H          1 MOL1         0.3649
       5    C1      20.020189   19.210211   24.563448 C.3        1 MOL1         0.0207
       6    H4      20.972827   19.474735   24.097961 H          1 MOL1         0.0950
       7    H5      19.607272   20.106223   25.034661 H          1 MOL1         0.0950
       8    C2      19.040665   18.689291   23.494441 C.3        1 MOL1        -0.1415
       9    H6      19.450842   17.784115   23.033262 H          1 MOL1         0.0976
      10    H7      18.106304   18.389749   23.987398 H          1 MOL1         0.0976
      11    C3      18.713492   19.753426   22.416064 C.3        1 MOL1        -0.1375
      12    H8      18.331442   20.648445   22.926578 H          1 MOL1         0.0976
      13    H9      17.887328   19.398680   21.784662 H          1 MOL1         0.0976
      14    C4      19.913687   20.166888   21.520690 C.3        1 MOL1        -0.1375
      15    H10     19.792583   21.227571   21.260503 H          1 MOL1         0.0976
      16    H11     20.857635   20.108487   22.077429 H          1 MOL1         0.0976
      17    C5      20.036020   19.376513   20.192839 C.3        1 MOL1        -0.1350
      18    H12     20.863126   19.804219   19.609063 H          1 MOL1         0.0976
      19    H13     19.129800   19.525508   19.589248 H          1 MOL1         0.0976
      20    C6      20.289380   17.863902   20.372620 C.3        1 MOL1        -0.2365
      21    H14     19.407917   17.358962   20.786032 H          1 MOL1         0.0987
      22    H15     21.143344   17.680791   21.037530 H          1 MOL1         0.0987
      23    H16     20.510298   17.394796   19.405139 H          1 MOL1         0.0987
@<TRIPOS>BOND
    1     1     2    1
    2     1     3    1
    3     1     4    1
    4     1     5    1
    5     5     6    1
    6     5     7    1
    7     5     8    1
    8     8     9    1
    9     8    10    1
   10     8    11    1
   11    11    12    1
   12    11    13    1
   13    11    14    1
   14    14    15    1
   15    14    16    1
   16    14    17    1
   17    17    18    1
   18    17    19    1
   19    17    20    1
   20    20    21    1
   21    20    22    1
   22    20    23    1
@<TRIPOS>SUBSTRUCTURE
       1 MOL1            1 RESIDUE      1      MOL     
@<SCITEGIC>MOL_PROPERTY
VM2 Rank
SciTegic.value.IntegerValue
67

@<SCITEGIC>MOL_PROPERTY
Conf_Id
SciTegic.value.IntegerValue
915

@<SCITEGIC>MOL_PROPERTY
Probability
SciTegic.value.DoubleValue
0.02

@<SCITEGIC>MOL_PROPERTY
Sum Probability
SciTegic.value.DoubleValue
99.87

@<SCITEGIC>MOL_PROPERTY
Delta G
SciTegic.value.DoubleValue
3.869

@<SCITEGIC>MOL_PROPERTY
G
SciTegic.value.DoubleValue
41.785

@<SCITEGIC>MOL_PROPERTY
E
SciTegic.value.DoubleValue
13.890

@<SCITEGIC>MOL_PROPERTY
-TS
SciTegic.value.DoubleValue
27.895

@<SCITEGIC>MOL_PROPERTY
U+W
SciTegic.value.DoubleValue
-4.889

@<SCITEGIC>MOL_PROPERTY
U
SciTegic.value.DoubleValue
51.036

@<SCITEGIC>MOL_PROPERTY
W
SciTegic.value.DoubleValue
-55.925

@<SCITEGIC>MOL_PROPERTY
W(PB)
SciTegic.value.DoubleValue
-57.988

@<SCITEGIC>MOL_PROPERTY
W(SA)
SciTegic.value.DoubleValue
2.063

@<SCITEGIC>MOL_PROPERTY
Valence
SciTegic.value.DoubleValue
5.117

@<SCITEGIC>MOL_PROPERTY
Coulomb
SciTegic.value.DoubleValue
45.321

@<SCITEGIC>MOL_PROPERTY
VdW
SciTegic.value.DoubleValue
0.598

@<SCITEGIC>MOL_PROPERTY
VdW6
SciTegic.value.DoubleValue
-6.707

@<SCITEGIC>MOL_PROPERTY
VdW12
SciTegic.value.DoubleValue
7.304

@<SCITEGIC>MOL_PROPERTY
Bond
SciTegic.value.DoubleValue
0.233

@<SCITEGIC>MOL_PROPERTY
Angle
SciTegic.value.DoubleValue
1.409

@<SCITEGIC>MOL_PROPERTY
Pdih
SciTegic.value.DoubleValue
3.475

@<SCITEGIC>MOL_PROPERTY
Idih
SciTegic.value.DoubleValue
0.000

@<SCITEGIC>MOL_PROPERTY
Tether
SciTegic.value.DoubleValue
0.000

@<TRIPOS>MOLECULE
guest-2_vm2.mol2 : vm2 ligand conformer 68
          23          22           1
SMALL
USER_CHARGES
 
@<TRIPOS>ATOM
       1    N1      19.736243   17.961032   25.627928 N.4        1 MOL1        -0.5940
       2    H1      18.964154   17.735053   26.264172 H          1 MOL1         0.3649
       3    H2      20.487941   18.357362   26.201228 H          1 MOL1         0.3649
       4    H3      20.081067   17.072597   25.250435 H          1 MOL1         0.3649
       5    C1      19.301418   18.911114   24.530585 C.3        1 MOL1         0.0207
       6    H4      18.920111   19.820250   25.003297 H          1 MOL1         0.0950
       7    H5      18.481686   18.438155   23.984215 H          1 MOL1         0.0950
       8    C2      20.440721   19.271917   23.558260 C.3        1 MOL1        -0.1415
       9    H6      21.270262   19.706406   24.131707 H          1 MOL1         0.0976
      10    H7      20.829710   18.357917   23.096131 H          1 MOL1         0.0976
      11    C3      20.000499   20.288988   22.474699 C.3        1 MOL1        -0.1375
      12    H8      20.880513   20.644093   21.921041 H          1 MOL1         0.0976
      13    H9      19.595316   21.174393   22.984139 H          1 MOL1         0.0976
      14    C4      18.934795   19.759706   21.476071 C.3        1 MOL1        -0.1375
      15    H10     18.270346   19.032282   21.959564 H          1 MOL1         0.0976
      16    H11     18.289025   20.602094   21.191863 H          1 MOL1         0.0976
      17    C5      19.511530   19.158209   20.169003 C.3        1 MOL1        -0.1350
      18    H12     20.088881   19.924374   19.632895 H          1 MOL1         0.0976
      19    H13     18.673420   18.893012   19.509402 H          1 MOL1         0.0976
      20    C6      20.390794   17.906033   20.377454 C.3        1 MOL1        -0.2365
      21    H14     19.869565   17.150872   20.979900 H          1 MOL1         0.0987
      22    H15     21.334999   18.160728   20.873903 H          1 MOL1         0.0987
      23    H16     20.642817   17.449722   19.411458 H          1 MOL1         0.0987
@<TRIPOS>BOND
    1     1     2    1
    2     1     3    1
    3     1     4    1
    4     1     5    1
    5     5     6    1
    6     5     7    1
    7     5     8    1
    8     8     9    1
    9     8    10    1
   10     8    11    1
   11    11    12    1
   12    11    13    1
   13    11    14    1
   14    14    15    1
   15    14    16    1
   16    14    17    1
   17    17    18    1
   18    17    19    1
   19    17    20    1
   20    20    21    1
   21    20    22    1
   22    20    23    1
@<TRIPOS>SUBSTRUCTURE
       1 MOL1            1 RESIDUE      1      MOL     
@<SCITEGIC>MOL_PROPERTY
VM2 Rank
SciTegic.value.IntegerValue
68

@<SCITEGIC>MOL_PROPERTY
Conf_Id
SciTegic.value.IntegerValue
666

@<SCITEGIC>MOL_PROPERTY
Probability
SciTegic.value.DoubleValue
0.02

@<SCITEGIC>MOL_PROPERTY
Sum Probability
SciTegic.value.DoubleValue
99.89

@<SCITEGIC>MOL_PROPERTY
Delta G
SciTegic.value.DoubleValue
3.871

@<SCITEGIC>MOL_PROPERTY
G
SciTegic.value.DoubleValue
41.788

@<SCITEGIC>MOL_PROPERTY
E
SciTegic.value.DoubleValue
13.893

@<SCITEGIC>MOL_PROPERTY
-TS
SciTegic.value.DoubleValue
27.895

@<SCITEGIC>MOL_PROPERTY
U+W
SciTegic.value.DoubleValue
-4.886

@<SCITEGIC>MOL_PROPERTY
U
SciTegic.value.DoubleValue
51.036

@<SCITEGIC>MOL_PROPERTY
W
SciTegic.value.DoubleValue
-55.922

@<SCITEGIC>MOL_PROPERTY
W(PB)
SciTegic.value.DoubleValue
-57.980

@<SCITEGIC>MOL_PROPERTY
W(SA)
SciTegic.value.DoubleValue
2.057

@<SCITEGIC>MOL_PROPERTY
Valence
SciTegic.value.DoubleValue
5.117

@<SCITEGIC>MOL_PROPERTY
Coulomb
SciTegic.value.DoubleValue
45.322

@<SCITEGIC>MOL_PROPERTY
VdW
SciTegic.value.DoubleValue
0.598

@<SCITEGIC>MOL_PROPERTY
VdW6
SciTegic.value.DoubleValue
-6.707

@<SCITEGIC>MOL_PROPERTY
VdW12
SciTegic.value.DoubleValue
7.305

@<SCITEGIC>MOL_PROPERTY
Bond
SciTegic.value.DoubleValue
0.233

@<SCITEGIC>MOL_PROPERTY
Angle
SciTegic.value.DoubleValue
1.410

@<SCITEGIC>MOL_PROPERTY
Pdih
SciTegic.value.DoubleValue
3.474

@<SCITEGIC>MOL_PROPERTY
Idih
SciTegic.value.DoubleValue
0.000

@<SCITEGIC>MOL_PROPERTY
Tether
SciTegic.value.DoubleValue
0.000

@<TRIPOS>MOLECULE
guest-2_vm2.mol2 : vm2 ligand conformer 69
          23          22           1
SMALL
USER_CHARGES
 
@<TRIPOS>ATOM
       1    N1      18.816287   18.008913   24.657482 N.4        1 MOL1        -0.5940
       2    H1      18.406907   18.505634   25.455183 H          1 MOL1         0.3649
       3    H2      18.761792   17.006953   24.869486 H          1 MOL1         0.3649
       4    H3      18.210501   18.181573   23.849829 H          1 MOL1         0.3649
       5    C1      20.241616   18.452465   24.391941 C.3        1 MOL1         0.0207
       6    H4      20.638813   17.862555   23.563046 H          1 MOL1         0.0950
       7    H5      20.832111   18.218743   25.281996 H          1 MOL1         0.0950
       8    C2      20.373233   19.954587   24.075438 C.3        1 MOL1        -0.1415
       9    H6      20.039681   20.526752   24.951336 H          1 MOL1         0.0976
      10    H7      21.437046   20.194377   23.946826 H          1 MOL1         0.0976
      11    C3      19.585980   20.440435   22.828995 C.3        1 MOL1        -0.1375
      12    H8      19.702445   21.531874   22.777244 H          1 MOL1         0.0976
      13    H9      18.509022   20.269315   22.958190 H          1 MOL1         0.0976
      14    C4      20.069821   19.849628   21.478521 C.3        1 MOL1        -0.1375
      15    H10     19.855362   20.584129   20.689789 H          1 MOL1         0.0976
      16    H11     21.161798   19.728867   21.489662 H          1 MOL1         0.0976
      17    C5      19.386433   18.516871   21.087451 C.3        1 MOL1        -0.1350
      18    H12     18.295311   18.647087   21.084181 H          1 MOL1         0.0976
      19    H13     19.610224   17.734283   21.820879 H          1 MOL1         0.0976
      20    C6      19.842630   18.034101   19.694172 C.3        1 MOL1        -0.2365
      21    H14     19.348848   17.089904   19.430138 H          1 MOL1         0.0987
      22    H15     20.927105   17.864979   19.670931 H          1 MOL1         0.0987
      23    H16     19.594927   18.771355   18.919369 H          1 MOL1         0.0987
@<TRIPOS>BOND
    1     1     2    1
    2     1     3    1
    3     1     4    1
    4     1     5    1
    5     5     6    1
    6     5     7    1
    7     5     8    1
    8     8     9    1
    9     8    10    1
   10     8    11    1
   11    11    12    1
   12    11    13    1
   13    11    14    1
   14    14    15    1
   15    14    16    1
   16    14    17    1
   17    17    18    1
   18    17    19    1
   19    17    20    1
   20    20    21    1
   21    20    22    1
   22    20    23    1
@<TRIPOS>SUBSTRUCTURE
       1 MOL1            1 RESIDUE      1      MOL     
@<SCITEGIC>MOL_PROPERTY
VM2 Rank
SciTegic.value.IntegerValue
69

@<SCITEGIC>MOL_PROPERTY
Conf_Id
SciTegic.value.IntegerValue
126

@<SCITEGIC>MOL_PROPERTY
Probability
SciTegic.value.DoubleValue
0.02

@<SCITEGIC>MOL_PROPERTY
Sum Probability
SciTegic.value.DoubleValue
99.90

@<SCITEGIC>MOL_PROPERTY
Delta G
SciTegic.value.DoubleValue
3.925

@<SCITEGIC>MOL_PROPERTY
G
SciTegic.value.DoubleValue
41.841

@<SCITEGIC>MOL_PROPERTY
E
SciTegic.value.DoubleValue
13.821

@<SCITEGIC>MOL_PROPERTY
-TS
SciTegic.value.DoubleValue
28.020

@<SCITEGIC>MOL_PROPERTY
U+W
SciTegic.value.DoubleValue
-4.958

@<SCITEGIC>MOL_PROPERTY
U
SciTegic.value.DoubleValue
51.112

@<SCITEGIC>MOL_PROPERTY
W
SciTegic.value.DoubleValue
-56.070

@<SCITEGIC>MOL_PROPERTY
W(PB)
SciTegic.value.DoubleValue
-58.128

@<SCITEGIC>MOL_PROPERTY
W(SA)
SciTegic.value.DoubleValue
2.058

@<SCITEGIC>MOL_PROPERTY
Valence
SciTegic.value.DoubleValue
4.455

@<SCITEGIC>MOL_PROPERTY
Coulomb
SciTegic.value.DoubleValue
46.320

@<SCITEGIC>MOL_PROPERTY
VdW
SciTegic.value.DoubleValue
0.337

@<SCITEGIC>MOL_PROPERTY
VdW6
SciTegic.value.DoubleValue
-7.022

@<SCITEGIC>MOL_PROPERTY
VdW12
SciTegic.value.DoubleValue
7.359

@<SCITEGIC>MOL_PROPERTY
Bond
SciTegic.value.DoubleValue
0.222

@<SCITEGIC>MOL_PROPERTY
Angle
SciTegic.value.DoubleValue
1.454

@<SCITEGIC>MOL_PROPERTY
Pdih
SciTegic.value.DoubleValue
2.779

@<SCITEGIC>MOL_PROPERTY
Idih
SciTegic.value.DoubleValue
0.000

@<SCITEGIC>MOL_PROPERTY
Tether
SciTegic.value.DoubleValue
0.000

@<TRIPOS>MOLECULE
guest-2_vm2.mol2 : vm2 ligand conformer 70
          23          22           1
SMALL
USER_CHARGES
 
@<TRIPOS>ATOM
       1    N1      20.055994   17.778589   25.251344 N.4        1 MOL1        -0.5940
       2    H1      20.339883   18.353517   26.051117 H          1 MOL1         0.3649
       3    H2      20.902594   17.331004   24.886163 H          1 MOL1         0.3649
       4    H3      19.458072   17.031112   25.619695 H          1 MOL1         0.3649
       5    C1      19.345745   18.596769   24.192210 C.3        1 MOL1         0.0207
       6    H4      18.443042   19.020013   24.640908 H          1 MOL1         0.0950
       7    H5      19.044750   17.918940   23.389286 H          1 MOL1         0.0950
       8    C2      20.217658   19.728964   23.617481 C.3        1 MOL1        -0.1415
       9    H6      20.532730   20.387661   24.437607 H          1 MOL1         0.0976
      10    H7      21.138882   19.317400   23.187627 H          1 MOL1         0.0976
      11    C3      19.473481   20.576241   22.558062 C.3        1 MOL1        -0.1375
      12    H8      20.144094   21.371223   22.203862 H          1 MOL1         0.0976
      13    H9      18.634811   21.090054   23.048062 H          1 MOL1         0.0976
      14    C4      18.923016   19.794882   21.334206 C.3        1 MOL1        -0.1375
      15    H10     18.174966   19.055111   21.649263 H          1 MOL1         0.0976
      16    H11     18.373415   20.514327   20.711464 H          1 MOL1         0.0976
      17    C5      20.002567   19.126538   20.443609 C.3        1 MOL1        -0.1350
      18    H12     20.929208   19.716995   20.458279 H          1 MOL1         0.0976
      19    H13     19.650833   19.143967   19.402479 H          1 MOL1         0.0976
      20    C6      20.297539   17.655017   20.817088 C.3        1 MOL1        -0.2365
      21    H14     19.382452   17.049639   20.784696 H          1 MOL1         0.0987
      22    H15     20.732388   17.561121   21.817364 H          1 MOL1         0.0987
      23    H16     21.010771   17.216610   20.107167 H          1 MOL1         0.0987
@<TRIPOS>BOND
    1     1     2    1
    2     1     3    1
    3     1     4    1
    4     1     5    1
    5     5     6    1
    6     5     7    1
    7     5     8    1
    8     8     9    1
    9     8    10    1
   10     8    11    1
   11    11    12    1
   12    11    13    1
   13    11    14    1
   14    14    15    1
   15    14    16    1
   16    14    17    1
   17    17    18    1
   18    17    19    1
   19    17    20    1
   20    20    21    1
   21    20    22    1
   22    20    23    1
@<TRIPOS>SUBSTRUCTURE
       1 MOL1            1 RESIDUE      1      MOL     
@<SCITEGIC>MOL_PROPERTY
VM2 Rank
SciTegic.value.IntegerValue
70

@<SCITEGIC>MOL_PROPERTY
Conf_Id
SciTegic.value.IntegerValue
765

@<SCITEGIC>MOL_PROPERTY
Probability
SciTegic.value.DoubleValue
0.02

@<SCITEGIC>MOL_PROPERTY
Sum Probability
SciTegic.value.DoubleValue
99.92

@<SCITEGIC>MOL_PROPERTY
Delta G
SciTegic.value.DoubleValue
3.977

@<SCITEGIC>MOL_PROPERTY
G
SciTegic.value.DoubleValue
41.893

@<SCITEGIC>MOL_PROPERTY
E
SciTegic.value.DoubleValue
13.665

@<SCITEGIC>MOL_PROPERTY
-TS
SciTegic.value.DoubleValue
28.229

@<SCITEGIC>MOL_PROPERTY
U+W
SciTegic.value.DoubleValue
-5.114

@<SCITEGIC>MOL_PROPERTY
U
SciTegic.value.DoubleValue
51.053

@<SCITEGIC>MOL_PROPERTY
W
SciTegic.value.DoubleValue
-56.167

@<SCITEGIC>MOL_PROPERTY
W(PB)
SciTegic.value.DoubleValue
-58.205

@<SCITEGIC>MOL_PROPERTY
W(SA)
SciTegic.value.DoubleValue
2.037

@<SCITEGIC>MOL_PROPERTY
Valence
SciTegic.value.DoubleValue
5.021

@<SCITEGIC>MOL_PROPERTY
Coulomb
SciTegic.value.DoubleValue
45.787

@<SCITEGIC>MOL_PROPERTY
VdW
SciTegic.value.DoubleValue
0.245

@<SCITEGIC>MOL_PROPERTY
VdW6
SciTegic.value.DoubleValue
-7.353

@<SCITEGIC>MOL_PROPERTY
VdW12
SciTegic.value.DoubleValue
7.597

@<SCITEGIC>MOL_PROPERTY
Bond
SciTegic.value.DoubleValue
0.229

@<SCITEGIC>MOL_PROPERTY
Angle
SciTegic.value.DoubleValue
1.631

@<SCITEGIC>MOL_PROPERTY
Pdih
SciTegic.value.DoubleValue
3.162

@<SCITEGIC>MOL_PROPERTY
Idih
SciTegic.value.DoubleValue
0.000

@<SCITEGIC>MOL_PROPERTY
Tether
SciTegic.value.DoubleValue
0.000

@<TRIPOS>MOLECULE
guest-2_vm2.mol2 : vm2 ligand conformer 71
          23          22           1
SMALL
USER_CHARGES
 
@<TRIPOS>ATOM
       1    N1      20.236654   17.853828   25.259683 N.4        1 MOL1        -0.5940
       2    H1      19.568342   18.032687   26.016083 H          1 MOL1         0.3649
       3    H2      21.157033   17.738022   25.697184 H          1 MOL1         0.3649
       4    H3      19.987607   16.950404   24.844685 H          1 MOL1         0.3649
       5    C1      20.237981   18.967962   24.232868 C.3        1 MOL1         0.0207
       6    H4      20.991458   18.728776   23.478016 H          1 MOL1         0.0950
       7    H5      20.537092   19.891258   24.736250 H          1 MOL1         0.0950
       8    C2      18.868905   19.167743   23.556011 C.3        1 MOL1        -0.1415
       9    H6      18.547118   18.238991   23.069507 H          1 MOL1         0.0976
      10    H7      18.117749   19.382802   24.327550 H          1 MOL1         0.0976
      11    C3      18.873391   20.326533   22.530712 C.3        1 MOL1        -0.1375
      12    H8      19.060152   21.267019   23.067439 H          1 MOL1         0.0976
      13    H9      17.867269   20.423845   22.100099 H          1 MOL1         0.0976
      14    C4      19.907922   20.204673   21.379084 C.3        1 MOL1        -0.1375
      15    H10     19.832533   21.121432   20.777968 H          1 MOL1         0.0976
      16    H11     20.932329   20.202358   21.774918 H          1 MOL1         0.0976
      17    C5      19.692549   18.997568   20.429462 C.3        1 MOL1        -0.1350
      18    H12     20.007755   19.292543   19.418715 H          1 MOL1         0.0976
      19    H13     18.622956   18.757409   20.353214 H          1 MOL1         0.0976
      20    C6      20.498597   17.738693   20.826181 C.3        1 MOL1        -0.2365
      21    H14     20.182416   17.332294   21.792273 H          1 MOL1         0.0987
      22    H15     21.572024   17.960713   20.884294 H          1 MOL1         0.0987
      23    H16     20.363451   16.947298   20.077638 H          1 MOL1         0.0987
@<TRIPOS>BOND
    1     1     2    1
    2     1     3    1
    3     1     4    1
    4     1     5    1
    5     5     6    1
    6     5     7    1
    7     5     8    1
    8     8     9    1
    9     8    10    1
   10     8    11    1
   11    11    12    1
   12    11    13    1
   13    11    14    1
   14    14    15    1
   15    14    16    1
   16    14    17    1
   17    17    18    1
   18    17    19    1
   19    17    20    1
   20    20    21    1
   21    20    22    1
   22    20    23    1
@<TRIPOS>SUBSTRUCTURE
       1 MOL1            1 RESIDUE      1      MOL     
@<SCITEGIC>MOL_PROPERTY
VM2 Rank
SciTegic.value.IntegerValue
71

@<SCITEGIC>MOL_PROPERTY
Conf_Id
SciTegic.value.IntegerValue
880

@<SCITEGIC>MOL_PROPERTY
Probability
SciTegic.value.DoubleValue
0.01

@<SCITEGIC>MOL_PROPERTY
Sum Probability
SciTegic.value.DoubleValue
99.93

@<SCITEGIC>MOL_PROPERTY
Delta G
SciTegic.value.DoubleValue
4.047

@<SCITEGIC>MOL_PROPERTY
G
SciTegic.value.DoubleValue
41.963

@<SCITEGIC>MOL_PROPERTY
E
SciTegic.value.DoubleValue
13.735

@<SCITEGIC>MOL_PROPERTY
-TS
SciTegic.value.DoubleValue
28.229

@<SCITEGIC>MOL_PROPERTY
U+W
SciTegic.value.DoubleValue
-5.044

@<SCITEGIC>MOL_PROPERTY
U
SciTegic.value.DoubleValue
51.053

@<SCITEGIC>MOL_PROPERTY
W
SciTegic.value.DoubleValue
-56.097

@<SCITEGIC>MOL_PROPERTY
W(PB)
SciTegic.value.DoubleValue
-58.132

@<SCITEGIC>MOL_PROPERTY
W(SA)
SciTegic.value.DoubleValue
2.034

@<SCITEGIC>MOL_PROPERTY
Valence
SciTegic.value.DoubleValue
5.021

@<SCITEGIC>MOL_PROPERTY
Coulomb
SciTegic.value.DoubleValue
45.787

@<SCITEGIC>MOL_PROPERTY
VdW
SciTegic.value.DoubleValue
0.245

@<SCITEGIC>MOL_PROPERTY
VdW6
SciTegic.value.DoubleValue
-7.352

@<SCITEGIC>MOL_PROPERTY
VdW12
SciTegic.value.DoubleValue
7.597

@<SCITEGIC>MOL_PROPERTY
Bond
SciTegic.value.DoubleValue
0.229

@<SCITEGIC>MOL_PROPERTY
Angle
SciTegic.value.DoubleValue
1.631

@<SCITEGIC>MOL_PROPERTY
Pdih
SciTegic.value.DoubleValue
3.162

@<SCITEGIC>MOL_PROPERTY
Idih
SciTegic.value.DoubleValue
0.000

@<SCITEGIC>MOL_PROPERTY
Tether
SciTegic.value.DoubleValue
0.000

@<TRIPOS>MOLECULE
guest-2_vm2.mol2 : vm2 ligand conformer 72
          23          22           1
SMALL
USER_CHARGES
 
@<TRIPOS>ATOM
       1    N1      20.068118   19.308299   25.507794 N.4        1 MOL1        -0.5940
       2    H1      20.083326   20.257779   25.123311 H          1 MOL1         0.3649
       3    H2      20.849329   19.238781   26.168591 H          1 MOL1         0.3649
       4    H3      19.205454   19.215404   26.053389 H          1 MOL1         0.3649
       5    C1      20.159276   18.261195   24.415288 C.3        1 MOL1         0.0207
       6    H4      20.176935   17.279855   24.897126 H          1 MOL1         0.0950
       7    H5      21.109882   18.397273   23.893915 H          1 MOL1         0.0950
       8    C2      18.994040   18.311680   23.405309 C.3        1 MOL1        -0.1415
       9    H6      19.111683   17.484027   22.697738 H          1 MOL1         0.0976
      10    H7      18.055422   18.115430   23.940206 H          1 MOL1         0.0976
      11    C3      18.866687   19.659210   22.643433 C.3        1 MOL1        -0.1375
      12    H8      18.672445   20.454059   23.375746 H          1 MOL1         0.0976
      13    H9      17.974973   19.633938   22.002213 H          1 MOL1         0.0976
      14    C4      20.104151   20.061608   21.794350 C.3        1 MOL1        -0.1375
      15    H10     20.164294   21.158731   21.786270 H          1 MOL1         0.0976
      16    H11     21.034426   19.723676   22.267755 H          1 MOL1         0.0976
      17    C5      20.064456   19.593883   20.316968 C.3        1 MOL1        -0.1350
      18    H12     20.942307   20.006332   19.800155 H          1 MOL1         0.0976
      19    H13     19.187018   20.025516   19.815456 H          1 MOL1         0.0976
      20    C6      20.059271   18.061126   20.130859 C.3        1 MOL1        -0.2365
      21    H14     19.102771   17.625770   20.443786 H          1 MOL1         0.0987
      22    H15     20.866429   17.588105   20.704990 H          1 MOL1         0.0987
      23    H16     20.203161   17.803433   19.073612 H          1 MOL1         0.0987
@<TRIPOS>BOND
    1     1     2    1
    2     1     3    1
    3     1     4    1
    4     1     5    1
    5     5     6    1
    6     5     7    1
    7     5     8    1
    8     8     9    1
    9     8    10    1
   10     8    11    1
   11    11    12    1
   12    11    13    1
   13    11    14    1
   14    14    15    1
   15    14    16    1
   16    14    17    1
   17    17    18    1
   18    17    19    1
   19    17    20    1
   20    20    21    1
   21    20    22    1
   22    20    23    1
@<TRIPOS>SUBSTRUCTURE
       1 MOL1            1 RESIDUE      1      MOL     
@<SCITEGIC>MOL_PROPERTY
VM2 Rank
SciTegic.value.IntegerValue
72

@<SCITEGIC>MOL_PROPERTY
Conf_Id
SciTegic.value.IntegerValue
127

@<SCITEGIC>MOL_PROPERTY
Probability
SciTegic.value.DoubleValue
0.01

@<SCITEGIC>MOL_PROPERTY
Sum Probability
SciTegic.value.DoubleValue
99.94

@<SCITEGIC>MOL_PROPERTY
Delta G
SciTegic.value.DoubleValue
4.170

@<SCITEGIC>MOL_PROPERTY
G
SciTegic.value.DoubleValue
42.087

@<SCITEGIC>MOL_PROPERTY
E
SciTegic.value.DoubleValue
14.191

@<SCITEGIC>MOL_PROPERTY
-TS
SciTegic.value.DoubleValue
27.895

@<SCITEGIC>MOL_PROPERTY
U+W
SciTegic.value.DoubleValue
-4.588

@<SCITEGIC>MOL_PROPERTY
U
SciTegic.value.DoubleValue
51.455

@<SCITEGIC>MOL_PROPERTY
W
SciTegic.value.DoubleValue
-56.042

@<SCITEGIC>MOL_PROPERTY
W(PB)
SciTegic.value.DoubleValue
-58.082

@<SCITEGIC>MOL_PROPERTY
W(SA)
SciTegic.value.DoubleValue
2.040

@<SCITEGIC>MOL_PROPERTY
Valence
SciTegic.value.DoubleValue
5.238

@<SCITEGIC>MOL_PROPERTY
Coulomb
SciTegic.value.DoubleValue
45.552

@<SCITEGIC>MOL_PROPERTY
VdW
SciTegic.value.DoubleValue
0.665

@<SCITEGIC>MOL_PROPERTY
VdW6
SciTegic.value.DoubleValue
-7.395

@<SCITEGIC>MOL_PROPERTY
VdW12
SciTegic.value.DoubleValue
8.060

@<SCITEGIC>MOL_PROPERTY
Bond
SciTegic.value.DoubleValue
0.274

@<SCITEGIC>MOL_PROPERTY
Angle
SciTegic.value.DoubleValue
1.687

@<SCITEGIC>MOL_PROPERTY
Pdih
SciTegic.value.DoubleValue
3.277

@<SCITEGIC>MOL_PROPERTY
Idih
SciTegic.value.DoubleValue
0.000

@<SCITEGIC>MOL_PROPERTY
Tether
SciTegic.value.DoubleValue
0.000

@<TRIPOS>MOLECULE
guest-2_vm2.mol2 : vm2 ligand conformer 73
          23          22           1
SMALL
USER_CHARGES
 
@<TRIPOS>ATOM
       1    N1      20.375217   18.520391   25.207881 N.4        1 MOL1        -0.5940
       2    H1      21.090811   19.183309   24.894952 H          1 MOL1         0.3649
       3    H2      20.865758   17.711444   25.603702 H          1 MOL1         0.3649
       4    H3      19.864531   18.966211   25.976579 H          1 MOL1         0.3649
       5    C1      19.450491   18.120457   24.075211 C.3        1 MOL1         0.0207
       6    H4      18.735116   17.393820   24.469801 H          1 MOL1         0.0950
       7    H5      20.050324   17.624976   23.307511 H          1 MOL1         0.0950
       8    C2      18.686144   19.306725   23.453257 C.3        1 MOL1        -0.1415
       9    H6      17.979101   18.930727   22.703944 H          1 MOL1         0.0976
      10    H7      18.070239   19.780331   24.229149 H          1 MOL1         0.0976
      11    C3      19.603469   20.377791   22.810903 C.3        1 MOL1        -0.1375
      12    H8      20.179847   20.873270   23.603664 H          1 MOL1         0.0976
      13    H9      18.974287   21.164195   22.371829 H          1 MOL1         0.0976
      14    C4      20.592767   19.860969   21.731258 C.3        1 MOL1        -0.1375
      15    H10     21.221622   20.712097   21.435338 H          1 MOL1         0.0976
      16    H11     21.286002   19.123735   22.157502 H          1 MOL1         0.0976
      17    C5      19.927900   19.298310   20.448023 C.3        1 MOL1        -0.1350
      18    H12     20.590392   19.507771   19.596442 H          1 MOL1         0.0976
      19    H13     18.990278   19.831544   20.238238 H          1 MOL1         0.0976
      20    C6      19.680011   17.772357   20.487466 C.3        1 MOL1        -0.2365
      21    H14     20.611938   17.226789   20.684381 H          1 MOL1         0.0987
      22    H15     19.289331   17.424363   19.522496 H          1 MOL1         0.0987
      23    H16     18.951532   17.491187   21.254757 H          1 MOL1         0.0987
@<TRIPOS>BOND
    1     1     2    1
    2     1     3    1
    3     1     4    1
    4     1     5    1
    5     5     6    1
    6     5     7    1
    7     5     8    1
    8     8     9    1
    9     8    10    1
   10     8    11    1
   11    11    12    1
   12    11    13    1
   13    11    14    1
   14    14    15    1
   15    14    16    1
   16    14    17    1
   17    17    18    1
   18    17    19    1
   19    17    20    1
   20    20    21    1
   21    20    22    1
   22    20    23    1
@<TRIPOS>SUBSTRUCTURE
       1 MOL1            1 RESIDUE      1      MOL     
@<SCITEGIC>MOL_PROPERTY
VM2 Rank
SciTegic.value.IntegerValue
73

@<SCITEGIC>MOL_PROPERTY
Conf_Id
SciTegic.value.IntegerValue
352

@<SCITEGIC>MOL_PROPERTY
Probability
SciTegic.value.DoubleValue
0.01

@<SCITEGIC>MOL_PROPERTY
Sum Probability
SciTegic.value.DoubleValue
99.95

@<SCITEGIC>MOL_PROPERTY
Delta G
SciTegic.value.DoubleValue
4.279

@<SCITEGIC>MOL_PROPERTY
G
SciTegic.value.DoubleValue
42.195

@<SCITEGIC>MOL_PROPERTY
E
SciTegic.value.DoubleValue
13.814

@<SCITEGIC>MOL_PROPERTY
-TS
SciTegic.value.DoubleValue
28.381

@<SCITEGIC>MOL_PROPERTY
U+W
SciTegic.value.DoubleValue
-4.965

@<SCITEGIC>MOL_PROPERTY
U
SciTegic.value.DoubleValue
51.195

@<SCITEGIC>MOL_PROPERTY
W
SciTegic.value.DoubleValue
-56.160

@<SCITEGIC>MOL_PROPERTY
W(PB)
SciTegic.value.DoubleValue
-58.178

@<SCITEGIC>MOL_PROPERTY
W(SA)
SciTegic.value.DoubleValue
2.018

@<SCITEGIC>MOL_PROPERTY
Valence
SciTegic.value.DoubleValue
5.115

@<SCITEGIC>MOL_PROPERTY
Coulomb
SciTegic.value.DoubleValue
45.778

@<SCITEGIC>MOL_PROPERTY
VdW
SciTegic.value.DoubleValue
0.302

@<SCITEGIC>MOL_PROPERTY
VdW6
SciTegic.value.DoubleValue
-7.950

@<SCITEGIC>MOL_PROPERTY
VdW12
SciTegic.value.DoubleValue
8.251

@<SCITEGIC>MOL_PROPERTY
Bond
SciTegic.value.DoubleValue
0.252

@<SCITEGIC>MOL_PROPERTY
Angle
SciTegic.value.DoubleValue
1.729

@<SCITEGIC>MOL_PROPERTY
Pdih
SciTegic.value.DoubleValue
3.133

@<SCITEGIC>MOL_PROPERTY
Idih
SciTegic.value.DoubleValue
0.000

@<SCITEGIC>MOL_PROPERTY
Tether
SciTegic.value.DoubleValue
0.000

@<TRIPOS>MOLECULE
guest-2_vm2.mol2 : vm2 ligand conformer 74
          23          22           1
SMALL
USER_CHARGES
 
@<TRIPOS>ATOM
       1    N1      19.490822   18.152291   25.167469 N.4        1 MOL1        -0.5940
       2    H1      19.473750   18.803505   25.958722 H          1 MOL1         0.3649
       3    H2      19.688783   17.221557   25.549888 H          1 MOL1         0.3649
       4    H3      18.543490   18.123152   24.778656 H          1 MOL1         0.3649
       5    C1      20.510898   18.561798   24.123555 C.3        1 MOL1         0.0207
       6    H4      20.500560   17.812347   23.328017 H          1 MOL1         0.0950
       7    H5      21.496856   18.543279   24.595792 H          1 MOL1         0.0950
       8    C2      20.255347   19.959819   23.524791 C.3        1 MOL1        -0.1415
       9    H6      20.291939   20.704984   24.330421 H          1 MOL1         0.0976
      10    H7      21.075900   20.219575   22.845102 H          1 MOL1         0.0976
      11    C3      18.902916   20.086253   22.778979 C.3        1 MOL1        -0.1375
      12    H8      18.821547   21.100627   22.364838 H          1 MOL1         0.0976
      13    H9      18.086065   20.001939   23.508243 H          1 MOL1         0.0976
      14    C4      18.658451   19.055933   21.643141 C.3        1 MOL1        -0.1375
      15    H10     18.661091   18.031288   22.037939 H          1 MOL1         0.0976
      16    H11     17.637324   19.220347   21.272044 H          1 MOL1         0.0976
      17    C5      19.622977   19.171392   20.434142 C.3        1 MOL1        -0.1350
      18    H12     19.919532   20.218271   20.280572 H          1 MOL1         0.0976
      19    H13     19.075779   18.877380   19.527449 H          1 MOL1         0.0976
      20    C6      20.874589   18.269513   20.541924 C.3        1 MOL1        -0.2365
      21    H14     20.591760   17.218382   20.683482 H          1 MOL1         0.0987
      22    H15     21.525392   18.562386   21.372077 H          1 MOL1         0.0987
      23    H16     21.470034   18.331927   19.621898 H          1 MOL1         0.0987
@<TRIPOS>BOND
    1     1     2    1
    2     1     3    1
    3     1     4    1
    4     1     5    1
    5     5     6    1
    6     5     7    1
    7     5     8    1
    8     8     9    1
    9     8    10    1
   10     8    11    1
   11    11    12    1
   12    11    13    1
   13    11    14    1
   14    14    15    1
   15    14    16    1
   16    14    17    1
   17    17    18    1
   18    17    19    1
   19    17    20    1
   20    20    21    1
   21    20    22    1
   22    20    23    1
@<TRIPOS>SUBSTRUCTURE
       1 MOL1            1 RESIDUE      1      MOL     
@<SCITEGIC>MOL_PROPERTY
VM2 Rank
SciTegic.value.IntegerValue
74

@<SCITEGIC>MOL_PROPERTY
Conf_Id
SciTegic.value.IntegerValue
758

@<SCITEGIC>MOL_PROPERTY
Probability
SciTegic.value.DoubleValue
0.01

@<SCITEGIC>MOL_PROPERTY
Sum Probability
SciTegic.value.DoubleValue
99.96

@<SCITEGIC>MOL_PROPERTY
Delta G
SciTegic.value.DoubleValue
4.289

@<SCITEGIC>MOL_PROPERTY
G
SciTegic.value.DoubleValue
42.206

@<SCITEGIC>MOL_PROPERTY
E
SciTegic.value.DoubleValue
13.825

@<SCITEGIC>MOL_PROPERTY
-TS
SciTegic.value.DoubleValue
28.381

@<SCITEGIC>MOL_PROPERTY
U+W
SciTegic.value.DoubleValue
-4.955

@<SCITEGIC>MOL_PROPERTY
U
SciTegic.value.DoubleValue
51.195

@<SCITEGIC>MOL_PROPERTY
W
SciTegic.value.DoubleValue
-56.149

@<SCITEGIC>MOL_PROPERTY
W(PB)
SciTegic.value.DoubleValue
-58.166

@<SCITEGIC>MOL_PROPERTY
W(SA)
SciTegic.value.DoubleValue
2.017

@<SCITEGIC>MOL_PROPERTY
Valence
SciTegic.value.DoubleValue
5.115

@<SCITEGIC>MOL_PROPERTY
Coulomb
SciTegic.value.DoubleValue
45.778

@<SCITEGIC>MOL_PROPERTY
VdW
SciTegic.value.DoubleValue
0.302

@<SCITEGIC>MOL_PROPERTY
VdW6
SciTegic.value.DoubleValue
-7.950

@<SCITEGIC>MOL_PROPERTY
VdW12
SciTegic.value.DoubleValue
8.252

@<SCITEGIC>MOL_PROPERTY
Bond
SciTegic.value.DoubleValue
0.252

@<SCITEGIC>MOL_PROPERTY
Angle
SciTegic.value.DoubleValue
1.729

@<SCITEGIC>MOL_PROPERTY
Pdih
SciTegic.value.DoubleValue
3.133

@<SCITEGIC>MOL_PROPERTY
Idih
SciTegic.value.DoubleValue
0.000

@<SCITEGIC>MOL_PROPERTY
Tether
SciTegic.value.DoubleValue
0.000

@<TRIPOS>MOLECULE
guest-2_vm2.mol2 : vm2 ligand conformer 75
          23          22           1
SMALL
USER_CHARGES
 
@<TRIPOS>ATOM
       1    N1      20.134571   17.627666   24.254296 N.4        1 MOL1        -0.5940
       2    H1      19.307931   17.032435   24.140682 H          1 MOL1         0.3649
       3    H2      20.776507   17.129952   24.880701 H          1 MOL1         0.3649
       4    H3      20.589803   17.693032   23.339213 H          1 MOL1         0.3649
       5    C1      19.769297   18.996044   24.795603 C.3        1 MOL1         0.0207
       6    H4      20.691422   19.551820   24.985481 H          1 MOL1         0.0950
       7    H5      19.266628   18.836912   25.753458 H          1 MOL1         0.0950
       8    C2      18.846432   19.818237   23.871860 C.3        1 MOL1        -0.1415
       9    H6      18.046403   19.182859   23.471297 H          1 MOL1         0.0976
      10    H7      18.341696   20.570783   24.492093 H          1 MOL1         0.0976
      11    C3      19.584799   20.568230   22.730517 C.3        1 MOL1        -0.1375
      12    H8      20.299049   21.273693   23.177228 H          1 MOL1         0.0976
      13    H9      18.855166   21.186536   22.189576 H          1 MOL1         0.0976
      14    C4      20.340182   19.683030   21.706612 C.3        1 MOL1        -0.1375
      15    H10     20.824543   20.344087   20.974536 H          1 MOL1         0.0976
      16    H11     21.158233   19.146243   22.202341 H          1 MOL1         0.0976
      17    C5      19.425105   18.692714   20.947657 C.3        1 MOL1        -0.1350
      18    H12     18.623909   19.247816   20.439932 H          1 MOL1         0.0976
      19    H13     18.934446   18.004960   21.647825 H          1 MOL1         0.0976
      20    C6      20.215614   17.871079   19.907456 C.3        1 MOL1        -0.2365
      21    H14     20.684196   18.525630   19.160955 H          1 MOL1         0.0987
      22    H15     19.551420   17.177154   19.376043 H          1 MOL1         0.0987
      23    H16     21.006190   17.279563   20.387091 H          1 MOL1         0.0987
@<TRIPOS>BOND
    1     1     2    1
    2     1     3    1
    3     1     4    1
    4     1     5    1
    5     5     6    1
    6     5     7    1
    7     5     8    1
    8     8     9    1
    9     8    10    1
   10     8    11    1
   11    11    12    1
   12    11    13    1
   13    11    14    1
   14    14    15    1
   15    14    16    1
   16    14    17    1
   17    17    18    1
   18    17    19    1
   19    17    20    1
   20    20    21    1
   21    20    22    1
   22    20    23    1
@<TRIPOS>SUBSTRUCTURE
       1 MOL1            1 RESIDUE      1      MOL     
@<SCITEGIC>MOL_PROPERTY
VM2 Rank
SciTegic.value.IntegerValue
75

@<SCITEGIC>MOL_PROPERTY
Conf_Id
SciTegic.value.IntegerValue
487

@<SCITEGIC>MOL_PROPERTY
Probability
SciTegic.value.DoubleValue
0.01

@<SCITEGIC>MOL_PROPERTY
Sum Probability
SciTegic.value.DoubleValue
99.97

@<SCITEGIC>MOL_PROPERTY
Delta G
SciTegic.value.DoubleValue
4.444

@<SCITEGIC>MOL_PROPERTY
G
SciTegic.value.DoubleValue
42.360

@<SCITEGIC>MOL_PROPERTY
E
SciTegic.value.DoubleValue
14.084

@<SCITEGIC>MOL_PROPERTY
-TS
SciTegic.value.DoubleValue
28.276

@<SCITEGIC>MOL_PROPERTY
U+W
SciTegic.value.DoubleValue
-4.695

@<SCITEGIC>MOL_PROPERTY
U
SciTegic.value.DoubleValue
50.876

@<SCITEGIC>MOL_PROPERTY
W
SciTegic.value.DoubleValue
-55.571

@<SCITEGIC>MOL_PROPERTY
W(PB)
SciTegic.value.DoubleValue
-57.630

@<SCITEGIC>MOL_PROPERTY
W(SA)
SciTegic.value.DoubleValue
2.059

@<SCITEGIC>MOL_PROPERTY
Valence
SciTegic.value.DoubleValue
3.812

@<SCITEGIC>MOL_PROPERTY
Coulomb
SciTegic.value.DoubleValue
46.852

@<SCITEGIC>MOL_PROPERTY
VdW
SciTegic.value.DoubleValue
0.213

@<SCITEGIC>MOL_PROPERTY
VdW6
SciTegic.value.DoubleValue
-7.415

@<SCITEGIC>MOL_PROPERTY
VdW12
SciTegic.value.DoubleValue
7.628

@<SCITEGIC>MOL_PROPERTY
Bond
SciTegic.value.DoubleValue
0.215

@<SCITEGIC>MOL_PROPERTY
Angle
SciTegic.value.DoubleValue
1.471

@<SCITEGIC>MOL_PROPERTY
Pdih
SciTegic.value.DoubleValue
2.126

@<SCITEGIC>MOL_PROPERTY
Idih
SciTegic.value.DoubleValue
0.000

@<SCITEGIC>MOL_PROPERTY
Tether
SciTegic.value.DoubleValue
0.000

@<TRIPOS>MOLECULE
guest-2_vm2.mol2 : vm2 ligand conformer 76
          23          22           1
SMALL
USER_CHARGES
 
@<TRIPOS>ATOM
       1    N1      20.365694   17.723766   24.264587 N.4        1 MOL1        -0.5940
       2    H1      20.218869   16.897812   24.854864 H          1 MOL1         0.3649
       3    H2      21.376171   17.892888   24.234918 H          1 MOL1         0.3649
       4    H3      20.071049   17.477256   23.315216 H          1 MOL1         0.3649
       5    C1      19.611075   18.930095   24.788243 C.3        1 MOL1         0.0207
       6    H4      20.002099   19.142690   25.786936 H          1 MOL1         0.0950
       7    H5      18.555593   18.663056   24.887770 H          1 MOL1         0.0950
       8    C2      19.748417   20.193480   23.913041 C.3        1 MOL1        -0.1415
       9    H6      19.521724   21.061616   24.546071 H          1 MOL1         0.0976
      10    H7      20.790923   20.324671   23.596539 H          1 MOL1         0.0976
      11    C3      18.787747   20.236799   22.694198 C.3        1 MOL1        -0.1375
      12    H8      18.904225   21.207041   22.191859 H          1 MOL1         0.0976
      13    H9      17.752245   20.214465   23.061104 H          1 MOL1         0.0976
      14    C4      18.963600   19.110549   21.643867 C.3        1 MOL1        -0.1375
      15    H10     18.730842   18.136702   22.091689 H          1 MOL1         0.0976
      16    H11     18.212422   19.257691   20.855438 H          1 MOL1         0.0976
      17    C5      20.365974   19.084126   20.990602 C.3        1 MOL1        -0.1350
      18    H12     21.142974   18.923824   21.748598 H          1 MOL1         0.0976
      19    H13     20.574789   20.059287   20.528761 H          1 MOL1         0.0976
      20    C6      20.473493   17.978184   19.919462 C.3        1 MOL1        -0.2365
      21    H14     20.300077   16.985762   20.355325 H          1 MOL1         0.0987
      22    H15     21.472261   17.975910   19.463893 H          1 MOL1         0.0987
      23    H16     19.739105   18.132183   19.118071 H          1 MOL1         0.0987
@<TRIPOS>BOND
    1     1     2    1
    2     1     3    1
    3     1     4    1
    4     1     5    1
    5     5     6    1
    6     5     7    1
    7     5     8    1
    8     8     9    1
    9     8    10    1
   10     8    11    1
   11    11    12    1
   12    11    13    1
   13    11    14    1
   14    14    15    1
   15    14    16    1
   16    14    17    1
   17    17    18    1
   18    17    19    1
   19    17    20    1
   20    20    21    1
   21    20    22    1
   22    20    23    1
@<TRIPOS>SUBSTRUCTURE
       1 MOL1            1 RESIDUE      1      MOL     
@<SCITEGIC>MOL_PROPERTY
VM2 Rank
SciTegic.value.IntegerValue
76

@<SCITEGIC>MOL_PROPERTY
Conf_Id
SciTegic.value.IntegerValue
102

@<SCITEGIC>MOL_PROPERTY
Probability
SciTegic.value.DoubleValue
0.01

@<SCITEGIC>MOL_PROPERTY
Sum Probability
SciTegic.value.DoubleValue
99.98

@<SCITEGIC>MOL_PROPERTY
Delta G
SciTegic.value.DoubleValue
4.547

@<SCITEGIC>MOL_PROPERTY
G
SciTegic.value.DoubleValue
42.464

@<SCITEGIC>MOL_PROPERTY
E
SciTegic.value.DoubleValue
14.187

@<SCITEGIC>MOL_PROPERTY
-TS
SciTegic.value.DoubleValue
28.276

@<SCITEGIC>MOL_PROPERTY
U+W
SciTegic.value.DoubleValue
-4.592

@<SCITEGIC>MOL_PROPERTY
U
SciTegic.value.DoubleValue
50.877

@<SCITEGIC>MOL_PROPERTY
W
SciTegic.value.DoubleValue
-55.468

@<SCITEGIC>MOL_PROPERTY
W(PB)
SciTegic.value.DoubleValue
-57.490

@<SCITEGIC>MOL_PROPERTY
W(SA)
SciTegic.value.DoubleValue
2.022

@<SCITEGIC>MOL_PROPERTY
Valence
SciTegic.value.DoubleValue
3.812

@<SCITEGIC>MOL_PROPERTY
Coulomb
SciTegic.value.DoubleValue
46.852

@<SCITEGIC>MOL_PROPERTY
VdW
SciTegic.value.DoubleValue
0.213

@<SCITEGIC>MOL_PROPERTY
VdW6
SciTegic.value.DoubleValue
-7.416

@<SCITEGIC>MOL_PROPERTY
VdW12
SciTegic.value.DoubleValue
7.629

@<SCITEGIC>MOL_PROPERTY
Bond
SciTegic.value.DoubleValue
0.215

@<SCITEGIC>MOL_PROPERTY
Angle
SciTegic.value.DoubleValue
1.471

@<SCITEGIC>MOL_PROPERTY
Pdih
SciTegic.value.DoubleValue
2.127

@<SCITEGIC>MOL_PROPERTY
Idih
SciTegic.value.DoubleValue
0.000

@<SCITEGIC>MOL_PROPERTY
Tether
SciTegic.value.DoubleValue
0.000

@<TRIPOS>MOLECULE
guest-2_vm2.mol2 : vm2 ligand conformer 77
          23          22           1
SMALL
USER_CHARGES
 
@<TRIPOS>ATOM
       1    N1      19.499273   17.699694   24.762654 N.4        1 MOL1        -0.5940
       2    H1      20.184921   17.259870   24.142074 H          1 MOL1         0.3649
       3    H2      18.783915   16.994817   24.970667 H          1 MOL1         0.3649
       4    H3      19.978900   17.906377   25.644652 H          1 MOL1         0.3649
       5    C1      18.897430   18.947241   24.145265 C.3        1 MOL1         0.0207
       6    H4      18.165463   19.343269   24.854405 H          1 MOL1         0.0950
       7    H5      18.365071   18.653218   23.238864 H          1 MOL1         0.0950
       8    C2      19.936986   20.041048   23.824776 C.3        1 MOL1        -0.1415
       9    H6      19.416743   20.970996   23.559944 H          1 MOL1         0.0976
      10    H7      20.495787   20.261718   24.743973 H          1 MOL1         0.0976
      11    C3      20.940003   19.667044   22.700559 C.3        1 MOL1        -0.1375
      12    H8      21.241843   18.615200   22.778697 H          1 MOL1         0.0976
      13    H9      21.859935   20.243855   22.868702 H          1 MOL1         0.0976
      14    C4      20.453948   19.989587   21.261441 C.3        1 MOL1        -0.1375
      15    H10     20.258086   21.068107   21.186629 H          1 MOL1         0.0976
      16    H11     21.277886   19.789426   20.562658 H          1 MOL1         0.0976
      17    C5      19.199231   19.222983   20.775013 C.3        1 MOL1        -0.1350
      18    H12     18.956854   19.564741   19.759048 H          1 MOL1         0.0976
      19    H13     18.329335   19.486924   21.389531 H          1 MOL1         0.0976
      20    C6      19.389129   17.689403   20.744293 C.3        1 MOL1        -0.2365
      21    H14     19.548092   17.279628   21.748092 H          1 MOL1         0.0987
      22    H15     20.249912   17.412548   20.121933 H          1 MOL1         0.0987
      23    H16     18.500777   17.200475   20.324037 H          1 MOL1         0.0987
@<TRIPOS>BOND
    1     1     2    1
    2     1     3    1
    3     1     4    1
    4     1     5    1
    5     5     6    1
    6     5     7    1
    7     5     8    1
    8     8     9    1
    9     8    10    1
   10     8    11    1
   11    11    12    1
   12    11    13    1
   13    11    14    1
   14    14    15    1
   15    14    16    1
   16    14    17    1
   17    17    18    1
   18    17    19    1
   19    17    20    1
   20    20    21    1
   21    20    22    1
   22    20    23    1
@<TRIPOS>SUBSTRUCTURE
       1 MOL1            1 RESIDUE      1      MOL     
@<SCITEGIC>MOL_PROPERTY
VM2 Rank
SciTegic.value.IntegerValue
77

@<SCITEGIC>MOL_PROPERTY
Conf_Id
SciTegic.value.IntegerValue
496

@<SCITEGIC>MOL_PROPERTY
Probability
SciTegic.value.DoubleValue
0.01

@<SCITEGIC>MOL_PROPERTY
Sum Probability
SciTegic.value.DoubleValue
99.98

@<SCITEGIC>MOL_PROPERTY
Delta G
SciTegic.value.DoubleValue
4.550

@<SCITEGIC>MOL_PROPERTY
G
SciTegic.value.DoubleValue
42.467

@<SCITEGIC>MOL_PROPERTY
E
SciTegic.value.DoubleValue
13.891

@<SCITEGIC>MOL_PROPERTY
-TS
SciTegic.value.DoubleValue
28.576

@<SCITEGIC>MOL_PROPERTY
U+W
SciTegic.value.DoubleValue
-4.889

@<SCITEGIC>MOL_PROPERTY
U
SciTegic.value.DoubleValue
51.403

@<SCITEGIC>MOL_PROPERTY
W
SciTegic.value.DoubleValue
-56.291

@<SCITEGIC>MOL_PROPERTY
W(PB)
SciTegic.value.DoubleValue
-58.317

@<SCITEGIC>MOL_PROPERTY
W(SA)
SciTegic.value.DoubleValue
2.025

@<SCITEGIC>MOL_PROPERTY
Valence
SciTegic.value.DoubleValue
4.890

@<SCITEGIC>MOL_PROPERTY
Coulomb
SciTegic.value.DoubleValue
46.339

@<SCITEGIC>MOL_PROPERTY
VdW
SciTegic.value.DoubleValue
0.174

@<SCITEGIC>MOL_PROPERTY
VdW6
SciTegic.value.DoubleValue
-8.062

@<SCITEGIC>MOL_PROPERTY
VdW12
SciTegic.value.DoubleValue
8.235

@<SCITEGIC>MOL_PROPERTY
Bond
SciTegic.value.DoubleValue
0.255

@<SCITEGIC>MOL_PROPERTY
Angle
SciTegic.value.DoubleValue
1.788

@<SCITEGIC>MOL_PROPERTY
Pdih
SciTegic.value.DoubleValue
2.848

@<SCITEGIC>MOL_PROPERTY
Idih
SciTegic.value.DoubleValue
0.000

@<SCITEGIC>MOL_PROPERTY
Tether
SciTegic.value.DoubleValue
0.000

@<TRIPOS>MOLECULE
guest-2_vm2.mol2 : vm2 ligand conformer 78
          23          22           1
SMALL
USER_CHARGES
 
@<TRIPOS>ATOM
       1    N1      20.721204   18.208210   24.818505 N.4        1 MOL1        -0.5940
       2    H1      21.706268   18.210906   25.103987 H          1 MOL1         0.3649
       3    H2      20.599571   17.432417   24.161217 H          1 MOL1         0.3649
       4    H3      20.169853   17.985980   25.653555 H          1 MOL1         0.3649
       5    C1      20.308033   19.534207   24.209594 C.3        1 MOL1         0.0207
       6    H4      20.960162   19.732988   23.357167 H          1 MOL1         0.0950
       7    H5      20.486267   20.309051   24.960155 H          1 MOL1         0.0950
       8    C2      18.828768   19.579850   23.774288 C.3        1 MOL1        -0.1415
       9    H6      18.209036   19.310077   24.639754 H          1 MOL1         0.0976
      10    H7      18.555848   20.612721   23.520747 H          1 MOL1         0.0976
      11    C3      18.476959   18.642075   22.588289 C.3        1 MOL1        -0.1375
      12    H8      17.409866   18.391971   22.665864 H          1 MOL1         0.0976
      13    H9      19.003992   17.683943   22.676645 H          1 MOL1         0.0976
      14    C4      18.701236   19.260304   21.181578 C.3        1 MOL1        -0.1375
      15    H10     18.318888   18.558272   20.427790 H          1 MOL1         0.0976
      16    H11     18.080768   20.162153   21.087500 H          1 MOL1         0.0976
      17    C5      20.162381   19.623787   20.818891 C.3        1 MOL1        -0.1350
      18    H12     20.538381   20.406034   21.490255 H          1 MOL1         0.0976
      19    H13     20.169234   20.069380   19.814337 H          1 MOL1         0.0976
      20    C6      21.117418   18.408567   20.822856 C.3        1 MOL1        -0.2365
      21    H14     21.218252   17.974493   21.823962 H          1 MOL1         0.0987
      22    H15     22.119671   18.706318   20.488689 H          1 MOL1         0.0987
      23    H16     20.757532   17.623896   20.144842 H          1 MOL1         0.0987
@<TRIPOS>BOND
    1     1     2    1
    2     1     3    1
    3     1     4    1
    4     1     5    1
    5     5     6    1
    6     5     7    1
    7     5     8    1
    8     8     9    1
    9     8    10    1
   10     8    11    1
   11    11    12    1
   12    11    13    1
   13    11    14    1
   14    14    15    1
   15    14    16    1
   16    14    17    1
   17    17    18    1
   18    17    19    1
   19    17    20    1
   20    20    21    1
   21    20    22    1
   22    20    23    1
@<TRIPOS>SUBSTRUCTURE
       1 MOL1            1 RESIDUE      1      MOL     
@<SCITEGIC>MOL_PROPERTY
VM2 Rank
SciTegic.value.IntegerValue
78

@<SCITEGIC>MOL_PROPERTY
Conf_Id
SciTegic.value.IntegerValue
568

@<SCITEGIC>MOL_PROPERTY
Probability
SciTegic.value.DoubleValue
0.01

@<SCITEGIC>MOL_PROPERTY
Sum Probability
SciTegic.value.DoubleValue
99.99

@<SCITEGIC>MOL_PROPERTY
Delta G
SciTegic.value.DoubleValue
4.562

@<SCITEGIC>MOL_PROPERTY
G
SciTegic.value.DoubleValue
42.479

@<SCITEGIC>MOL_PROPERTY
E
SciTegic.value.DoubleValue
13.903

@<SCITEGIC>MOL_PROPERTY
-TS
SciTegic.value.DoubleValue
28.576

@<SCITEGIC>MOL_PROPERTY
U+W
SciTegic.value.DoubleValue
-4.876

@<SCITEGIC>MOL_PROPERTY
U
SciTegic.value.DoubleValue
51.402

@<SCITEGIC>MOL_PROPERTY
W
SciTegic.value.DoubleValue
-56.278

@<SCITEGIC>MOL_PROPERTY
W(PB)
SciTegic.value.DoubleValue
-58.290

@<SCITEGIC>MOL_PROPERTY
W(SA)
SciTegic.value.DoubleValue
2.011

@<SCITEGIC>MOL_PROPERTY
Valence
SciTegic.value.DoubleValue
4.891

@<SCITEGIC>MOL_PROPERTY
Coulomb
SciTegic.value.DoubleValue
46.338

@<SCITEGIC>MOL_PROPERTY
VdW
SciTegic.value.DoubleValue
0.173

@<SCITEGIC>MOL_PROPERTY
VdW6
SciTegic.value.DoubleValue
-8.061

@<SCITEGIC>MOL_PROPERTY
VdW12
SciTegic.value.DoubleValue
8.234

@<SCITEGIC>MOL_PROPERTY
Bond
SciTegic.value.DoubleValue
0.254

@<SCITEGIC>MOL_PROPERTY
Angle
SciTegic.value.DoubleValue
1.788

@<SCITEGIC>MOL_PROPERTY
Pdih
SciTegic.value.DoubleValue
2.849

@<SCITEGIC>MOL_PROPERTY
Idih
SciTegic.value.DoubleValue
0.000

@<SCITEGIC>MOL_PROPERTY
Tether
SciTegic.value.DoubleValue
0.000

@<TRIPOS>MOLECULE
guest-2_vm2.mol2 : vm2 ligand conformer 79
          23          22           1
SMALL
USER_CHARGES
 
@<TRIPOS>ATOM
       1    N1      19.363709   17.779659   24.591845 N.4        1 MOL1        -0.5940
       2    H1      18.717778   17.719551   23.799909 H          1 MOL1         0.3649
       3    H2      18.866715   17.428517   25.417547 H          1 MOL1         0.3649
       4    H3      20.133317   17.128406   24.407714 H          1 MOL1         0.3649
       5    C1      19.864727   19.195270   24.798119 C.3        1 MOL1         0.0207
       6    H4      20.552138   19.170015   25.647999 H          1 MOL1         0.0950
       7    H5      19.014809   19.827085   25.069564 H          1 MOL1         0.0950
       8    C2      20.593562   19.798790   23.579265 C.3        1 MOL1        -0.1415
       9    H6      21.208417   20.632641   23.943022 H          1 MOL1         0.0976
      10    H7      21.300807   19.072287   23.159579 H          1 MOL1         0.0976
      11    C3      19.649993   20.355867   22.479859 C.3        1 MOL1        -0.1375
      12    H8      20.255000   20.897249   21.740426 H          1 MOL1         0.0976
      13    H9      18.993688   21.113875   22.929188 H          1 MOL1         0.0976
      14    C4      18.768378   19.313073   21.742083 C.3        1 MOL1        -0.1375
      15    H10     18.031679   18.894451   22.438540 H          1 MOL1         0.0976
      16    H11     18.176092   19.839018   20.980554 H          1 MOL1         0.0976
      17    C5      19.544387   18.161375   21.052816 C.3        1 MOL1        -0.1350
      18    H12     18.819302   17.480130   20.585951 H          1 MOL1         0.0976
      19    H13     20.085999   17.562620   21.796010 H          1 MOL1         0.0976
      20    C6      20.531244   18.652965   19.970013 C.3        1 MOL1        -0.2365
      21    H14     21.341734   19.249991   20.406270 H          1 MOL1         0.0987
      22    H15     20.018523   19.266366   19.217820 H          1 MOL1         0.0987
      23    H16     20.990176   17.800790   19.452302 H          1 MOL1         0.0987
@<TRIPOS>BOND
    1     1     2    1
    2     1     3    1
    3     1     4    1
    4     1     5    1
    5     5     6    1
    6     5     7    1
    7     5     8    1
    8     8     9    1
    9     8    10    1
   10     8    11    1
   11    11    12    1
   12    11    13    1
   13    11    14    1
   14    14    15    1
   15    14    16    1
   16    14    17    1
   17    17    18    1
   18    17    19    1
   19    17    20    1
   20    20    21    1
   21    20    22    1
   22    20    23    1
@<TRIPOS>SUBSTRUCTURE
       1 MOL1            1 RESIDUE      1      MOL     
@<SCITEGIC>MOL_PROPERTY
VM2 Rank
SciTegic.value.IntegerValue
79

@<SCITEGIC>MOL_PROPERTY
Conf_Id
SciTegic.value.IntegerValue
184

@<SCITEGIC>MOL_PROPERTY
Probability
SciTegic.value.DoubleValue
0.00

@<SCITEGIC>MOL_PROPERTY
Sum Probability
SciTegic.value.DoubleValue
99.99

@<SCITEGIC>MOL_PROPERTY
Delta G
SciTegic.value.DoubleValue
4.664

@<SCITEGIC>MOL_PROPERTY
G
SciTegic.value.DoubleValue
42.580

@<SCITEGIC>MOL_PROPERTY
E
SciTegic.value.DoubleValue
14.117

@<SCITEGIC>MOL_PROPERTY
-TS
SciTegic.value.DoubleValue
28.464

@<SCITEGIC>MOL_PROPERTY
U+W
SciTegic.value.DoubleValue
-4.662

@<SCITEGIC>MOL_PROPERTY
U
SciTegic.value.DoubleValue
51.396

@<SCITEGIC>MOL_PROPERTY
W
SciTegic.value.DoubleValue
-56.059

@<SCITEGIC>MOL_PROPERTY
W(PB)
SciTegic.value.DoubleValue
-58.085

@<SCITEGIC>MOL_PROPERTY
W(SA)
SciTegic.value.DoubleValue
2.026

@<SCITEGIC>MOL_PROPERTY
Valence
SciTegic.value.DoubleValue
4.231

@<SCITEGIC>MOL_PROPERTY
Coulomb
SciTegic.value.DoubleValue
46.940

@<SCITEGIC>MOL_PROPERTY
VdW
SciTegic.value.DoubleValue
0.225

@<SCITEGIC>MOL_PROPERTY
VdW6
SciTegic.value.DoubleValue
-8.093

@<SCITEGIC>MOL_PROPERTY
VdW12
SciTegic.value.DoubleValue
8.318

@<SCITEGIC>MOL_PROPERTY
Bond
SciTegic.value.DoubleValue
0.258

@<SCITEGIC>MOL_PROPERTY
Angle
SciTegic.value.DoubleValue
1.779

@<SCITEGIC>MOL_PROPERTY
Pdih
SciTegic.value.DoubleValue
2.194

@<SCITEGIC>MOL_PROPERTY
Idih
SciTegic.value.DoubleValue
0.000

@<SCITEGIC>MOL_PROPERTY
Tether
SciTegic.value.DoubleValue
0.000

@<TRIPOS>MOLECULE
guest-2_vm2.mol2 : vm2 ligand conformer 80
          23          22           1
SMALL
USER_CHARGES
 
@<TRIPOS>ATOM
       1    N1      20.772963   18.365953   24.656143 N.4        1 MOL1        -0.5940
       2    H1      21.330314   18.806233   23.918906 H          1 MOL1         0.3649
       3    H2      20.708079   17.367518   24.434230 H          1 MOL1         0.3649
       4    H3      21.306436   18.443657   25.528758 H          1 MOL1         0.3649
       5    C1      19.403041   19.003301   24.777078 C.3        1 MOL1         0.0207
       6    H4      19.531278   20.042103   25.092797 H          1 MOL1         0.0950
       7    H5      18.872535   18.471601   25.571638 H          1 MOL1         0.0950
       8    C2      18.558615   18.952007   23.486593 C.3        1 MOL1        -0.1415
       9    H6      18.609339   17.952256   23.037078 H          1 MOL1         0.0976
      10    H7      17.508420   19.092958   23.774513 H          1 MOL1         0.0976
      11    C3      18.911459   20.048514   22.446154 C.3        1 MOL1        -0.1375
      12    H8      18.800318   21.033456   22.920227 H          1 MOL1         0.0976
      13    H9      18.160843   20.025634   21.644942 H          1 MOL1         0.0976
      14    C4      20.325857   19.961197   21.813047 C.3        1 MOL1        -0.1375
      15    H10     20.428114   20.776168   21.083176 H          1 MOL1         0.0976
      16    H11     21.085269   20.165172   22.577713 H          1 MOL1         0.0976
      17    C5      20.650358   18.621605   21.103204 C.3        1 MOL1        -0.1350
      18    H12     20.636623   17.791755   21.821083 H          1 MOL1         0.0976
      19    H13     21.677861   18.669676   20.716250 H          1 MOL1         0.0976
      20    C6      19.693708   18.304423   19.931782 C.3        1 MOL1        -0.2365
      21    H14     19.677491   19.124440   19.202229 H          1 MOL1         0.0987
      22    H15     18.668287   18.137451   20.284326 H          1 MOL1         0.0987
      23    H16     20.015306   17.395097   19.407809 H          1 MOL1         0.0987
@<TRIPOS>BOND
    1     1     2    1
    2     1     3    1
    3     1     4    1
    4     1     5    1
    5     5     6    1
    6     5     7    1
    7     5     8    1
    8     8     9    1
    9     8    10    1
   10     8    11    1
   11    11    12    1
   12    11    13    1
   13    11    14    1
   14    14    15    1
   15    14    16    1
   16    14    17    1
   17    17    18    1
   18    17    19    1
   19    17    20    1
   20    20    21    1
   21    20    22    1
   22    20    23    1
@<TRIPOS>SUBSTRUCTURE
       1 MOL1            1 RESIDUE      1      MOL     
@<SCITEGIC>MOL_PROPERTY
VM2 Rank
SciTegic.value.IntegerValue
80

@<SCITEGIC>MOL_PROPERTY
Conf_Id
SciTegic.value.IntegerValue
876

@<SCITEGIC>MOL_PROPERTY
Probability
SciTegic.value.DoubleValue
0.00

@<SCITEGIC>MOL_PROPERTY
Sum Probability
SciTegic.value.DoubleValue
100.00

@<SCITEGIC>MOL_PROPERTY
Delta G
SciTegic.value.DoubleValue
4.718

@<SCITEGIC>MOL_PROPERTY
G
SciTegic.value.DoubleValue
42.634

@<SCITEGIC>MOL_PROPERTY
E
SciTegic.value.DoubleValue
14.171

@<SCITEGIC>MOL_PROPERTY
-TS
SciTegic.value.DoubleValue
28.463

@<SCITEGIC>MOL_PROPERTY
U+W
SciTegic.value.DoubleValue
-4.608

@<SCITEGIC>MOL_PROPERTY
U
SciTegic.value.DoubleValue
51.396

@<SCITEGIC>MOL_PROPERTY
W
SciTegic.value.DoubleValue
-56.005

@<SCITEGIC>MOL_PROPERTY
W(PB)
SciTegic.value.DoubleValue
-58.024

@<SCITEGIC>MOL_PROPERTY
W(SA)
SciTegic.value.DoubleValue
2.020

@<SCITEGIC>MOL_PROPERTY
Valence
SciTegic.value.DoubleValue
4.232

@<SCITEGIC>MOL_PROPERTY
Coulomb
SciTegic.value.DoubleValue
46.940

@<SCITEGIC>MOL_PROPERTY
VdW
SciTegic.value.DoubleValue
0.225

@<SCITEGIC>MOL_PROPERTY
VdW6
SciTegic.value.DoubleValue
-8.093

@<SCITEGIC>MOL_PROPERTY
VdW12
SciTegic.value.DoubleValue
8.318

@<SCITEGIC>MOL_PROPERTY
Bond
SciTegic.value.DoubleValue
0.258

@<SCITEGIC>MOL_PROPERTY
Angle
SciTegic.value.DoubleValue
1.778

@<SCITEGIC>MOL_PROPERTY
Pdih
SciTegic.value.DoubleValue
2.195

@<SCITEGIC>MOL_PROPERTY
Idih
SciTegic.value.DoubleValue
0.000

@<SCITEGIC>MOL_PROPERTY
Tether
SciTegic.value.DoubleValue
0.000

@<TRIPOS>MOLECULE
guest-2_vm2.mol2 : vm2 ligand conformer 81
          23          22           1
SMALL
USER_CHARGES
 
@<TRIPOS>ATOM
       1    N1      20.984671   18.367564   24.364733 N.4        1 MOL1        -0.5940
       2    H1      20.663047   17.596322   24.958487 H          1 MOL1         0.3649
       3    H2      21.926980   18.618218   24.682929 H          1 MOL1         0.3649
       4    H3      21.071687   18.004319   23.410864 H          1 MOL1         0.3649
       5    C1      20.038492   19.550448   24.419759 C.3        1 MOL1         0.0207
       6    H4      20.446532   20.347249   23.794243 H          1 MOL1         0.0950
       7    H5      20.018697   19.912441   25.451292 H          1 MOL1         0.0950
       8    C2      18.602729   19.217483   23.970756 C.3        1 MOL1        -0.1415
       9    H6      18.171729   18.502746   24.684329 H          1 MOL1         0.0976
      10    H7      17.991499   20.126275   24.049391 H          1 MOL1         0.0976
      11    C3      18.469792   18.633922   22.538257 C.3        1 MOL1        -0.1375
      12    H8      17.409046   18.389039   22.389411 H          1 MOL1         0.0976
      13    H9      18.994446   17.674346   22.462331 H          1 MOL1         0.0976
      14    C4      18.890555   19.595448   21.392452 C.3        1 MOL1        -0.1375
      15    H10     18.337700   19.312904   20.485858 H          1 MOL1         0.0976
      16    H11     18.556852   20.614194   21.632879 H          1 MOL1         0.0976
      17    C5      20.400611   19.619158   21.037602 C.3        1 MOL1        -0.1350
      18    H12     21.003532   19.934698   21.895839 H          1 MOL1         0.0976
      19    H13     20.559236   20.388782   20.269254 H          1 MOL1         0.0976
      20    C6      20.929149   18.272977   20.490440 C.3        1 MOL1        -0.2365
      21    H14     20.896017   17.479519   21.245587 H          1 MOL1         0.0987
      22    H15     21.972817   18.374922   20.165694 H          1 MOL1         0.0987
      23    H16     20.341577   17.943593   19.623618 H          1 MOL1         0.0987
@<TRIPOS>BOND
    1     1     2    1
    2     1     3    1
    3     1     4    1
    4     1     5    1
    5     5     6    1
    6     5     7    1
    7     5     8    1
    8     8     9    1
    9     8    10    1
   10     8    11    1
   11    11    12    1
   12    11    13    1
   13    11    14    1
   14    14    15    1
   15    14    16    1
   16    14    17    1
   17    17    18    1
   18    17    19    1
   19    17    20    1
   20    20    21    1
   21    20    22    1
   22    20    23    1
@<TRIPOS>SUBSTRUCTURE
       1 MOL1            1 RESIDUE      1      MOL     
@<SCITEGIC>MOL_PROPERTY
VM2 Rank
SciTegic.value.IntegerValue
81

@<SCITEGIC>MOL_PROPERTY
Conf_Id
SciTegic.value.IntegerValue
732

@<SCITEGIC>MOL_PROPERTY
Probability
SciTegic.value.DoubleValue
0.00

@<SCITEGIC>MOL_PROPERTY
Sum Probability
SciTegic.value.DoubleValue
100.00

@<SCITEGIC>MOL_PROPERTY
Delta G
SciTegic.value.DoubleValue
5.426

@<SCITEGIC>MOL_PROPERTY
G
SciTegic.value.DoubleValue
43.343

@<SCITEGIC>MOL_PROPERTY
E
SciTegic.value.DoubleValue
14.927

@<SCITEGIC>MOL_PROPERTY
-TS
SciTegic.value.DoubleValue
28.416

@<SCITEGIC>MOL_PROPERTY
U+W
SciTegic.value.DoubleValue
-3.852

@<SCITEGIC>MOL_PROPERTY
U
SciTegic.value.DoubleValue
51.834

@<SCITEGIC>MOL_PROPERTY
W
SciTegic.value.DoubleValue
-55.685

@<SCITEGIC>MOL_PROPERTY
W(PB)
SciTegic.value.DoubleValue
-57.702

@<SCITEGIC>MOL_PROPERTY
W(SA)
SciTegic.value.DoubleValue
2.017

@<SCITEGIC>MOL_PROPERTY
Valence
SciTegic.value.DoubleValue
5.094

@<SCITEGIC>MOL_PROPERTY
Coulomb
SciTegic.value.DoubleValue
46.449

@<SCITEGIC>MOL_PROPERTY
VdW
SciTegic.value.DoubleValue
0.290

@<SCITEGIC>MOL_PROPERTY
VdW6
SciTegic.value.DoubleValue
-8.009

@<SCITEGIC>MOL_PROPERTY
VdW12
SciTegic.value.DoubleValue
8.300

@<SCITEGIC>MOL_PROPERTY
Bond
SciTegic.value.DoubleValue
0.281

@<SCITEGIC>MOL_PROPERTY
Angle
SciTegic.value.DoubleValue
2.108

@<SCITEGIC>MOL_PROPERTY
Pdih
SciTegic.value.DoubleValue
2.704

@<SCITEGIC>MOL_PROPERTY
Idih
SciTegic.value.DoubleValue
0.000

@<SCITEGIC>MOL_PROPERTY
Tether
SciTegic.value.DoubleValue
0.000

@<TRIPOS>MOLECULE
guest-2_vm2.mol2 : vm2 ligand conformer 82
          23          22           1
SMALL
USER_CHARGES
 
@<TRIPOS>ATOM
       1    N1      20.853642   18.509580   25.244606 N.4        1 MOL1        -0.5940
       2    H1      20.234762   18.406551   26.055255 H          1 MOL1         0.3649
       3    H2      21.718371   18.944326   25.583955 H          1 MOL1         0.3649
       4    H3      21.097796   17.565189   24.930004 H          1 MOL1         0.3649
       5    C1      20.208672   19.324880   24.142337 C.3        1 MOL1         0.0207
       6    H4      20.933342   19.424665   23.331860 H          1 MOL1         0.0950
       7    H5      20.001606   20.322482   24.538900 H          1 MOL1         0.0950
       8    C2      18.903509   18.698992   23.613560 C.3        1 MOL1        -0.1415
       9    H6      19.080942   17.674565   23.261054 H          1 MOL1         0.0976
      10    H7      18.200859   18.618766   24.453673 H          1 MOL1         0.0976
      11    C3      18.239290   19.539597   22.495127 C.3        1 MOL1        -0.1375
      12    H8      18.342899   20.610237   22.719926 H          1 MOL1         0.0976
      13    H9      17.159419   19.337527   22.517531 H          1 MOL1         0.0976
      14    C4      18.734651   19.249702   21.052200 C.3        1 MOL1        -0.1375
      15    H10     18.523939   18.204833   20.785565 H          1 MOL1         0.0976
      16    H11     18.121223   19.853998   20.369528 H          1 MOL1         0.0976
      17    C5      20.222563   19.581801   20.773683 C.3        1 MOL1        -0.1350
      18    H12     20.564179   20.394295   21.429067 H          1 MOL1         0.0976
      19    H13     20.308302   19.970459   19.749193 H          1 MOL1         0.0976
      20    C6      21.153672   18.352449   20.892486 C.3        1 MOL1        -0.2365
      21    H14     20.885408   17.587815   20.151926 H          1 MOL1         0.0987
      22    H15     21.102564   17.888723   21.883429 H          1 MOL1         0.0987
      23    H16     22.197078   18.640338   20.710032 H          1 MOL1         0.0987
@<TRIPOS>BOND
    1     1     2    1
    2     1     3    1
    3     1     4    1
    4     1     5    1
    5     5     6    1
    6     5     7    1
    7     5     8    1
    8     8     9    1
    9     8    10    1
   10     8    11    1
   11    11    12    1
   12    11    13    1
   13    11    14    1
   14    14    15    1
   15    14    16    1
   16    14    17    1
   17    17    18    1
   18    17    19    1
   19    17    20    1
   20    20    21    1
   21    20    22    1
   22    20    23    1
@<TRIPOS>SUBSTRUCTURE
       1 MOL1            1 RESIDUE      1      MOL     
@<SCITEGIC>MOL_PROPERTY
VM2 Rank
SciTegic.value.IntegerValue
82

@<SCITEGIC>MOL_PROPERTY
Conf_Id
SciTegic.value.IntegerValue
764

@<SCITEGIC>MOL_PROPERTY
Probability
SciTegic.value.DoubleValue
0.00

@<SCITEGIC>MOL_PROPERTY
Sum Probability
SciTegic.value.DoubleValue
100.00

@<SCITEGIC>MOL_PROPERTY
Delta G
SciTegic.value.DoubleValue
5.840

@<SCITEGIC>MOL_PROPERTY
G
SciTegic.value.DoubleValue
43.756

@<SCITEGIC>MOL_PROPERTY
E
SciTegic.value.DoubleValue
15.363

@<SCITEGIC>MOL_PROPERTY
-TS
SciTegic.value.DoubleValue
28.393

@<SCITEGIC>MOL_PROPERTY
U+W
SciTegic.value.DoubleValue
-3.416

@<SCITEGIC>MOL_PROPERTY
U
SciTegic.value.DoubleValue
52.784

@<SCITEGIC>MOL_PROPERTY
W
SciTegic.value.DoubleValue
-56.200

@<SCITEGIC>MOL_PROPERTY
W(PB)
SciTegic.value.DoubleValue
-58.238

@<SCITEGIC>MOL_PROPERTY
W(SA)
SciTegic.value.DoubleValue
2.038

@<SCITEGIC>MOL_PROPERTY
Valence
SciTegic.value.DoubleValue
6.630

@<SCITEGIC>MOL_PROPERTY
Coulomb
SciTegic.value.DoubleValue
45.869

@<SCITEGIC>MOL_PROPERTY
VdW
SciTegic.value.DoubleValue
0.285

@<SCITEGIC>MOL_PROPERTY
VdW6
SciTegic.value.DoubleValue
-7.559

@<SCITEGIC>MOL_PROPERTY
VdW12
SciTegic.value.DoubleValue
7.844

@<SCITEGIC>MOL_PROPERTY
Bond
SciTegic.value.DoubleValue
0.231

@<SCITEGIC>MOL_PROPERTY
Angle
SciTegic.value.DoubleValue
1.767

@<SCITEGIC>MOL_PROPERTY
Pdih
SciTegic.value.DoubleValue
4.632

@<SCITEGIC>MOL_PROPERTY
Idih
SciTegic.value.DoubleValue
0.000

@<SCITEGIC>MOL_PROPERTY
Tether
SciTegic.value.DoubleValue
0.000

@<TRIPOS>MOLECULE
guest-2_vm2.mol2 : vm2 ligand conformer 83
          23          22           1
SMALL
USER_CHARGES
 
@<TRIPOS>ATOM
       1    N1      19.159715   17.804775   25.167343 N.4        1 MOL1        -0.5940
       2    H1      19.681339   16.975853   24.865257 H          1 MOL1         0.3649
       3    H2      18.218629   17.488270   25.424443 H          1 MOL1         0.3649
       4    H3      19.604277   18.144015   26.026448 H          1 MOL1         0.3649
       5    C1      19.120608   18.872261   24.092800 C.3        1 MOL1         0.0207
       6    H4      18.528922   19.709815   24.471958 H          1 MOL1         0.0950
       7    H5      18.604079   18.455824   23.225763 H          1 MOL1         0.0950
       8    C2      20.520858   19.371876   23.687245 C.3        1 MOL1        -0.1415
       9    H6      21.005760   19.785655   24.581449 H          1 MOL1         0.0976
      10    H7      21.148955   18.534944   23.355232 H          1 MOL1         0.0976
      11    C3      20.478583   20.471255   22.597166 C.3        1 MOL1        -0.1375
      12    H8      21.377840   21.092633   22.709776 H          1 MOL1         0.0976
      13    H9      19.630325   21.145856   22.778581 H          1 MOL1         0.0976
      14    C4      20.448098   19.962580   21.130272 C.3        1 MOL1        -0.1375
      15    H10     20.503706   20.845241   20.478100 H          1 MOL1         0.0976
      16    H11     21.356514   19.383335   20.914638 H          1 MOL1         0.0976
      17    C5      19.190237   19.152286   20.726599 C.3        1 MOL1        -0.1350
      18    H12     18.934416   19.398715   19.686496 H          1 MOL1         0.0976
      19    H13     18.324298   19.462471   21.326857 H          1 MOL1         0.0976
      20    C6      19.397901   17.621967   20.812575 C.3        1 MOL1        -0.2365
      21    H14     19.685025   17.299108   21.819024 H          1 MOL1         0.0987
      22    H15     20.185178   17.296366   20.120306 H          1 MOL1         0.0987
      23    H16     18.475910   17.092146   20.540383 H          1 MOL1         0.0987
@<TRIPOS>BOND
    1     1     2    1
    2     1     3    1
    3     1     4    1
    4     1     5    1
    5     5     6    1
    6     5     7    1
    7     5     8    1
    8     8     9    1
    9     8    10    1
   10     8    11    1
   11    11    12    1
   12    11    13    1
   13    11    14    1
   14    14    15    1
   15    14    16    1
   16    14    17    1
   17    17    18    1
   18    17    19    1
   19    17    20    1
   20    20    21    1
   21    20    22    1
   22    20    23    1
@<TRIPOS>SUBSTRUCTURE
       1 MOL1            1 RESIDUE      1      MOL     
@<SCITEGIC>MOL_PROPERTY
VM2 Rank
SciTegic.value.IntegerValue
83

@<SCITEGIC>MOL_PROPERTY
Conf_Id
SciTegic.value.IntegerValue
759

@<SCITEGIC>MOL_PROPERTY
Probability
SciTegic.value.DoubleValue
0.00

@<SCITEGIC>MOL_PROPERTY
Sum Probability
SciTegic.value.DoubleValue
100.00

@<SCITEGIC>MOL_PROPERTY
Delta G
SciTegic.value.DoubleValue
5.873

@<SCITEGIC>MOL_PROPERTY
G
SciTegic.value.DoubleValue
43.789

@<SCITEGIC>MOL_PROPERTY
E
SciTegic.value.DoubleValue
15.397

@<SCITEGIC>MOL_PROPERTY
-TS
SciTegic.value.DoubleValue
28.393

@<SCITEGIC>MOL_PROPERTY
U+W
SciTegic.value.DoubleValue
-3.383

@<SCITEGIC>MOL_PROPERTY
U
SciTegic.value.DoubleValue
52.784

@<SCITEGIC>MOL_PROPERTY
W
SciTegic.value.DoubleValue
-56.167

@<SCITEGIC>MOL_PROPERTY
W(PB)
SciTegic.value.DoubleValue
-58.215

@<SCITEGIC>MOL_PROPERTY
W(SA)
SciTegic.value.DoubleValue
2.048

@<SCITEGIC>MOL_PROPERTY
Valence
SciTegic.value.DoubleValue
6.630

@<SCITEGIC>MOL_PROPERTY
Coulomb
SciTegic.value.DoubleValue
45.869

@<SCITEGIC>MOL_PROPERTY
VdW
SciTegic.value.DoubleValue
0.285

@<SCITEGIC>MOL_PROPERTY
VdW6
SciTegic.value.DoubleValue
-7.559

@<SCITEGIC>MOL_PROPERTY
VdW12
SciTegic.value.DoubleValue
7.844

@<SCITEGIC>MOL_PROPERTY
Bond
SciTegic.value.DoubleValue
0.231

@<SCITEGIC>MOL_PROPERTY
Angle
SciTegic.value.DoubleValue
1.768

@<SCITEGIC>MOL_PROPERTY
Pdih
SciTegic.value.DoubleValue
4.632

@<SCITEGIC>MOL_PROPERTY
Idih
SciTegic.value.DoubleValue
0.000

@<SCITEGIC>MOL_PROPERTY
Tether
SciTegic.value.DoubleValue
0.000

@<TRIPOS>MOLECULE
guest-2_vm2.mol2 : vm2 ligand conformer 84
          23          22           1
SMALL
USER_CHARGES
 
@<TRIPOS>ATOM
       1    N1      20.465688   19.621182   25.104646 N.4        1 MOL1        -0.5940
       2    H1      20.080519   20.495597   24.735657 H          1 MOL1         0.3649
       3    H2      21.410690   19.829005   25.444625 H          1 MOL1         0.3649
       4    H3      19.904093   19.364587   25.922784 H          1 MOL1         0.3649
       5    C1      20.472161   18.522661   24.059424 C.3        1 MOL1         0.0207
       6    H4      20.927969   17.639005   24.514267 H          1 MOL1         0.0950
       7    H5      21.110822   18.845910   23.235226 H          1 MOL1         0.0950
       8    C2      19.068377   18.155989   23.533639 C.3        1 MOL1        -0.1415
       9    H6      19.133571   17.259851   22.902859 H          1 MOL1         0.0976
      10    H7      18.446555   17.872154   24.393065 H          1 MOL1         0.0976
      11    C3      18.357462   19.292594   22.752594 C.3        1 MOL1        -0.1375
      12    H8      18.525099   20.260294   23.242695 H          1 MOL1         0.0976
      13    H9      17.274859   19.117115   22.819946 H          1 MOL1         0.0976
      14    C4      18.713016   19.396324   21.244691 C.3        1 MOL1        -0.1375
      15    H10     18.427244   18.470228   20.727079 H          1 MOL1         0.0976
      16    H11     18.075500   20.180002   20.812352 H          1 MOL1         0.0976
      17    C5      20.186944   19.753036   20.926106 C.3        1 MOL1        -0.1350
      18    H12     20.630264   20.328385   21.749870 H          1 MOL1         0.0976
      19    H13     20.205206   20.421196   20.053642 H          1 MOL1         0.0976
      20    C6      21.052351   18.515215   20.592901 C.3        1 MOL1        -0.2365
      21    H14     20.681955   18.013228   19.689629 H          1 MOL1         0.0987
      22    H15     21.052862   17.780360   21.405352 H          1 MOL1         0.0987
      23    H16     22.092754   18.811036   20.406023 H          1 MOL1         0.0987
@<TRIPOS>BOND
    1     1     2    1
    2     1     3    1
    3     1     4    1
    4     1     5    1
    5     5     6    1
    6     5     7    1
    7     5     8    1
    8     8     9    1
    9     8    10    1
   10     8    11    1
   11    11    12    1
   12    11    13    1
   13    11    14    1
   14    14    15    1
   15    14    16    1
   16    14    17    1
   17    17    18    1
   18    17    19    1
   19    17    20    1
   20    20    21    1
   21    20    22    1
   22    20    23    1
@<TRIPOS>SUBSTRUCTURE
       1 MOL1            1 RESIDUE      1      MOL     
@<SCITEGIC>MOL_PROPERTY
VM2 Rank
SciTegic.value.IntegerValue
84

@<SCITEGIC>MOL_PROPERTY
Conf_Id
SciTegic.value.IntegerValue
893

@<SCITEGIC>MOL_PROPERTY
Probability
SciTegic.value.DoubleValue
0.00

@<SCITEGIC>MOL_PROPERTY
Sum Probability
SciTegic.value.DoubleValue
100.00

@<SCITEGIC>MOL_PROPERTY
Delta G
SciTegic.value.DoubleValue
6.252

@<SCITEGIC>MOL_PROPERTY
G
SciTegic.value.DoubleValue
44.169

@<SCITEGIC>MOL_PROPERTY
E
SciTegic.value.DoubleValue
15.698

@<SCITEGIC>MOL_PROPERTY
-TS
SciTegic.value.DoubleValue
28.471

@<SCITEGIC>MOL_PROPERTY
U+W
SciTegic.value.DoubleValue
-3.081

@<SCITEGIC>MOL_PROPERTY
U
SciTegic.value.DoubleValue
53.200

@<SCITEGIC>MOL_PROPERTY
W
SciTegic.value.DoubleValue
-56.281

@<SCITEGIC>MOL_PROPERTY
W(PB)
SciTegic.value.DoubleValue
-58.315

@<SCITEGIC>MOL_PROPERTY
W(SA)
SciTegic.value.DoubleValue
2.034

@<SCITEGIC>MOL_PROPERTY
Valence
SciTegic.value.DoubleValue
6.810

@<SCITEGIC>MOL_PROPERTY
Coulomb
SciTegic.value.DoubleValue
46.000

@<SCITEGIC>MOL_PROPERTY
VdW
SciTegic.value.DoubleValue
0.390

@<SCITEGIC>MOL_PROPERTY
VdW6
SciTegic.value.DoubleValue
-8.050

@<SCITEGIC>MOL_PROPERTY
VdW12
SciTegic.value.DoubleValue
8.441

@<SCITEGIC>MOL_PROPERTY
Bond
SciTegic.value.DoubleValue
0.260

@<SCITEGIC>MOL_PROPERTY
Angle
SciTegic.value.DoubleValue
1.891

@<SCITEGIC>MOL_PROPERTY
Pdih
SciTegic.value.DoubleValue
4.659

@<SCITEGIC>MOL_PROPERTY
Idih
SciTegic.value.DoubleValue
0.000

@<SCITEGIC>MOL_PROPERTY
Tether
SciTegic.value.DoubleValue
0.000

@<TRIPOS>MOLECULE
guest-2_vm2.mol2 : vm2 ligand conformer 85
          23          22           1
SMALL
USER_CHARGES
 
@<TRIPOS>ATOM
       1    N1      20.691033   18.519880   24.967577 N.4        1 MOL1        -0.5940
       2    H1      20.996521   18.477509   25.945780 H          1 MOL1         0.3649
       3    H2      21.234803   19.260261   24.513966 H          1 MOL1         0.3649
       4    H3      20.958012   17.631811   24.531288 H          1 MOL1         0.3649
       5    C1      19.202223   18.776816   24.854632 C.3        1 MOL1         0.0207
       6    H4      18.983894   19.716611   25.368874 H          1 MOL1         0.0950
       7    H5      18.688399   17.972819   25.388566 H          1 MOL1         0.0950
       8    C2      18.669451   18.846673   23.407715 C.3        1 MOL1        -0.1415
       9    H6      18.859393   17.896456   22.894562 H          1 MOL1         0.0976
      10    H7      17.577476   18.946719   23.464878 H          1 MOL1         0.0976
      11    C3      19.227114   20.044943   22.593403 C.3        1 MOL1        -0.1375
      12    H8      19.371260   20.897203   23.271939 H          1 MOL1         0.0976
      13    H9      18.469056   20.376450   21.870464 H          1 MOL1         0.0976
      14    C4      20.553553   19.758196   21.837773 C.3        1 MOL1        -0.1375
      15    H10     21.154895   20.677865   21.838415 H          1 MOL1         0.0976
      16    H11     21.153951   19.007990   22.365708 H          1 MOL1         0.0976
      17    C5      20.364864   19.322949   20.362231 C.3        1 MOL1        -0.1350
      18    H12     21.355138   19.229676   19.894831 H          1 MOL1         0.0976
      19    H13     19.840566   20.114106   19.808183 H          1 MOL1         0.0976
      20    C6      19.607761   17.987544   20.190668 C.3        1 MOL1        -0.2365
      21    H14     18.567033   18.072108   20.527294 H          1 MOL1         0.0987
      22    H15     20.092977   17.182130   20.756885 H          1 MOL1         0.0987
      23    H16     19.588718   17.690163   19.134230 H          1 MOL1         0.0987
@<TRIPOS>BOND
    1     1     2    1
    2     1     3    1
    3     1     4    1
    4     1     5    1
    5     5     6    1
    6     5     7    1
    7     5     8    1
    8     8     9    1
    9     8    10    1
   10     8    11    1
   11    11    12    1
   12    11    13    1
   13    11    14    1
   14    14    15    1
   15    14    16    1
   16    14    17    1
   17    17    18    1
   18    17    19    1
   19    17    20    1
   20    20    21    1
   21    20    22    1
   22    20    23    1
@<TRIPOS>SUBSTRUCTURE
       1 MOL1            1 RESIDUE      1      MOL     
@<SCITEGIC>MOL_PROPERTY
VM2 Rank
SciTegic.value.IntegerValue
85

@<SCITEGIC>MOL_PROPERTY
Conf_Id
SciTegic.value.IntegerValue
176

@<SCITEGIC>MOL_PROPERTY
Probability
SciTegic.value.DoubleValue
0.00

@<SCITEGIC>MOL_PROPERTY
Sum Probability
SciTegic.value.DoubleValue
100.00

@<SCITEGIC>MOL_PROPERTY
Delta G
SciTegic.value.DoubleValue
6.276

@<SCITEGIC>MOL_PROPERTY
G
SciTegic.value.DoubleValue
44.193

@<SCITEGIC>MOL_PROPERTY
E
SciTegic.value.DoubleValue
16.073

@<SCITEGIC>MOL_PROPERTY
-TS
SciTegic.value.DoubleValue
28.120

@<SCITEGIC>MOL_PROPERTY
U+W
SciTegic.value.DoubleValue
-2.706

@<SCITEGIC>MOL_PROPERTY
U
SciTegic.value.DoubleValue
53.344

@<SCITEGIC>MOL_PROPERTY
W
SciTegic.value.DoubleValue
-56.050

@<SCITEGIC>MOL_PROPERTY
W(PB)
SciTegic.value.DoubleValue
-58.095

@<SCITEGIC>MOL_PROPERTY
W(SA)
SciTegic.value.DoubleValue
2.045

@<SCITEGIC>MOL_PROPERTY
Valence
SciTegic.value.DoubleValue
6.531

@<SCITEGIC>MOL_PROPERTY
Coulomb
SciTegic.value.DoubleValue
46.150

@<SCITEGIC>MOL_PROPERTY
VdW
SciTegic.value.DoubleValue
0.663

@<SCITEGIC>MOL_PROPERTY
VdW6
SciTegic.value.DoubleValue
-7.490

@<SCITEGIC>MOL_PROPERTY
VdW12
SciTegic.value.DoubleValue
8.153

@<SCITEGIC>MOL_PROPERTY
Bond
SciTegic.value.DoubleValue
0.263

@<SCITEGIC>MOL_PROPERTY
Angle
SciTegic.value.DoubleValue
1.394

@<SCITEGIC>MOL_PROPERTY
Pdih
SciTegic.value.DoubleValue
4.874

@<SCITEGIC>MOL_PROPERTY
Idih
SciTegic.value.DoubleValue
0.000

@<SCITEGIC>MOL_PROPERTY
Tether
SciTegic.value.DoubleValue
0.000

@<TRIPOS>MOLECULE
guest-2_vm2.mol2 : vm2 ligand conformer 86
          23          22           1
SMALL
USER_CHARGES
 
@<TRIPOS>ATOM
       1    N1      18.655885   18.867823   25.022252 N.4        1 MOL1        -0.5940
       2    H1      19.168268   19.058129   25.889332 H          1 MOL1         0.3649
       3    H2      17.819232   18.334100   25.281012 H          1 MOL1         0.3649
       4    H3      18.335462   19.769221   24.656305 H          1 MOL1         0.3649
       5    C1      19.510390   18.122354   24.015586 C.3        1 MOL1         0.0207
       6    H4      18.897181   17.924630   23.134360 H          1 MOL1         0.0950
       7    H5      19.781179   17.161650   24.461917 H          1 MOL1         0.0950
       8    C2      20.795836   18.875034   23.612340 C.3        1 MOL1        -0.1415
       9    H6      21.366554   19.087550   24.526098 H          1 MOL1         0.0976
      10    H7      21.433713   18.217284   23.007630 H          1 MOL1         0.0976
      11    C3      20.550152   20.205304   22.852522 C.3        1 MOL1        -0.1375
      12    H8      21.428801   20.846208   23.009288 H          1 MOL1         0.0976
      13    H9      19.709078   20.753119   23.296639 H          1 MOL1         0.0976
      14    C4      20.344186   20.075301   21.319023 C.3        1 MOL1        -0.1375
      15    H10     20.269946   21.093441   20.912362 H          1 MOL1         0.0976
      16    H11     21.240801   19.641371   20.855314 H          1 MOL1         0.0976
      17    C5      19.082082   19.293142   20.875709 C.3        1 MOL1        -0.1350
      18    H12     18.663716   19.779525   19.983316 H          1 MOL1         0.0976
      19    H13     18.299596   19.358292   21.643577 H          1 MOL1         0.0976
      20    C6      19.377470   17.818042   20.516569 C.3        1 MOL1        -0.2365
      21    H14     20.063089   17.755537   19.661521 H          1 MOL1         0.0987
      22    H15     18.452468   17.295798   20.239977 H          1 MOL1         0.0987
      23    H16     19.834453   17.273232   21.349897 H          1 MOL1         0.0987
@<TRIPOS>BOND
    1     1     2    1
    2     1     3    1
    3     1     4    1
    4     1     5    1
    5     5     6    1
    6     5     7    1
    7     5     8    1
    8     8     9    1
    9     8    10    1
   10     8    11    1
   11    11    12    1
   12    11    13    1
   13    11    14    1
   14    14    15    1
   15    14    16    1
   16    14    17    1
   17    17    18    1
   18    17    19    1
   19    17    20    1
   20    20    21    1
   21    20    22    1
   22    20    23    1
@<TRIPOS>SUBSTRUCTURE
       1 MOL1            1 RESIDUE      1      MOL     
@<SCITEGIC>MOL_PROPERTY
VM2 Rank
SciTegic.value.IntegerValue
86

@<SCITEGIC>MOL_PROPERTY
Conf_Id
SciTegic.value.IntegerValue
748

@<SCITEGIC>MOL_PROPERTY
Probability
SciTegic.value.DoubleValue
0.00

@<SCITEGIC>MOL_PROPERTY
Sum Probability
SciTegic.value.DoubleValue
100.00

@<SCITEGIC>MOL_PROPERTY
Delta G
SciTegic.value.DoubleValue
6.344

@<SCITEGIC>MOL_PROPERTY
G
SciTegic.value.DoubleValue
44.261

@<SCITEGIC>MOL_PROPERTY
E
SciTegic.value.DoubleValue
15.790

@<SCITEGIC>MOL_PROPERTY
-TS
SciTegic.value.DoubleValue
28.471

@<SCITEGIC>MOL_PROPERTY
U+W
SciTegic.value.DoubleValue
-2.989

@<SCITEGIC>MOL_PROPERTY
U
SciTegic.value.DoubleValue
53.200

@<SCITEGIC>MOL_PROPERTY
W
SciTegic.value.DoubleValue
-56.189

@<SCITEGIC>MOL_PROPERTY
W(PB)
SciTegic.value.DoubleValue
-58.232

@<SCITEGIC>MOL_PROPERTY
W(SA)
SciTegic.value.DoubleValue
2.042

@<SCITEGIC>MOL_PROPERTY
Valence
SciTegic.value.DoubleValue
6.810

@<SCITEGIC>MOL_PROPERTY
Coulomb
SciTegic.value.DoubleValue
46.000

@<SCITEGIC>MOL_PROPERTY
VdW
SciTegic.value.DoubleValue
0.391

@<SCITEGIC>MOL_PROPERTY
VdW6
SciTegic.value.DoubleValue
-8.050

@<SCITEGIC>MOL_PROPERTY
VdW12
SciTegic.value.DoubleValue
8.441

@<SCITEGIC>MOL_PROPERTY
Bond
SciTegic.value.DoubleValue
0.260

@<SCITEGIC>MOL_PROPERTY
Angle
SciTegic.value.DoubleValue
1.891

@<SCITEGIC>MOL_PROPERTY
Pdih
SciTegic.value.DoubleValue
4.659

@<SCITEGIC>MOL_PROPERTY
Idih
SciTegic.value.DoubleValue
0.000

@<SCITEGIC>MOL_PROPERTY
Tether
SciTegic.value.DoubleValue
0.000

@<TRIPOS>MOLECULE
guest-2_vm2.mol2 : vm2 ligand conformer 87
          23          22           1
SMALL
USER_CHARGES
 
@<TRIPOS>ATOM
       1    N1      19.269840   17.593427   24.068504 N.4        1 MOL1        -0.5940
       2    H1      20.052865   17.144994   24.555118 H          1 MOL1         0.3649
       3    H2      19.455580   17.525833   23.062719 H          1 MOL1         0.3649
       4    H3      18.434503   17.031507   24.265380 H          1 MOL1         0.3649
       5    C1      19.092778   19.035996   24.501290 C.3        1 MOL1         0.0207
       6    H4      18.901361   19.025197   25.577744 H          1 MOL1         0.0950
       7    H5      18.209414   19.445096   24.003863 H          1 MOL1         0.0950
       8    C2      20.316207   19.930920   24.216600 C.3        1 MOL1        -0.1415
       9    H6      20.262169   20.794790   24.892357 H          1 MOL1         0.0976
      10    H7      21.237130   19.397554   24.487327 H          1 MOL1         0.0976
      11    C3      20.418313   20.470966   22.764693 C.3        1 MOL1        -0.1375
      12    H8      21.295784   21.130988   22.720880 H          1 MOL1         0.0976
      13    H9      19.555864   21.114599   22.542459 H          1 MOL1         0.0976
      14    C4      20.575619   19.390063   21.664617 C.3        1 MOL1        -0.1375
      15    H10     21.243547   19.781023   20.884386 H          1 MOL1         0.0976
      16    H11     21.083367   18.505694   22.071813 H          1 MOL1         0.0976
      17    C5      19.235061   19.004629   20.992720 C.3        1 MOL1        -0.1350
      18    H12     18.837552   19.875215   20.452164 H          1 MOL1         0.0976
      19    H13     18.478146   18.743190   21.741726 H          1 MOL1         0.0976
      20    C6      19.408182   17.831000   20.005577 C.3        1 MOL1        -0.2365
      21    H14     20.122809   18.086166   19.212125 H          1 MOL1         0.0987
      22    H15     18.451482   17.581903   19.528235 H          1 MOL1         0.0987
      23    H16     19.773735   16.930985   20.516568 H          1 MOL1         0.0987
@<TRIPOS>BOND
    1     1     2    1
    2     1     3    1
    3     1     4    1
    4     1     5    1
    5     5     6    1
    6     5     7    1
    7     5     8    1
    8     8     9    1
    9     8    10    1
   10     8    11    1
   11    11    12    1
   12    11    13    1
   13    11    14    1
   14    14    15    1
   15    14    16    1
   16    14    17    1
   17    17    18    1
   18    17    19    1
   19    17    20    1
   20    20    21    1
   21    20    22    1
   22    20    23    1
@<TRIPOS>SUBSTRUCTURE
       1 MOL1            1 RESIDUE      1      MOL     
@<SCITEGIC>MOL_PROPERTY
VM2 Rank
SciTegic.value.IntegerValue
87

@<SCITEGIC>MOL_PROPERTY
Conf_Id
SciTegic.value.IntegerValue
358

@<SCITEGIC>MOL_PROPERTY
Probability
SciTegic.value.DoubleValue
0.00

@<SCITEGIC>MOL_PROPERTY
Sum Probability
SciTegic.value.DoubleValue
100.00

@<SCITEGIC>MOL_PROPERTY
Delta G
SciTegic.value.DoubleValue
6.772

@<SCITEGIC>MOL_PROPERTY
G
SciTegic.value.DoubleValue
44.689

@<SCITEGIC>MOL_PROPERTY
E
SciTegic.value.DoubleValue
16.391

@<SCITEGIC>MOL_PROPERTY
-TS
SciTegic.value.DoubleValue
28.298

@<SCITEGIC>MOL_PROPERTY
U+W
SciTegic.value.DoubleValue
-2.388

@<SCITEGIC>MOL_PROPERTY
U
SciTegic.value.DoubleValue
52.836

@<SCITEGIC>MOL_PROPERTY
W
SciTegic.value.DoubleValue
-55.224

@<SCITEGIC>MOL_PROPERTY
W(PB)
SciTegic.value.DoubleValue
-57.261

@<SCITEGIC>MOL_PROPERTY
W(SA)
SciTegic.value.DoubleValue
2.037

@<SCITEGIC>MOL_PROPERTY
Valence
SciTegic.value.DoubleValue
5.785

@<SCITEGIC>MOL_PROPERTY
Coulomb
SciTegic.value.DoubleValue
46.744

@<SCITEGIC>MOL_PROPERTY
VdW
SciTegic.value.DoubleValue
0.307

@<SCITEGIC>MOL_PROPERTY
VdW6
SciTegic.value.DoubleValue
-7.672

@<SCITEGIC>MOL_PROPERTY
VdW12
SciTegic.value.DoubleValue
7.979

@<SCITEGIC>MOL_PROPERTY
Bond
SciTegic.value.DoubleValue
0.217

@<SCITEGIC>MOL_PROPERTY
Angle
SciTegic.value.DoubleValue
1.470

@<SCITEGIC>MOL_PROPERTY
Pdih
SciTegic.value.DoubleValue
4.098

@<SCITEGIC>MOL_PROPERTY
Idih
SciTegic.value.DoubleValue
0.000

@<SCITEGIC>MOL_PROPERTY
Tether
SciTegic.value.DoubleValue
0.000

@<TRIPOS>MOLECULE
guest-2_vm2.mol2 : vm2 ligand conformer 88
          23          22           1
SMALL
USER_CHARGES
 
@<TRIPOS>ATOM
       1    N1      21.011193   18.317813   24.147963 N.4        1 MOL1        -0.5940
       2    H1      21.006781   18.171092   23.133504 H          1 MOL1         0.3649
       3    H2      20.741242   17.431371   24.586555 H          1 MOL1         0.3649
       4    H3      21.980095   18.506435   24.427169 H          1 MOL1         0.3649
       5    C1      20.080557   19.446917   24.546338 C.3        1 MOL1         0.0207
       6    H4      20.449586   20.376991   24.105989 H          1 MOL1         0.0950
       7    H5      20.139026   19.540113   25.634183 H          1 MOL1         0.0950
       8    C2      18.610271   19.221257   24.138840 C.3        1 MOL1        -0.1415
       9    H6      18.320466   18.184224   24.354359 H          1 MOL1         0.0976
      10    H7      17.984146   19.847131   24.788523 H          1 MOL1         0.0976
      11    C3      18.268892   19.576832   22.666722 C.3        1 MOL1        -0.1375
      12    H8      18.435864   20.648680   22.491411 H          1 MOL1         0.0976
      13    H9      17.189059   19.422663   22.533694 H          1 MOL1         0.0976
      14    C4      19.009058   18.738383   21.593215 C.3        1 MOL1        -0.1375
      15    H10     19.247186   17.741858   21.988132 H          1 MOL1         0.0976
      16    H11     18.323925   18.566483   20.751323 H          1 MOL1         0.0976
      17    C5      20.275065   19.437233   21.040106 C.3        1 MOL1        -0.1350
      18    H12     20.933417   19.764438   21.853610 H          1 MOL1         0.0976
      19    H13     19.979675   20.350335   20.504265 H          1 MOL1         0.0976
      20    C6      21.060964   18.518565   20.080816 C.3        1 MOL1        -0.2365
      21    H14     21.945935   19.035540   19.687443 H          1 MOL1         0.0987
      22    H15     20.440197   18.218343   19.226484 H          1 MOL1         0.0987
      23    H16     21.401872   17.608260   20.590614 H          1 MOL1         0.0987
@<TRIPOS>BOND
    1     1     2    1
    2     1     3    1
    3     1     4    1
    4     1     5    1
    5     5     6    1
    6     5     7    1
    7     5     8    1
    8     8     9    1
    9     8    10    1
   10     8    11    1
   11    11    12    1
   12    11    13    1
   13    11    14    1
   14    14    15    1
   15    14    16    1
   16    14    17    1
   17    17    18    1
   18    17    19    1
   19    17    20    1
   20    20    21    1
   21    20    22    1
   22    20    23    1
@<TRIPOS>SUBSTRUCTURE
       1 MOL1            1 RESIDUE      1      MOL     
@<SCITEGIC>MOL_PROPERTY
VM2 Rank
SciTegic.value.IntegerValue
88

@<SCITEGIC>MOL_PROPERTY
Conf_Id
SciTegic.value.IntegerValue
649

@<SCITEGIC>MOL_PROPERTY
Probability
SciTegic.value.DoubleValue
0.00

@<SCITEGIC>MOL_PROPERTY
Sum Probability
SciTegic.value.DoubleValue
100.00

@<SCITEGIC>MOL_PROPERTY
Delta G
SciTegic.value.DoubleValue
6.865

@<SCITEGIC>MOL_PROPERTY
G
SciTegic.value.DoubleValue
44.781

@<SCITEGIC>MOL_PROPERTY
E
SciTegic.value.DoubleValue
16.484

@<SCITEGIC>MOL_PROPERTY
-TS
SciTegic.value.DoubleValue
28.298

@<SCITEGIC>MOL_PROPERTY
U+W
SciTegic.value.DoubleValue
-2.295

@<SCITEGIC>MOL_PROPERTY
U
SciTegic.value.DoubleValue
52.836

@<SCITEGIC>MOL_PROPERTY
W
SciTegic.value.DoubleValue
-55.131

@<SCITEGIC>MOL_PROPERTY
W(PB)
SciTegic.value.DoubleValue
-57.202

@<SCITEGIC>MOL_PROPERTY
W(SA)
SciTegic.value.DoubleValue
2.071

@<SCITEGIC>MOL_PROPERTY
Valence
SciTegic.value.DoubleValue
5.785

@<SCITEGIC>MOL_PROPERTY
Coulomb
SciTegic.value.DoubleValue
46.744

@<SCITEGIC>MOL_PROPERTY
VdW
SciTegic.value.DoubleValue
0.307

@<SCITEGIC>MOL_PROPERTY
VdW6
SciTegic.value.DoubleValue
-7.671

@<SCITEGIC>MOL_PROPERTY
VdW12
SciTegic.value.DoubleValue
7.978

@<SCITEGIC>MOL_PROPERTY
Bond
SciTegic.value.DoubleValue
0.217

@<SCITEGIC>MOL_PROPERTY
Angle
SciTegic.value.DoubleValue
1.470

@<SCITEGIC>MOL_PROPERTY
Pdih
SciTegic.value.DoubleValue
4.098

@<SCITEGIC>MOL_PROPERTY
Idih
SciTegic.value.DoubleValue
0.000

@<SCITEGIC>MOL_PROPERTY
Tether
SciTegic.value.DoubleValue
0.000

@<TRIPOS>MOLECULE
guest-2_vm2.mol2 : vm2 ligand conformer 89
          23          22           1
SMALL
USER_CHARGES
 
@<TRIPOS>ATOM
       1    N1      19.022761   17.855798   24.479434 N.4        1 MOL1        -0.5940
       2    H1      18.096199   17.502991   24.742509 H          1 MOL1         0.3649
       3    H2      19.690561   17.474135   25.157171 H          1 MOL1         0.3649
       4    H3      19.254768   17.456226   23.565231 H          1 MOL1         0.3649
       5    C1      19.060188   19.371295   24.448058 C.3        1 MOL1         0.0207
       6    H4      18.809305   19.717465   25.454402 H          1 MOL1         0.0950
       7    H5      18.285473   19.727273   23.763734 H          1 MOL1         0.0950
       8    C2      20.427890   19.955794   24.041032 C.3        1 MOL1        -0.1415
       9    H6      20.488564   20.974855   24.445582 H          1 MOL1         0.0976
      10    H7      21.234369   19.392517   24.529052 H          1 MOL1         0.0976
      11    C3      20.679957   20.038390   22.511810 C.3        1 MOL1        -0.1375
      12    H8      21.653032   20.527442   22.365983 H          1 MOL1         0.0976
      13    H9      19.944229   20.711109   22.053146 H          1 MOL1         0.0976
      14    C4      20.714363   18.675252   21.769828 C.3        1 MOL1        -0.1375
      15    H10     21.479331   18.720925   20.982234 H          1 MOL1         0.0976
      16    H11     21.056352   17.889038   22.455802 H          1 MOL1         0.0976
      17    C5      19.369788   18.266502   21.113821 C.3        1 MOL1        -0.1350
      18    H12     18.542051   18.357073   21.827583 H          1 MOL1         0.0976
      19    H13     19.422145   17.205757   20.830924 H          1 MOL1         0.0976
      20    C6      19.041052   19.093970   19.850017 C.3        1 MOL1        -0.2365
      21    H14     18.905393   20.156860   20.083963 H          1 MOL1         0.0987
      22    H15     18.112333   18.735902   19.387175 H          1 MOL1         0.0987
      23    H16     19.840858   19.008315   19.103027 H          1 MOL1         0.0987
@<TRIPOS>BOND
    1     1     2    1
    2     1     3    1
    3     1     4    1
    4     1     5    1
    5     5     6    1
    6     5     7    1
    7     5     8    1
    8     8     9    1
    9     8    10    1
   10     8    11    1
   11    11    12    1
   12    11    13    1
   13    11    14    1
   14    14    15    1
   15    14    16    1
   16    14    17    1
   17    17    18    1
   18    17    19    1
   19    17    20    1
   20    20    21    1
   21    20    22    1
   22    20    23    1
@<TRIPOS>SUBSTRUCTURE
       1 MOL1            1 RESIDUE      1      MOL     
@<SCITEGIC>MOL_PROPERTY
VM2 Rank
SciTegic.value.IntegerValue
89

@<SCITEGIC>MOL_PROPERTY
Conf_Id
SciTegic.value.IntegerValue
160

@<SCITEGIC>MOL_PROPERTY
Probability
SciTegic.value.DoubleValue
0.00

@<SCITEGIC>MOL_PROPERTY
Sum Probability
SciTegic.value.DoubleValue
100.00

@<SCITEGIC>MOL_PROPERTY
Delta G
SciTegic.value.DoubleValue
6.934

@<SCITEGIC>MOL_PROPERTY
G
SciTegic.value.DoubleValue
44.850

@<SCITEGIC>MOL_PROPERTY
E
SciTegic.value.DoubleValue
16.564

@<SCITEGIC>MOL_PROPERTY
-TS
SciTegic.value.DoubleValue
28.287

@<SCITEGIC>MOL_PROPERTY
U+W
SciTegic.value.DoubleValue
-2.215

@<SCITEGIC>MOL_PROPERTY
U
SciTegic.value.DoubleValue
53.835

@<SCITEGIC>MOL_PROPERTY
W
SciTegic.value.DoubleValue
-56.051

@<SCITEGIC>MOL_PROPERTY
W(PB)
SciTegic.value.DoubleValue
-58.080

@<SCITEGIC>MOL_PROPERTY
W(SA)
SciTegic.value.DoubleValue
2.029

@<SCITEGIC>MOL_PROPERTY
Valence
SciTegic.value.DoubleValue
6.519

@<SCITEGIC>MOL_PROPERTY
Coulomb
SciTegic.value.DoubleValue
46.847

@<SCITEGIC>MOL_PROPERTY
VdW
SciTegic.value.DoubleValue
0.469

@<SCITEGIC>MOL_PROPERTY
VdW6
SciTegic.value.DoubleValue
-7.907

@<SCITEGIC>MOL_PROPERTY
VdW12
SciTegic.value.DoubleValue
8.376

@<SCITEGIC>MOL_PROPERTY
Bond
SciTegic.value.DoubleValue
0.262

@<SCITEGIC>MOL_PROPERTY
Angle
SciTegic.value.DoubleValue
1.644

@<SCITEGIC>MOL_PROPERTY
Pdih
SciTegic.value.DoubleValue
4.614

@<SCITEGIC>MOL_PROPERTY
Idih
SciTegic.value.DoubleValue
0.000

@<SCITEGIC>MOL_PROPERTY
Tether
SciTegic.value.DoubleValue
0.000

@<TRIPOS>MOLECULE
guest-2_vm2.mol2 : vm2 ligand conformer 90
          23          22           1
SMALL
USER_CHARGES
 
@<TRIPOS>ATOM
       1    N1      20.966826   18.663985   24.568038 N.4        1 MOL1        -0.5940
       2    H1      20.715344   17.900182   25.203894 H          1 MOL1         0.3649
       3    H2      21.846789   19.062181   24.913447 H          1 MOL1         0.3649
       4    H3      21.157583   18.247242   23.651965 H          1 MOL1         0.3649
       5    C1      19.870518   19.708170   24.484963 C.3        1 MOL1         0.0207
       6    H4      20.215753   20.529707   23.851644 H          1 MOL1         0.0950
       7    H5      19.723674   20.097628   25.496033 H          1 MOL1         0.0950
       8    C2      18.527957   19.165953   23.954447 C.3        1 MOL1        -0.1415
       9    H6      18.322351   18.181931   24.396351 H          1 MOL1         0.0976
      10    H7      17.732807   19.829229   24.320003 H          1 MOL1         0.0976
      11    C3      18.411105   19.095176   22.408415 C.3        1 MOL1        -0.1375
      12    H8      18.487297   20.105428   21.986746 H          1 MOL1         0.0976
      13    H9      17.392969   18.756433   22.171850 H          1 MOL1         0.0976
      14    C4      19.409159   18.132642   21.710353 C.3        1 MOL1        -0.1375
      15    H10     19.672161   17.313596   22.392735 H          1 MOL1         0.0976
      16    H11     18.900726   17.648920   20.864732 H          1 MOL1         0.0976
      17    C5      20.693562   18.816819   21.174147 C.3        1 MOL1        -0.1350
      18    H12     21.429391   18.040212   20.922381 H          1 MOL1         0.0976
      19    H13     21.155403   19.443485   21.946676 H          1 MOL1         0.0976
      20    C6      20.436872   19.674254   19.913636 C.3        1 MOL1        -0.2365
      21    H14     19.993719   19.071897   19.110019 H          1 MOL1         0.0987
      22    H15     21.378382   20.093661   19.535994 H          1 MOL1         0.0987
      23    H16     19.761841   20.512920   20.123019 H          1 MOL1         0.0987
@<TRIPOS>BOND
    1     1     2    1
    2     1     3    1
    3     1     4    1
    4     1     5    1
    5     5     6    1
    6     5     7    1
    7     5     8    1
    8     8     9    1
    9     8    10    1
   10     8    11    1
   11    11    12    1
   12    11    13    1
   13    11    14    1
   14    14    15    1
   15    14    16    1
   16    14    17    1
   17    17    18    1
   18    17    19    1
   19    17    20    1
   20    20    21    1
   21    20    22    1
   22    20    23    1
@<TRIPOS>SUBSTRUCTURE
       1 MOL1            1 RESIDUE      1      MOL     
@<SCITEGIC>MOL_PROPERTY
VM2 Rank
SciTegic.value.IntegerValue
90

@<SCITEGIC>MOL_PROPERTY
Conf_Id
SciTegic.value.IntegerValue
701

@<SCITEGIC>MOL_PROPERTY
Probability
SciTegic.value.DoubleValue
0.00

@<SCITEGIC>MOL_PROPERTY
Sum Probability
SciTegic.value.DoubleValue
100.00

@<SCITEGIC>MOL_PROPERTY
Delta G
SciTegic.value.DoubleValue
7.088

@<SCITEGIC>MOL_PROPERTY
G
SciTegic.value.DoubleValue
45.005

@<SCITEGIC>MOL_PROPERTY
E
SciTegic.value.DoubleValue
16.718

@<SCITEGIC>MOL_PROPERTY
-TS
SciTegic.value.DoubleValue
28.287

@<SCITEGIC>MOL_PROPERTY
U+W
SciTegic.value.DoubleValue
-2.061

@<SCITEGIC>MOL_PROPERTY
U
SciTegic.value.DoubleValue
53.835

@<SCITEGIC>MOL_PROPERTY
W
SciTegic.value.DoubleValue
-55.896

@<SCITEGIC>MOL_PROPERTY
W(PB)
SciTegic.value.DoubleValue
-57.909

@<SCITEGIC>MOL_PROPERTY
W(SA)
SciTegic.value.DoubleValue
2.013

@<SCITEGIC>MOL_PROPERTY
Valence
SciTegic.value.DoubleValue
6.519

@<SCITEGIC>MOL_PROPERTY
Coulomb
SciTegic.value.DoubleValue
46.847

@<SCITEGIC>MOL_PROPERTY
VdW
SciTegic.value.DoubleValue
0.469

@<SCITEGIC>MOL_PROPERTY
VdW6
SciTegic.value.DoubleValue
-7.907

@<SCITEGIC>MOL_PROPERTY
VdW12
SciTegic.value.DoubleValue
8.376

@<SCITEGIC>MOL_PROPERTY
Bond
SciTegic.value.DoubleValue
0.262

@<SCITEGIC>MOL_PROPERTY
Angle
SciTegic.value.DoubleValue
1.644

@<SCITEGIC>MOL_PROPERTY
Pdih
SciTegic.value.DoubleValue
4.614

@<SCITEGIC>MOL_PROPERTY
Idih
SciTegic.value.DoubleValue
0.000

@<SCITEGIC>MOL_PROPERTY
Tether
SciTegic.value.DoubleValue
0.000

