VeraChem MOL file


 26 25  0  0  0  0  0  0  0  0999 V2000     
   20.2414   18.6563   18.8060 C   0  0  0  0  0  0  0  0  0  0  0  0
   19.6046   19.4973   18.5017 H   0  0  0  0  0  0  0  0  0  0  0  0
   21.0557   18.5687   18.0750 H   0  0  0  0  0  0  0  0  0  0  0  0
   19.6424   17.7378   18.7548 H   0  0  0  0  0  0  0  0  0  0  0  0
   20.8051   18.8728   20.2264 C   0  0  0  0  0  0  0  0  0  0  0  0
   21.4265   19.7792   20.2377 H   0  0  0  0  0  0  0  0  0  0  0  0
   21.4641   18.0333   20.4887 H   0  0  0  0  0  0  0  0  0  0  0  0
   19.6785   18.9995   21.2757 C   0  0  0  0  0  0  0  0  0  0  0  0
   19.0208   19.8377   21.0067 H   0  0  0  0  0  0  0  0  0  0  0  0
   19.0591   18.0919   21.2594 H   0  0  0  0  0  0  0  0  0  0  0  0
   20.2389   19.2172   22.6994 C   0  0  0  0  0  0  0  0  0  0  0  0
   20.8551   20.1271   22.7151 H   0  0  0  0  0  0  0  0  0  0  0  0
   20.8998   18.3791   22.9576 H   0  0  0  0  0  0  0  0  0  0  0  0
   19.1076   19.3423   23.7488 C   0  0  0  0  0  0  0  0  0  0  0  0
   18.4280   20.1492   23.4433 H   0  0  0  0  0  0  0  0  0  0  0  0
   18.5118   18.4200   23.7646 H   0  0  0  0  0  0  0  0  0  0  0  0
   19.6331   19.6456   25.1688 C   0  0  1  0  0  0  0  0  0  0  0  0
   20.2419   20.5539   25.1223 H   0  0  0  0  0  0  0  0  0  0  0  0
   18.4605   19.8996   26.1296 C   0  0  0  0  0  0  0  0  0  0  0  0
   17.8446   20.7377   25.7803 H   0  0  0  0  0  0  0  0  0  0  0  0
   18.8276   20.1521   27.1321 H   0  0  0  0  0  0  0  0  0  0  0  0
   17.8173   19.0147   26.2138 H   0  0  0  0  0  0  0  0  0  0  0  0
   20.5229   18.5546   25.6994 N   0  3  0  0  0  0  0  0  0  0  0  0
   21.3337   18.4049   25.0931 H   0  0  0  0  0  0  0  0  0  0  0  0
   20.8769   18.7814   26.6330 H   0  0  0  0  0  0  0  0  0  0  0  0
   20.0217   17.6651   25.7696 H   0  0  0  0  0  0  0  0  0  0  0  0
  1  2  1  0  0  0  0
  1  3  1  0  0  0  0
  1  4  1  0  0  0  0
  1  5  1  0  0  0  0
  5  6  1  0  0  0  0
  5  7  1  0  0  0  0
  5  8  1  0  0  0  0
  8  9  1  0  0  0  0
  8 10  1  0  0  0  0
  8 11  1  0  0  0  0
 11 12  1  0  0  0  0
 11 13  1  0  0  0  0
 11 14  1  0  0  0  0
 14 15  1  0  0  0  0
 14 16  1  0  0  0  0
 14 17  1  0  0  0  0
 17 18  1  0  0  0  0
 17 19  1  0  0  0  0
 19 20  1  0  0  0  0
 19 21  1  0  0  0  0
 19 22  1  0  0  0  0
 17 23  1  0  0  0  0
 23 24  1  0  0  0  0
 23 25  1  0  0  0  0
 23 26  1  0  0  0  0
M  END
> <VM2 Rank>
1

> <Conf_Id>
326

> <Probability>
16.98

> <Sum Probability>
16.98

> <Delta G>
0.000

> <G>
23.710

> <E>
-8.843

> <-TS>
32.553

> <U+W>
-30.305

> <U>
23.517

> <W>
-53.813

> <W(PB)>
-56.159

> <W(SA)>
2.346

> <Valence>
2.737

> <Coulomb>
19.862

> <VdW>
0.919

> <VdW6>
-6.793

> <VdW12>
7.712

> <Bond>
0.171

> <Angle>
0.873

> <Pdih>
1.693

> <Idih>
0.000

> <Tether>
0.000

$$$$
VeraChem MOL file


 26 25  0  0  0  0  0  0  0  0999 V2000     
   20.2648   18.6437   18.8026 C   0  0  0  0  0  0  0  0  0  0  0  0
   20.3175   19.2783   17.9084 H   0  0  0  0  0  0  0  0  0  0  0  0
   21.1735   18.0284   18.8331 H   0  0  0  0  0  0  0  0  0  0  0  0
   19.4021   17.9742   18.6902 H   0  0  0  0  0  0  0  0  0  0  0  0
   20.1357   19.5062   20.0760 C   0  0  0  0  0  0  0  0  0  0  0  0
   19.2371   20.1345   20.0009 H   0  0  0  0  0  0  0  0  0  0  0  0
   20.9948   20.1883   20.1429 H   0  0  0  0  0  0  0  0  0  0  0  0
   20.0595   18.6366   21.3505 C   0  0  0  0  0  0  0  0  0  0  0  0
   19.2005   17.9552   21.2782 H   0  0  0  0  0  0  0  0  0  0  0  0
   20.9585   18.0084   21.4186 H   0  0  0  0  0  0  0  0  0  0  0  0
   19.9305   19.4968   22.6282 C   0  0  0  0  0  0  0  0  0  0  0  0
   19.0346   20.1260   22.5455 H   0  0  0  0  0  0  0  0  0  0  0  0
   20.7923   20.1745   22.7022 H   0  0  0  0  0  0  0  0  0  0  0  0
   19.8499   18.6222   23.9036 C   0  0  0  0  0  0  0  0  0  0  0  0
   18.9531   17.9897   23.8630 H   0  0  0  0  0  0  0  0  0  0  0  0
   20.7109   17.9408   23.9148 H   0  0  0  0  0  0  0  0  0  0  0  0
   19.8535   19.4355   25.2183 C   0  0  1  0  0  0  0  0  0  0  0  0
   20.7326   20.0873   25.2161 H   0  0  0  0  0  0  0  0  0  0  0  0
   18.5968   20.3130   25.3618 C   0  0  0  0  0  0  0  0  0  0  0  0
   17.6825   19.7092   25.3054 H   0  0  0  0  0  0  0  0  0  0  0  0
   18.5528   21.0781   24.5782 H   0  0  0  0  0  0  0  0  0  0  0  0
   18.5995   20.8367   26.3256 H   0  0  0  0  0  0  0  0  0  0  0  0
   19.9974   18.5340   26.4131 N   0  3  0  0  0  0  0  0  0  0  0  0
   19.2077   17.8877   26.4919 H   0  0  0  0  0  0  0  0  0  0  0  0
   20.8513   17.9713   26.3608 H   0  0  0  0  0  0  0  0  0  0  0  0
   20.0403   19.0710   27.2839 H   0  0  0  0  0  0  0  0  0  0  0  0
  1  2  1  0  0  0  0
  1  3  1  0  0  0  0
  1  4  1  0  0  0  0
  1  5  1  0  0  0  0
  5  6  1  0  0  0  0
  5  7  1  0  0  0  0
  5  8  1  0  0  0  0
  8  9  1  0  0  0  0
  8 10  1  0  0  0  0
  8 11  1  0  0  0  0
 11 12  1  0  0  0  0
 11 13  1  0  0  0  0
 11 14  1  0  0  0  0
 14 15  1  0  0  0  0
 14 16  1  0  0  0  0
 14 17  1  0  0  0  0
 17 18  1  0  0  0  0
 17 19  1  0  0  0  0
 19 20  1  0  0  0  0
 19 21  1  0  0  0  0
 19 22  1  0  0  0  0
 17 23  1  0  0  0  0
 23 24  1  0  0  0  0
 23 25  1  0  0  0  0
 23 26  1  0  0  0  0
M  END
> <VM2 Rank>
2

> <Conf_Id>
54

> <Probability>
7.67

> <Sum Probability>
24.64

> <Delta G>
0.474

> <G>
24.184

> <E>
-8.383

> <-TS>
32.567

> <U+W>
-29.845

> <U>
23.817

> <W>
-53.663

> <W(PB)>
-56.021

> <W(SA)>
2.358

> <Valence>
3.277

> <Coulomb>
19.492

> <VdW>
1.049

> <VdW6>
-6.949

> <VdW12>
7.998

> <Bond>
0.183

> <Angle>
1.152

> <Pdih>
1.942

> <Idih>
0.000

> <Tether>
0.000

$$$$
VeraChem MOL file


 26 25  0  0  0  0  0  0  0  0999 V2000     
   20.3611   18.7665   18.8988 C   0  0  0  0  0  0  0  0  0  0  0  0
   21.3565   19.2250   18.8337 H   0  0  0  0  0  0  0  0  0  0  0  0
   20.3289   17.9289   18.1899 H   0  0  0  0  0  0  0  0  0  0  0  0
   19.6205   19.5098   18.5761 H   0  0  0  0  0  0  0  0  0  0  0  0
   20.0681   18.2779   20.3333 C   0  0  0  0  0  0  0  0  0  0  0  0
   20.8041   17.5118   20.6147 H   0  0  0  0  0  0  0  0  0  0  0  0
   19.0815   17.7944   20.3591 H   0  0  0  0  0  0  0  0  0  0  0  0
   20.1074   19.4385   21.3521 C   0  0  0  0  0  0  0  0  0  0  0  0
   21.0946   19.9199   21.3202 H   0  0  0  0  0  0  0  0  0  0  0  0
   19.3718   20.2026   21.0648 H   0  0  0  0  0  0  0  0  0  0  0  0
   19.8143   18.9534   22.7899 C   0  0  0  0  0  0  0  0  0  0  0  0
   20.5515   18.1893   23.0694 H   0  0  0  0  0  0  0  0  0  0  0  0
   18.8286   18.4702   22.8098 H   0  0  0  0  0  0  0  0  0  0  0  0
   19.8523   20.1238   23.8070 C   0  0  0  0  0  0  0  0  0  0  0  0
   20.8255   20.6277   23.7405 H   0  0  0  0  0  0  0  0  0  0  0  0
   19.1035   20.8754   23.5235 H   0  0  0  0  0  0  0  0  0  0  0  0
   19.6133   19.7157   25.2800 C   0  0  1  0  0  0  0  0  0  0  0  0
   19.6966   20.6232   25.8860 H   0  0  0  0  0  0  0  0  0  0  0  0
   18.2040   19.1383   25.4994 C   0  0  0  0  0  0  0  0  0  0  0  0
   18.0785   18.1718   24.9971 H   0  0  0  0  0  0  0  0  0  0  0  0
   17.4376   19.8255   25.1201 H   0  0  0  0  0  0  0  0  0  0  0  0
   18.0141   18.9866   26.5690 H   0  0  0  0  0  0  0  0  0  0  0  0
   20.6676   18.7739   25.7936 N   0  3  0  0  0  0  0  0  0  0  0  0
   20.6509   17.8853   25.2872 H   0  0  0  0  0  0  0  0  0  0  0  0
   21.6065   19.1695   25.6919 H   0  0  0  0  0  0  0  0  0  0  0  0
   20.5303   18.5640   26.7863 H   0  0  0  0  0  0  0  0  0  0  0  0
  1  2  1  0  0  0  0
  1  3  1  0  0  0  0
  1  4  1  0  0  0  0
  1  5  1  0  0  0  0
  5  6  1  0  0  0  0
  5  7  1  0  0  0  0
  5  8  1  0  0  0  0
  8  9  1  0  0  0  0
  8 10  1  0  0  0  0
  8 11  1  0  0  0  0
 11 12  1  0  0  0  0
 11 13  1  0  0  0  0
 11 14  1  0  0  0  0
 14 15  1  0  0  0  0
 14 16  1  0  0  0  0
 14 17  1  0  0  0  0
 17 18  1  0  0  0  0
 17 19  1  0  0  0  0
 19 20  1  0  0  0  0
 19 21  1  0  0  0  0
 19 22  1  0  0  0  0
 17 23  1  0  0  0  0
 23 24  1  0  0  0  0
 23 25  1  0  0  0  0
 23 26  1  0  0  0  0
M  END
> <VM2 Rank>
3

> <Conf_Id>
130

> <Probability>
7.18

> <Sum Probability>
31.82

> <Delta G>
0.513

> <G>
24.223

> <E>
-8.475

> <-TS>
32.698

> <U+W>
-29.937

> <U>
24.060

> <W>
-53.997

> <W(PB)>
-56.328

> <W(SA)>
2.332

> <Valence>
3.249

> <Coulomb>
19.781

> <VdW>
1.030

> <VdW6>
-7.421

> <VdW12>
8.450

> <Bond>
0.207

> <Angle>
1.205

> <Pdih>
1.837

> <Idih>
0.000

> <Tether>
0.000

$$$$
VeraChem MOL file


 26 25  0  0  0  0  0  0  0  0999 V2000     
   21.0486   19.5370   19.5912 C   0  0  0  0  0  0  0  0  0  0  0  0
   20.3772   20.3642   19.3263 H   0  0  0  0  0  0  0  0  0  0  0  0
   21.7415   19.8901   20.3648 H   0  0  0  0  0  0  0  0  0  0  0  0
   21.6443   19.2907   18.7027 H   0  0  0  0  0  0  0  0  0  0  0  0
   20.2490   18.3022   20.0653 C   0  0  0  0  0  0  0  0  0  0  0  0
   20.9433   17.5003   20.3525 H   0  0  0  0  0  0  0  0  0  0  0  0
   19.6636   17.9137   19.2202 H   0  0  0  0  0  0  0  0  0  0  0  0
   19.2859   18.6061   21.2382 C   0  0  0  0  0  0  0  0  0  0  0  0
   18.5788   19.3915   20.9375 H   0  0  0  0  0  0  0  0  0  0  0  0
   18.6844   17.7082   21.4369 H   0  0  0  0  0  0  0  0  0  0  0  0
   20.0116   19.0260   22.5390 C   0  0  0  0  0  0  0  0  0  0  0  0
   20.5568   19.9650   22.3753 H   0  0  0  0  0  0  0  0  0  0  0  0
   20.7570   18.2623   22.7973 H   0  0  0  0  0  0  0  0  0  0  0  0
   19.0190   19.2156   23.7118 C   0  0  0  0  0  0  0  0  0  0  0  0
   18.2493   19.9390   23.4112 H   0  0  0  0  0  0  0  0  0  0  0  0
   18.4984   18.2702   23.9150 H   0  0  0  0  0  0  0  0  0  0  0  0
   19.7001   19.7209   25.0022 C   0  0  1  0  0  0  0  0  0  0  0  0
   20.2300   20.6496   24.7690 H   0  0  0  0  0  0  0  0  0  0  0  0
   18.6461   20.0244   26.0791 C   0  0  0  0  0  0  0  0  0  0  0  0
   18.0852   19.1216   26.3515 H   0  0  0  0  0  0  0  0  0  0  0  0
   17.9309   20.7767   25.7237 H   0  0  0  0  0  0  0  0  0  0  0  0
   19.1203   20.4189   26.9863 H   0  0  0  0  0  0  0  0  0  0  0  0
   20.7278   18.7558   25.5272 N   0  3  0  0  0  0  0  0  0  0  0  0
   21.1825   19.1157   26.3711 H   0  0  0  0  0  0  0  0  0  0  0  0
   20.3058   17.8549   25.7672 H   0  0  0  0  0  0  0  0  0  0  0  0
   21.4618   18.5785   24.8364 H   0  0  0  0  0  0  0  0  0  0  0  0
  1  2  1  0  0  0  0
  1  3  1  0  0  0  0
  1  4  1  0  0  0  0
  1  5  1  0  0  0  0
  5  6  1  0  0  0  0
  5  7  1  0  0  0  0
  5  8  1  0  0  0  0
  8  9  1  0  0  0  0
  8 10  1  0  0  0  0
  8 11  1  0  0  0  0
 11 12  1  0  0  0  0
 11 13  1  0  0  0  0
 11 14  1  0  0  0  0
 14 15  1  0  0  0  0
 14 16  1  0  0  0  0
 14 17  1  0  0  0  0
 17 18  1  0  0  0  0
 17 19  1  0  0  0  0
 19 20  1  0  0  0  0
 19 21  1  0  0  0  0
 19 22  1  0  0  0  0
 17 23  1  0  0  0  0
 23 24  1  0  0  0  0
 23 25  1  0  0  0  0
 23 26  1  0  0  0  0
M  END
> <VM2 Rank>
4

> <Conf_Id>
772

> <Probability>
6.42

> <Sum Probability>
38.24

> <Delta G>
0.580

> <G>
24.290

> <E>
-8.375

> <-TS>
32.665

> <U+W>
-29.837

> <U>
24.148

> <W>
-53.985

> <W(PB)>
-56.298

> <W(SA)>
2.313

> <Valence>
3.242

> <Coulomb>
19.863

> <VdW>
1.043

> <VdW6>
-7.422

> <VdW12>
8.465

> <Bond>
0.206

> <Angle>
1.112

> <Pdih>
1.924

> <Idih>
0.000

> <Tether>
0.000

$$$$
VeraChem MOL file


 26 25  0  0  0  0  0  0  0  0999 V2000     
   21.0698   18.0177   19.8285 C   0  0  0  0  0  0  0  0  0  0  0  0
   20.4117   17.1391   19.8177 H   0  0  0  0  0  0  0  0  0  0  0  0
   21.6580   18.0077   18.9018 H   0  0  0  0  0  0  0  0  0  0  0  0
   21.7716   17.9121   20.6650 H   0  0  0  0  0  0  0  0  0  0  0  0
   20.2510   19.3243   19.9349 C   0  0  0  0  0  0  0  0  0  0  0  0
   19.6582   19.4458   19.0175 H   0  0  0  0  0  0  0  0  0  0  0  0
   20.9326   20.1853   19.9765 H   0  0  0  0  0  0  0  0  0  0  0  0
   19.2943   19.3545   21.1513 C   0  0  0  0  0  0  0  0  0  0  0  0
   18.6763   20.2606   21.0853 H   0  0  0  0  0  0  0  0  0  0  0  0
   18.6017   18.5034   21.0943 H   0  0  0  0  0  0  0  0  0  0  0  0
   20.0282   19.3401   22.5138 C   0  0  0  0  0  0  0  0  0  0  0  0
   20.7543   20.1641   22.5471 H   0  0  0  0  0  0  0  0  0  0  0  0
   20.5965   18.4070   22.6136 H   0  0  0  0  0  0  0  0  0  0  0  0
   19.0396   19.4756   23.6975 C   0  0  0  0  0  0  0  0  0  0  0  0
   18.4434   20.3875   23.5598 H   0  0  0  0  0  0  0  0  0  0  0  0
   18.3330   18.6349   23.6892 H   0  0  0  0  0  0  0  0  0  0  0  0
   19.7463   19.5467   25.0687 C   0  0  1  0  0  0  0  0  0  0  0  0
   20.4617   20.3746   25.0430 H   0  0  0  0  0  0  0  0  0  0  0  0
   18.7246   19.8266   26.1825 C   0  0  0  0  0  0  0  0  0  0  0  0
   17.9822   19.0217   26.2517 H   0  0  0  0  0  0  0  0  0  0  0  0
   18.1920   20.7675   25.9957 H   0  0  0  0  0  0  0  0  0  0  0  0
   19.2246   19.9151   27.1549 H   0  0  0  0  0  0  0  0  0  0  0  0
   20.5343   18.3027   25.3768 N   0  3  0  0  0  0  0  0  0  0  0  0
   21.0103   18.3757   26.2804 H   0  0  0  0  0  0  0  0  0  0  0  0
   19.9298   17.4778   25.4149 H   0  0  0  0  0  0  0  0  0  0  0  0
   21.2507   18.1281   24.6671 H   0  0  0  0  0  0  0  0  0  0  0  0
  1  2  1  0  0  0  0
  1  3  1  0  0  0  0
  1  4  1  0  0  0  0
  1  5  1  0  0  0  0
  5  6  1  0  0  0  0
  5  7  1  0  0  0  0
  5  8  1  0  0  0  0
  8  9  1  0  0  0  0
  8 10  1  0  0  0  0
  8 11  1  0  0  0  0
 11 12  1  0  0  0  0
 11 13  1  0  0  0  0
 11 14  1  0  0  0  0
 14 15  1  0  0  0  0
 14 16  1  0  0  0  0
 14 17  1  0  0  0  0
 17 18  1  0  0  0  0
 17 19  1  0  0  0  0
 19 20  1  0  0  0  0
 19 21  1  0  0  0  0
 19 22  1  0  0  0  0
 17 23  1  0  0  0  0
 23 24  1  0  0  0  0
 23 25  1  0  0  0  0
 23 26  1  0  0  0  0
M  END
> <VM2 Rank>
5

> <Conf_Id>
1321

> <Probability>
6.02

> <Sum Probability>
44.26

> <Delta G>
0.618

> <G>
24.327

> <E>
-8.331

> <-TS>
32.658

> <U+W>
-29.792

> <U>
24.259

> <W>
-54.052

> <W(PB)>
-56.355

> <W(SA)>
2.304

> <Valence>
3.240

> <Coulomb>
19.971

> <VdW>
1.049

> <VdW6>
-7.432

> <VdW12>
8.481

> <Bond>
0.208

> <Angle>
1.110

> <Pdih>
1.922

> <Idih>
0.000

> <Tether>
0.000

$$$$
VeraChem MOL file


 26 25  0  0  0  0  0  0  0  0999 V2000     
   19.9267   18.4376   19.0849 C   0  0  0  0  0  0  0  0  0  0  0  0
   19.5852   17.4794   18.6721 H   0  0  0  0  0  0  0  0  0  0  0  0
   19.2237   19.2150   18.7584 H   0  0  0  0  0  0  0  0  0  0  0  0
   20.9095   18.6605   18.6494 H   0  0  0  0  0  0  0  0  0  0  0  0
   20.0037   18.3710   20.6250 C   0  0  0  0  0  0  0  0  0  0  0  0
   20.6908   17.5659   20.9207 H   0  0  0  0  0  0  0  0  0  0  0  0
   19.0139   18.1065   21.0198 H   0  0  0  0  0  0  0  0  0  0  0  0
   20.4794   19.7128   21.2304 C   0  0  0  0  0  0  0  0  0  0  0  0
   21.4336   19.9963   20.7649 H   0  0  0  0  0  0  0  0  0  0  0  0
   19.7649   20.5078   20.9760 H   0  0  0  0  0  0  0  0  0  0  0  0
   20.6775   19.6633   22.7653 C   0  0  0  0  0  0  0  0  0  0  0  0
   21.1157   20.6173   23.0902 H   0  0  0  0  0  0  0  0  0  0  0  0
   21.4128   18.8849   23.0087 H   0  0  0  0  0  0  0  0  0  0  0  0
   19.3623   19.4202   23.5489 C   0  0  0  0  0  0  0  0  0  0  0  0
   18.6079   20.1427   23.2099 H   0  0  0  0  0  0  0  0  0  0  0  0
   18.9663   18.4218   23.3241 H   0  0  0  0  0  0  0  0  0  0  0  0
   19.5397   19.5652   25.0758 C   0  0  1  0  0  0  0  0  0  0  0  0
   19.9496   20.5591   25.2804 H   0  0  0  0  0  0  0  0  0  0  0  0
   18.1814   19.4482   25.7856 C   0  0  0  0  0  0  0  0  0  0  0  0
   17.7268   18.4644   25.6139 H   0  0  0  0  0  0  0  0  0  0  0  0
   17.4847   20.2144   25.4231 H   0  0  0  0  0  0  0  0  0  0  0  0
   18.2954   19.5878   26.8677 H   0  0  0  0  0  0  0  0  0  0  0  0
   20.5173   18.5696   25.6383 N   0  3  0  0  0  0  0  0  0  0  0  0
   20.2019   17.6084   25.4838 H   0  0  0  0  0  0  0  0  0  0  0  0
   21.4394   18.6653   25.2049 H   0  0  0  0  0  0  0  0  0  0  0  0
   20.6391   18.6938   26.6473 H   0  0  0  0  0  0  0  0  0  0  0  0
  1  2  1  0  0  0  0
  1  3  1  0  0  0  0
  1  4  1  0  0  0  0
  1  5  1  0  0  0  0
  5  6  1  0  0  0  0
  5  7  1  0  0  0  0
  5  8  1  0  0  0  0
  8  9  1  0  0  0  0
  8 10  1  0  0  0  0
  8 11  1  0  0  0  0
 11 12  1  0  0  0  0
 11 13  1  0  0  0  0
 11 14  1  0  0  0  0
 14 15  1  0  0  0  0
 14 16  1  0  0  0  0
 14 17  1  0  0  0  0
 17 18  1  0  0  0  0
 17 19  1  0  0  0  0
 19 20  1  0  0  0  0
 19 21  1  0  0  0  0
 19 22  1  0  0  0  0
 17 23  1  0  0  0  0
 23 24  1  0  0  0  0
 23 25  1  0  0  0  0
 23 26  1  0  0  0  0
M  END
> <VM2 Rank>
6

> <Conf_Id>
470

> <Probability>
5.28

> <Sum Probability>
49.54

> <Delta G>
0.696

> <G>
24.406

> <E>
-8.262

> <-TS>
32.668

> <U+W>
-29.724

> <U>
24.276

> <W>
-54.000

> <W(PB)>
-56.312

> <W(SA)>
2.312

> <Valence>
3.269

> <Coulomb>
20.007

> <VdW>
1.000

> <VdW6>
-7.483

> <VdW12>
8.483

> <Bond>
0.211

> <Angle>
1.103

> <Pdih>
1.955

> <Idih>
0.000

> <Tether>
0.000

$$$$
VeraChem MOL file


 26 25  0  0  0  0  0  0  0  0999 V2000     
   20.8972   19.5642   19.3398 C   0  0  0  0  0  0  0  0  0  0  0  0
   21.3063   19.0768   18.4453 H   0  0  0  0  0  0  0  0  0  0  0  0
   20.0620   20.2026   19.0235 H   0  0  0  0  0  0  0  0  0  0  0  0
   21.6802   20.2088   19.7601 H   0  0  0  0  0  0  0  0  0  0  0  0
   20.4325   18.5123   20.3692 C   0  0  0  0  0  0  0  0  0  0  0  0
   21.2808   17.8685   20.6407 H   0  0  0  0  0  0  0  0  0  0  0  0
   19.6756   17.8618   19.9088 H   0  0  0  0  0  0  0  0  0  0  0  0
   19.8510   19.1725   21.6388 C   0  0  0  0  0  0  0  0  0  0  0  0
   20.6120   19.8274   22.0832 H   0  0  0  0  0  0  0  0  0  0  0  0
   19.0023   19.8130   21.3614 H   0  0  0  0  0  0  0  0  0  0  0  0
   19.3867   18.1186   22.6727 C   0  0  0  0  0  0  0  0  0  0  0  0
   20.2365   17.4901   22.9709 H   0  0  0  0  0  0  0  0  0  0  0  0
   18.6630   17.4430   22.1960 H   0  0  0  0  0  0  0  0  0  0  0  0
   18.7225   18.7436   23.9263 C   0  0  0  0  0  0  0  0  0  0  0  0
   17.8185   19.2834   23.6145 H   0  0  0  0  0  0  0  0  0  0  0  0
   18.3840   17.9379   24.5912 H   0  0  0  0  0  0  0  0  0  0  0  0
   19.6370   19.7072   24.7157 C   0  0  1  0  0  0  0  0  0  0  0  0
   19.9487   20.5136   24.0454 H   0  0  0  0  0  0  0  0  0  0  0  0
   18.8679   20.3323   25.8904 C   0  0  0  0  0  0  0  0  0  0  0  0
   17.9833   20.8739   25.5327 H   0  0  0  0  0  0  0  0  0  0  0  0
   19.4996   21.0475   26.4314 H   0  0  0  0  0  0  0  0  0  0  0  0
   18.5348   19.5651   26.6005 H   0  0  0  0  0  0  0  0  0  0  0  0
   20.8933   19.0374   25.2012 N   0  3  0  0  0  0  0  0  0  0  0  0
   20.6821   18.2684   25.8424 H   0  0  0  0  0  0  0  0  0  0  0  0
   21.4331   18.6507   24.4222 H   0  0  0  0  0  0  0  0  0  0  0  0
   21.5000   19.6946   25.6996 H   0  0  0  0  0  0  0  0  0  0  0  0
  1  2  1  0  0  0  0
  1  3  1  0  0  0  0
  1  4  1  0  0  0  0
  1  5  1  0  0  0  0
  5  6  1  0  0  0  0
  5  7  1  0  0  0  0
  5  8  1  0  0  0  0
  8  9  1  0  0  0  0
  8 10  1  0  0  0  0
  8 11  1  0  0  0  0
 11 12  1  0  0  0  0
 11 13  1  0  0  0  0
 11 14  1  0  0  0  0
 14 15  1  0  0  0  0
 14 16  1  0  0  0  0
 14 17  1  0  0  0  0
 17 18  1  0  0  0  0
 17 19  1  0  0  0  0
 19 20  1  0  0  0  0
 19 21  1  0  0  0  0
 19 22  1  0  0  0  0
 17 23  1  0  0  0  0
 23 24  1  0  0  0  0
 23 25  1  0  0  0  0
 23 26  1  0  0  0  0
M  END
> <VM2 Rank>
7

> <Conf_Id>
999

> <Probability>
5.27

> <Sum Probability>
54.81

> <Delta G>
0.697

> <G>
24.407

> <E>
-8.338

> <-TS>
32.745

> <U+W>
-29.800

> <U>
24.149

> <W>
-53.948

> <W(PB)>
-56.254

> <W(SA)>
2.306

> <Valence>
3.038

> <Coulomb>
20.324

> <VdW>
0.787

> <VdW6>
-7.686

> <VdW12>
8.473

> <Bond>
0.201

> <Angle>
1.089

> <Pdih>
1.748

> <Idih>
0.000

> <Tether>
0.000

$$$$
VeraChem MOL file


 26 25  0  0  0  0  0  0  0  0999 V2000     
   19.8817   18.9336   18.9777 C   0  0  0  0  0  0  0  0  0  0  0  0
   19.4717   19.7091   18.3177 H   0  0  0  0  0  0  0  0  0  0  0  0
   20.8781   18.6651   18.6031 H   0  0  0  0  0  0  0  0  0  0  0  0
   19.2368   18.0486   18.8990 H   0  0  0  0  0  0  0  0  0  0  0  0
   19.9533   19.4395   20.4341 C   0  0  0  0  0  0  0  0  0  0  0  0
   18.9467   19.7364   20.7566 H   0  0  0  0  0  0  0  0  0  0  0  0
   20.5807   20.3408   20.4757 H   0  0  0  0  0  0  0  0  0  0  0  0
   20.5245   18.3606   21.3845 C   0  0  0  0  0  0  0  0  0  0  0  0
   19.8658   17.4811   21.3856 H   0  0  0  0  0  0  0  0  0  0  0  0
   21.4927   18.0190   20.9930 H   0  0  0  0  0  0  0  0  0  0  0  0
   20.7319   18.8563   22.8371 C   0  0  0  0  0  0  0  0  0  0  0  0
   21.3922   19.7346   22.8344 H   0  0  0  0  0  0  0  0  0  0  0  0
   21.2643   18.0713   23.3900 H   0  0  0  0  0  0  0  0  0  0  0  0
   19.4088   19.1992   23.5693 C   0  0  0  0  0  0  0  0  0  0  0  0
   18.8913   20.0002   23.0273 H   0  0  0  0  0  0  0  0  0  0  0  0
   18.7406   18.3279   23.5570 H   0  0  0  0  0  0  0  0  0  0  0  0
   19.6294   19.6631   25.0258 C   0  0  1  0  0  0  0  0  0  0  0  0
   20.3254   20.5076   25.0149 H   0  0  0  0  0  0  0  0  0  0  0  0
   18.3037   20.1388   25.6415 C   0  0  0  0  0  0  0  0  0  0  0  0
   17.8754   20.9627   25.0571 H   0  0  0  0  0  0  0  0  0  0  0  0
   18.4592   20.5030   26.6645 H   0  0  0  0  0  0  0  0  0  0  0  0
   17.5677   19.3258   25.6762 H   0  0  0  0  0  0  0  0  0  0  0  0
   20.2547   18.5970   25.8840 N   0  3  0  0  0  0  0  0  0  0  0  0
   21.1621   18.3024   25.5137 H   0  0  0  0  0  0  0  0  0  0  0  0
   20.4082   18.9290   26.8403 H   0  0  0  0  0  0  0  0  0  0  0  0
   19.6598   17.7662   25.9400 H   0  0  0  0  0  0  0  0  0  0  0  0
  1  2  1  0  0  0  0
  1  3  1  0  0  0  0
  1  4  1  0  0  0  0
  1  5  1  0  0  0  0
  5  6  1  0  0  0  0
  5  7  1  0  0  0  0
  5  8  1  0  0  0  0
  8  9  1  0  0  0  0
  8 10  1  0  0  0  0
  8 11  1  0  0  0  0
 11 12  1  0  0  0  0
 11 13  1  0  0  0  0
 11 14  1  0  0  0  0
 14 15  1  0  0  0  0
 14 16  1  0  0  0  0
 14 17  1  0  0  0  0
 17 18  1  0  0  0  0
 17 19  1  0  0  0  0
 19 20  1  0  0  0  0
 19 21  1  0  0  0  0
 19 22  1  0  0  0  0
 17 23  1  0  0  0  0
 23 24  1  0  0  0  0
 23 25  1  0  0  0  0
 23 26  1  0  0  0  0
M  END
> <VM2 Rank>
8

> <Conf_Id>
1138

> <Probability>
4.36

> <Sum Probability>
59.17

> <Delta G>
0.810

> <G>
24.520

> <E>
-8.102

> <-TS>
32.622

> <U+W>
-29.564

> <U>
24.282

> <W>
-53.846

> <W(PB)>
-56.207

> <W(SA)>
2.361

> <Valence>
3.311

> <Coulomb>
19.887

> <VdW>
1.083

> <VdW6>
-7.444

> <VdW12>
8.527

> <Bond>
0.219

> <Angle>
1.167

> <Pdih>
1.926

> <Idih>
0.000

> <Tether>
0.000

$$$$
