VeraChem MOL file


 26 25  0  0  0  0  0  0  0  0999 V2000     
   19.9052   19.3107   18.8162 C   0  0  0  0  0  0  0  0  0  0  0  0
   20.2945   20.3369   18.7943 H   0  0  0  0  0  0  0  0  0  0  0  0
   20.2787   18.7895   17.9252 H   0  0  0  0  0  0  0  0  0  0  0  0
   18.8108   19.3585   18.7447 H   0  0  0  0  0  0  0  0  0  0  0  0
   20.3457   18.5776   20.1010 C   0  0  0  0  0  0  0  0  0  0  0  0
   21.4427   18.5157   20.1275 H   0  0  0  0  0  0  0  0  0  0  0  0
   19.9704   17.5449   20.0784 H   0  0  0  0  0  0  0  0  0  0  0  0
   19.8327   19.2912   21.3714 C   0  0  0  0  0  0  0  0  0  0  0  0
   20.2083   20.3237   21.3883 H   0  0  0  0  0  0  0  0  0  0  0  0
   18.7360   19.3526   21.3392 H   0  0  0  0  0  0  0  0  0  0  0  0
   20.2719   18.5602   22.6602 C   0  0  0  0  0  0  0  0  0  0  0  0
   21.3686   18.4989   22.6913 H   0  0  0  0  0  0  0  0  0  0  0  0
   19.8962   17.5277   22.6422 H   0  0  0  0  0  0  0  0  0  0  0  0
   19.7583   19.2745   23.9308 C   0  0  0  0  0  0  0  0  0  0  0  0
   20.1340   20.3071   23.9492 H   0  0  0  0  0  0  0  0  0  0  0  0
   18.6614   19.3359   23.9000 H   0  0  0  0  0  0  0  0  0  0  0  0
   20.1968   18.5443   25.2193 C   0  0  0  0  0  0  0  0  0  0  0  0
   21.2928   18.4855   25.2564 H   0  0  0  0  0  0  0  0  0  0  0  0
   19.8188   17.5133   25.2071 H   0  0  0  0  0  0  0  0  0  0  0  0
   19.6802   19.2637   26.4777 C   0  0  0  0  0  0  0  0  0  0  0  0
   20.0676   20.2859   26.5026 H   0  0  0  0  0  0  0  0  0  0  0  0
   18.5881   19.3102   26.4531 H   0  0  0  0  0  0  0  0  0  0  0  0
   20.0901   18.5768   27.7644 N   0  3  0  0  0  0  0  0  0  0  0  0
   19.7359   19.0720   28.5901 H   0  0  0  0  0  0  0  0  0  0  0  0
   21.1095   18.5250   27.8622 H   0  0  0  0  0  0  0  0  0  0  0  0
   19.7328   17.6172   27.8161 H   0  0  0  0  0  0  0  0  0  0  0  0
  1  2  1  0  0  0  0
  1  3  1  0  0  0  0
  1  4  1  0  0  0  0
  1  5  1  0  0  0  0
  5  6  1  0  0  0  0
  5  7  1  0  0  0  0
  5  8  1  0  0  0  0
  8  9  1  0  0  0  0
  8 10  1  0  0  0  0
  8 11  1  0  0  0  0
 11 12  1  0  0  0  0
 11 13  1  0  0  0  0
 11 14  1  0  0  0  0
 14 15  1  0  0  0  0
 14 16  1  0  0  0  0
 14 17  1  0  0  0  0
 17 18  1  0  0  0  0
 17 19  1  0  0  0  0
 17 20  1  0  0  0  0
 20 21  1  0  0  0  0
 20 22  1  0  0  0  0
 20 23  1  0  0  0  0
 23 24  1  0  0  0  0
 23 25  1  0  0  0  0
 23 26  1  0  0  0  0
M  END
> <VM2 Rank>
1

> <Conf_Id>
316

> <Probability>
7.44

> <Sum Probability>
7.44

> <Delta G>
0.000

> <G>
48.261

> <E>
15.909

> <-TS>
32.352

> <U+W>
-5.553

> <U>
47.192

> <W>
-52.744

> <W(PB)>
-55.135

> <W(SA)>
2.391

> <Valence>
2.156

> <Coulomb>
44.449

> <VdW>
0.587

> <VdW6>
-5.761

> <VdW12>
6.348

> <Bond>
0.129

> <Angle>
0.393

> <Pdih>
1.634

> <Idih>
0.000

> <Tether>
0.000

$$$$
VeraChem MOL file


 26 25  0  0  0  0  0  0  0  0999 V2000     
   20.1408   19.6499   19.0008 C   0  0  0  0  0  0  0  0  0  0  0  0
   19.1347   20.0853   18.9420 H   0  0  0  0  0  0  0  0  0  0  0  0
   20.8621   20.4696   19.1149 H   0  0  0  0  0  0  0  0  0  0  0  0
   20.3477   19.1494   18.0460 H   0  0  0  0  0  0  0  0  0  0  0  0
   20.2456   18.6516   20.1733 C   0  0  0  0  0  0  0  0  0  0  0  0
   21.2510   18.2079   20.1855 H   0  0  0  0  0  0  0  0  0  0  0  0
   19.5370   17.8267   20.0140 H   0  0  0  0  0  0  0  0  0  0  0  0
   19.9586   19.3310   21.5306 C   0  0  0  0  0  0  0  0  0  0  0  0
   20.6678   20.1562   21.6841 H   0  0  0  0  0  0  0  0  0  0  0  0
   18.9536   19.7749   21.5127 H   0  0  0  0  0  0  0  0  0  0  0  0
   20.0625   18.3343   22.7072 C   0  0  0  0  0  0  0  0  0  0  0  0
   21.0678   17.8909   22.7245 H   0  0  0  0  0  0  0  0  0  0  0  0
   19.3536   17.5091   22.5519 H   0  0  0  0  0  0  0  0  0  0  0  0
   19.7748   19.0142   24.0649 C   0  0  0  0  0  0  0  0  0  0  0  0
   20.4826   19.8408   24.2124 H   0  0  0  0  0  0  0  0  0  0  0  0
   18.7683   19.4551   24.0484 H   0  0  0  0  0  0  0  0  0  0  0  0
   19.8801   18.0151   25.2413 C   0  0  0  0  0  0  0  0  0  0  0  0
   20.8922   17.5914   25.2861 H   0  0  0  0  0  0  0  0  0  0  0  0
   19.1959   17.1741   25.0665 H   0  0  0  0  0  0  0  0  0  0  0  0
   19.5295   18.6544   26.5987 C   0  0  0  0  0  0  0  0  0  0  0  0
   18.5244   19.0826   26.5554 H   0  0  0  0  0  0  0  0  0  0  0  0
   19.5390   17.8848   27.3753 H   0  0  0  0  0  0  0  0  0  0  0  0
   20.4891   19.7484   27.0243 N   0  3  0  0  0  0  0  0  0  0  0  0
   20.2355   20.1437   27.9363 H   0  0  0  0  0  0  0  0  0  0  0  0
   20.5021   20.5238   26.3545 H   0  0  0  0  0  0  0  0  0  0  0  0
   21.4504   19.4014   27.1054 H   0  0  0  0  0  0  0  0  0  0  0  0
  1  2  1  0  0  0  0
  1  3  1  0  0  0  0
  1  4  1  0  0  0  0
  1  5  1  0  0  0  0
  5  6  1  0  0  0  0
  5  7  1  0  0  0  0
  5  8  1  0  0  0  0
  8  9  1  0  0  0  0
  8 10  1  0  0  0  0
  8 11  1  0  0  0  0
 11 12  1  0  0  0  0
 11 13  1  0  0  0  0
 11 14  1  0  0  0  0
 14 15  1  0  0  0  0
 14 16  1  0  0  0  0
 14 17  1  0  0  0  0
 17 18  1  0  0  0  0
 17 19  1  0  0  0  0
 17 20  1  0  0  0  0
 20 21  1  0  0  0  0
 20 22  1  0  0  0  0
 20 23  1  0  0  0  0
 23 24  1  0  0  0  0
 23 25  1  0  0  0  0
 23 26  1  0  0  0  0
M  END
> <VM2 Rank>
2

> <Conf_Id>
307

> <Probability>
4.91

> <Sum Probability>
12.34

> <Delta G>
0.248

> <G>
48.509

> <E>
16.054

> <-TS>
32.455

> <U+W>
-5.408

> <U>
47.845

> <W>
-53.253

> <W(PB)>
-55.604

> <W(SA)>
2.351

> <Valence>
2.258

> <Coulomb>
44.894

> <VdW>
0.694

> <VdW6>
-6.285

> <VdW12>
6.979

> <Bond>
0.149

> <Angle>
0.434

> <Pdih>
1.675

> <Idih>
0.000

> <Tether>
0.000

$$$$
VeraChem MOL file


 26 25  0  0  0  0  0  0  0  0999 V2000     
   19.4925   19.2223   18.9792 C   0  0  0  0  0  0  0  0  0  0  0  0
   19.4900   20.3199   18.9540 H   0  0  0  0  0  0  0  0  0  0  0  0
   19.9156   18.8645   18.0315 H   0  0  0  0  0  0  0  0  0  0  0  0
   18.4512   18.8791   19.0343 H   0  0  0  0  0  0  0  0  0  0  0  0
   20.3140   18.6968   20.1755 C   0  0  0  0  0  0  0  0  0  0  0  0
   21.3572   19.0277   20.0749 H   0  0  0  0  0  0  0  0  0  0  0  0
   20.3265   17.5980   20.1546 H   0  0  0  0  0  0  0  0  0  0  0  0
   19.7392   19.1863   21.5233 C   0  0  0  0  0  0  0  0  0  0  0  0
   19.7267   20.2849   21.5386 H   0  0  0  0  0  0  0  0  0  0  0  0
   18.6958   18.8552   21.6181 H   0  0  0  0  0  0  0  0  0  0  0  0
   20.5592   18.6620   22.7237 C   0  0  0  0  0  0  0  0  0  0  0  0
   21.6027   18.9927   22.6271 H   0  0  0  0  0  0  0  0  0  0  0  0
   20.5711   17.5633   22.7079 H   0  0  0  0  0  0  0  0  0  0  0  0
   19.9844   19.1524   24.0719 C   0  0  0  0  0  0  0  0  0  0  0  0
   19.9754   20.2512   24.0888 H   0  0  0  0  0  0  0  0  0  0  0  0
   18.9404   18.8235   24.1609 H   0  0  0  0  0  0  0  0  0  0  0  0
   20.8061   18.6258   25.2722 C   0  0  0  0  0  0  0  0  0  0  0  0
   21.8554   18.9280   25.1553 H   0  0  0  0  0  0  0  0  0  0  0  0
   20.7957   17.5277   25.2829 H   0  0  0  0  0  0  0  0  0  0  0  0
   20.2935   19.1582   26.6243 C   0  0  0  0  0  0  0  0  0  0  0  0
   20.9606   18.8222   27.4228 H   0  0  0  0  0  0  0  0  0  0  0  0
   20.2970   20.2515   26.6146 H   0  0  0  0  0  0  0  0  0  0  0  0
   18.8920   18.6952   26.9709 N   0  3  0  0  0  0  0  0  0  0  0  0
   18.2058   19.0096   26.2780 H   0  0  0  0  0  0  0  0  0  0  0  0
   18.5862   19.0559   27.8813 H   0  0  0  0  0  0  0  0  0  0  0  0
   18.8294   17.6729   27.0177 H   0  0  0  0  0  0  0  0  0  0  0  0
  1  2  1  0  0  0  0
  1  3  1  0  0  0  0
  1  4  1  0  0  0  0
  1  5  1  0  0  0  0
  5  6  1  0  0  0  0
  5  7  1  0  0  0  0
  5  8  1  0  0  0  0
  8  9  1  0  0  0  0
  8 10  1  0  0  0  0
  8 11  1  0  0  0  0
 11 12  1  0  0  0  0
 11 13  1  0  0  0  0
 11 14  1  0  0  0  0
 14 15  1  0  0  0  0
 14 16  1  0  0  0  0
 14 17  1  0  0  0  0
 17 18  1  0  0  0  0
 17 19  1  0  0  0  0
 17 20  1  0  0  0  0
 20 21  1  0  0  0  0
 20 22  1  0  0  0  0
 20 23  1  0  0  0  0
 23 24  1  0  0  0  0
 23 25  1  0  0  0  0
 23 26  1  0  0  0  0
M  END
> <VM2 Rank>
3

> <Conf_Id>
925

> <Probability>
4.78

> <Sum Probability>
17.13

> <Delta G>
0.263

> <G>
48.525

> <E>
16.069

> <-TS>
32.456

> <U+W>
-5.393

> <U>
47.845

> <W>
-53.238

> <W(PB)>
-55.587

> <W(SA)>
2.349

> <Valence>
2.258

> <Coulomb>
44.893

> <VdW>
0.694

> <VdW6>
-6.285

> <VdW12>
6.978

> <Bond>
0.149

> <Angle>
0.434

> <Pdih>
1.675

> <Idih>
0.000

> <Tether>
0.000

$$$$
VeraChem MOL file


 26 25  0  0  0  0  0  0  0  0999 V2000     
   19.7687   18.8534   18.9897 C   0  0  0  0  0  0  0  0  0  0  0  0
   20.5474   19.5750   18.7104 H   0  0  0  0  0  0  0  0  0  0  0  0
   19.7778   18.0440   18.2482 H   0  0  0  0  0  0  0  0  0  0  0  0
   18.7959   19.3581   18.9256 H   0  0  0  0  0  0  0  0  0  0  0  0
   20.0121   18.2958   20.4081 C   0  0  0  0  0  0  0  0  0  0  0  0
   20.9759   17.7681   20.4319 H   0  0  0  0  0  0  0  0  0  0  0  0
   19.2379   17.5527   20.6454 H   0  0  0  0  0  0  0  0  0  0  0  0
   20.0042   19.4156   21.4722 C   0  0  0  0  0  0  0  0  0  0  0  0
   20.7776   20.1572   21.2287 H   0  0  0  0  0  0  0  0  0  0  0  0
   19.0397   19.9414   21.4434 H   0  0  0  0  0  0  0  0  0  0  0  0
   20.2481   18.8613   22.8940 C   0  0  0  0  0  0  0  0  0  0  0  0
   21.2141   18.3383   22.9221 H   0  0  0  0  0  0  0  0  0  0  0  0
   19.4756   18.1166   23.1278 H   0  0  0  0  0  0  0  0  0  0  0  0
   20.2382   19.9853   23.9578 C   0  0  0  0  0  0  0  0  0  0  0  0
   20.9813   20.7473   23.6851 H   0  0  0  0  0  0  0  0  0  0  0  0
   19.2616   20.4892   23.9558 H   0  0  0  0  0  0  0  0  0  0  0  0
   20.5521   19.4746   25.3837 C   0  0  0  0  0  0  0  0  0  0  0  0
   20.6145   20.3342   26.0643 H   0  0  0  0  0  0  0  0  0  0  0  0
   21.5389   18.9929   25.3943 H   0  0  0  0  0  0  0  0  0  0  0  0
   19.4901   18.4916   25.9111 C   0  0  0  0  0  0  0  0  0  0  0  0
   18.5077   18.9715   25.9018 H   0  0  0  0  0  0  0  0  0  0  0  0
   19.4490   17.6098   25.2666 H   0  0  0  0  0  0  0  0  0  0  0  0
   19.7676   18.0214   27.3244 N   0  3  0  0  0  0  0  0  0  0  0  0
   19.0495   17.3684   27.6566 H   0  0  0  0  0  0  0  0  0  0  0  0
   19.7915   18.8017   27.9890 H   0  0  0  0  0  0  0  0  0  0  0  0
   20.6681   17.5364   27.3959 H   0  0  0  0  0  0  0  0  0  0  0  0
  1  2  1  0  0  0  0
  1  3  1  0  0  0  0
  1  4  1  0  0  0  0
  1  5  1  0  0  0  0
  5  6  1  0  0  0  0
  5  7  1  0  0  0  0
  5  8  1  0  0  0  0
  8  9  1  0  0  0  0
  8 10  1  0  0  0  0
  8 11  1  0  0  0  0
 11 12  1  0  0  0  0
 11 13  1  0  0  0  0
 11 14  1  0  0  0  0
 14 15  1  0  0  0  0
 14 16  1  0  0  0  0
 14 17  1  0  0  0  0
 17 18  1  0  0  0  0
 17 19  1  0  0  0  0
 17 20  1  0  0  0  0
 20 21  1  0  0  0  0
 20 22  1  0  0  0  0
 20 23  1  0  0  0  0
 23 24  1  0  0  0  0
 23 25  1  0  0  0  0
 23 26  1  0  0  0  0
M  END
> <VM2 Rank>
4

> <Conf_Id>
891

> <Probability>
3.38

> <Sum Probability>
20.51

> <Delta G>
0.470

> <G>
48.731

> <E>
16.280

> <-TS>
32.451

> <U+W>
-5.182

> <U>
48.002

> <W>
-53.183

> <W(PB)>
-55.533

> <W(SA)>
2.350

> <Valence>
2.459

> <Coulomb>
44.900

> <VdW>
0.643

> <VdW6>
-6.362

> <VdW12>
7.005

> <Bond>
0.151

> <Angle>
0.519

> <Pdih>
1.789

> <Idih>
0.000

> <Tether>
0.000

$$$$
VeraChem MOL file


 26 25  0  0  0  0  0  0  0  0999 V2000     
   20.3710   19.2510   19.0099 C   0  0  0  0  0  0  0  0  0  0  0  0
   21.1452   18.9462   18.2939 H   0  0  0  0  0  0  0  0  0  0  0  0
   19.4151   18.8295   18.6724 H   0  0  0  0  0  0  0  0  0  0  0  0
   20.2929   20.3456   18.9762 H   0  0  0  0  0  0  0  0  0  0  0  0
   20.7212   18.7634   20.4317 C   0  0  0  0  0  0  0  0  0  0  0  0
   21.6969   19.1737   20.7277 H   0  0  0  0  0  0  0  0  0  0  0  0
   20.8258   17.6693   20.4265 H   0  0  0  0  0  0  0  0  0  0  0  0
   19.6464   19.1797   21.4603 C   0  0  0  0  0  0  0  0  0  0  0  0
   19.5440   20.2737   21.4605 H   0  0  0  0  0  0  0  0  0  0  0  0
   18.6728   18.7694   21.1584 H   0  0  0  0  0  0  0  0  0  0  0  0
   19.9935   18.6930   22.8854 C   0  0  0  0  0  0  0  0  0  0  0  0
   20.9700   19.1016   23.1778 H   0  0  0  0  0  0  0  0  0  0  0  0
   20.0930   17.5987   22.8843 H   0  0  0  0  0  0  0  0  0  0  0  0
   18.9156   19.1127   23.9136 C   0  0  0  0  0  0  0  0  0  0  0  0
   18.8363   20.2084   23.9416 H   0  0  0  0  0  0  0  0  0  0  0  0
   17.9365   18.7388   23.5834 H   0  0  0  0  0  0  0  0  0  0  0  0
   19.1951   18.5794   25.3384 C   0  0  0  0  0  0  0  0  0  0  0  0
   19.2499   17.4828   25.3180 H   0  0  0  0  0  0  0  0  0  0  0  0
   18.3494   18.8399   25.9886 H   0  0  0  0  0  0  0  0  0  0  0  0
   20.4904   19.1515   25.9445 C   0  0  0  0  0  0  0  0  0  0  0  0
   21.3465   18.8614   25.3300 H   0  0  0  0  0  0  0  0  0  0  0  0
   20.4357   20.2433   25.9659 H   0  0  0  0  0  0  0  0  0  0  0  0
   20.7477   18.6682   27.3572 N   0  3  0  0  0  0  0  0  0  0  0  0
   19.9906   18.9336   27.9956 H   0  0  0  0  0  0  0  0  0  0  0  0
   21.6139   19.0603   27.7423 H   0  0  0  0  0  0  0  0  0  0  0  0
   20.8362   17.6478   27.4018 H   0  0  0  0  0  0  0  0  0  0  0  0
  1  2  1  0  0  0  0
  1  3  1  0  0  0  0
  1  4  1  0  0  0  0
  1  5  1  0  0  0  0
  5  6  1  0  0  0  0
  5  7  1  0  0  0  0
  5  8  1  0  0  0  0
  8  9  1  0  0  0  0
  8 10  1  0  0  0  0
  8 11  1  0  0  0  0
 11 12  1  0  0  0  0
 11 13  1  0  0  0  0
 11 14  1  0  0  0  0
 14 15  1  0  0  0  0
 14 16  1  0  0  0  0
 14 17  1  0  0  0  0
 17 18  1  0  0  0  0
 17 19  1  0  0  0  0
 17 20  1  0  0  0  0
 20 21  1  0  0  0  0
 20 22  1  0  0  0  0
 20 23  1  0  0  0  0
 23 24  1  0  0  0  0
 23 25  1  0  0  0  0
 23 26  1  0  0  0  0
M  END
> <VM2 Rank>
5

> <Conf_Id>
779

> <Probability>
3.36

> <Sum Probability>
23.87

> <Delta G>
0.473

> <G>
48.734

> <E>
16.284

> <-TS>
32.451

> <U+W>
-5.178

> <U>
48.002

> <W>
-53.180

> <W(PB)>
-55.521

> <W(SA)>
2.341

> <Valence>
2.459

> <Coulomb>
44.900

> <VdW>
0.643

> <VdW6>
-6.362

> <VdW12>
7.005

> <Bond>
0.151

> <Angle>
0.519

> <Pdih>
1.789

> <Idih>
0.000

> <Tether>
0.000

$$$$
VeraChem MOL file


 26 25  0  0  0  0  0  0  0  0999 V2000     
   19.4449   18.1621   19.5242 C   0  0  0  0  0  0  0  0  0  0  0  0
   18.4490   18.6236   19.5136 H   0  0  0  0  0  0  0  0  0  0  0  0
   19.6605   17.8056   18.5086 H   0  0  0  0  0  0  0  0  0  0  0  0
   19.4107   17.2842   20.1811 H   0  0  0  0  0  0  0  0  0  0  0  0
   20.5209   19.1727   19.9823 C   0  0  0  0  0  0  0  0  0  0  0  0
   20.6012   19.9695   19.2297 H   0  0  0  0  0  0  0  0  0  0  0  0
   21.5023   18.6790   20.0131 H   0  0  0  0  0  0  0  0  0  0  0  0
   20.2153   19.8164   21.3563 C   0  0  0  0  0  0  0  0  0  0  0  0
   20.9649   20.5961   21.5503 H   0  0  0  0  0  0  0  0  0  0  0  0
   19.2429   20.3263   21.3142 H   0  0  0  0  0  0  0  0  0  0  0  0
   20.2241   18.8045   22.5271 C   0  0  0  0  0  0  0  0  0  0  0  0
   21.1784   18.2599   22.5339 H   0  0  0  0  0  0  0  0  0  0  0  0
   19.4317   18.0585   22.3822 H   0  0  0  0  0  0  0  0  0  0  0  0
   20.0185   19.5030   23.8904 C   0  0  0  0  0  0  0  0  0  0  0  0
   20.8117   20.2475   24.0458 H   0  0  0  0  0  0  0  0  0  0  0  0
   19.0657   20.0507   23.8823 H   0  0  0  0  0  0  0  0  0  0  0  0
   20.0230   18.4950   25.0607 C   0  0  0  0  0  0  0  0  0  0  0  0
   20.9757   17.9489   25.0748 H   0  0  0  0  0  0  0  0  0  0  0  0
   19.2277   17.7523   24.9124 H   0  0  0  0  0  0  0  0  0  0  0  0
   19.8179   19.2010   26.4126 C   0  0  0  0  0  0  0  0  0  0  0  0
   20.6170   19.9300   26.5721 H   0  0  0  0  0  0  0  0  0  0  0  0
   18.8626   19.7328   26.4090 H   0  0  0  0  0  0  0  0  0  0  0  0
   19.8163   18.2444   27.5875 N   0  3  0  0  0  0  0  0  0  0  0  0
   19.0681   17.5474   27.5119 H   0  0  0  0  0  0  0  0  0  0  0  0
   19.6784   18.7349   28.4779 H   0  0  0  0  0  0  0  0  0  0  0  0
   20.7006   17.7310   27.6636 H   0  0  0  0  0  0  0  0  0  0  0  0
  1  2  1  0  0  0  0
  1  3  1  0  0  0  0
  1  4  1  0  0  0  0
  1  5  1  0  0  0  0
  5  6  1  0  0  0  0
  5  7  1  0  0  0  0
  5  8  1  0  0  0  0
  8  9  1  0  0  0  0
  8 10  1  0  0  0  0
  8 11  1  0  0  0  0
 11 12  1  0  0  0  0
 11 13  1  0  0  0  0
 11 14  1  0  0  0  0
 14 15  1  0  0  0  0
 14 16  1  0  0  0  0
 14 17  1  0  0  0  0
 17 18  1  0  0  0  0
 17 19  1  0  0  0  0
 17 20  1  0  0  0  0
 20 21  1  0  0  0  0
 20 22  1  0  0  0  0
 20 23  1  0  0  0  0
 23 24  1  0  0  0  0
 23 25  1  0  0  0  0
 23 26  1  0  0  0  0
M  END
> <VM2 Rank>
6

> <Conf_Id>
1030

> <Probability>
2.75

> <Sum Probability>
26.62

> <Delta G>
0.593

> <G>
48.855

> <E>
16.392

> <-TS>
32.463

> <U+W>
-5.070

> <U>
47.845

> <W>
-52.915

> <W(PB)>
-55.277

> <W(SA)>
2.362

> <Valence>
2.661

> <Coulomb>
44.462

> <VdW>
0.723

> <VdW6>
-6.379

> <VdW12>
7.102

> <Bond>
0.164

> <Angle>
0.634

> <Pdih>
1.863

> <Idih>
0.000

> <Tether>
0.000

$$$$
VeraChem MOL file


 26 25  0  0  0  0  0  0  0  0999 V2000     
   21.1081   19.2584   19.5798 C   0  0  0  0  0  0  0  0  0  0  0  0
   21.8972   18.9232   20.2642 H   0  0  0  0  0  0  0  0  0  0  0  0
   21.3980   18.9509   18.5667 H   0  0  0  0  0  0  0  0  0  0  0  0
   21.0764   20.3554   19.6014 H   0  0  0  0  0  0  0  0  0  0  0  0
   19.7358   18.6551   19.9561 C   0  0  0  0  0  0  0  0  0  0  0  0
   19.8018   17.5581   19.9563 H   0  0  0  0  0  0  0  0  0  0  0  0
   19.0075   18.9189   19.1765 H   0  0  0  0  0  0  0  0  0  0  0  0
   19.2008   19.1477   21.3224 C   0  0  0  0  0  0  0  0  0  0  0  0
   19.1166   20.2431   21.3099 H   0  0  0  0  0  0  0  0  0  0  0  0
   18.1812   18.7609   21.4574 H   0  0  0  0  0  0  0  0  0  0  0  0
   20.0723   18.7046   22.5220 C   0  0  0  0  0  0  0  0  0  0  0  0
   21.0755   19.1426   22.4371 H   0  0  0  0  0  0  0  0  0  0  0  0
   20.1973   17.6131   22.5011 H   0  0  0  0  0  0  0  0  0  0  0  0
   19.4481   19.1270   23.8713 C   0  0  0  0  0  0  0  0  0  0  0  0
   19.3197   20.2183   23.8909 H   0  0  0  0  0  0  0  0  0  0  0  0
   18.4455   18.6873   23.9668 H   0  0  0  0  0  0  0  0  0  0  0  0
   20.3177   18.6894   25.0705 C   0  0  0  0  0  0  0  0  0  0  0  0
   21.3191   19.1317   24.9824 H   0  0  0  0  0  0  0  0  0  0  0  0
   20.4446   17.5987   25.0569 H   0  0  0  0  0  0  0  0  0  0  0  0
   19.6868   19.1144   26.4082 C   0  0  0  0  0  0  0  0  0  0  0  0
   19.5736   20.2016   26.4330 H   0  0  0  0  0  0  0  0  0  0  0  0
   18.6960   18.6629   26.5078 H   0  0  0  0  0  0  0  0  0  0  0  0
   20.5113   18.7025   27.6107 N   0  3  0  0  0  0  0  0  0  0  0  0
   20.6322   17.6856   27.6611 H   0  0  0  0  0  0  0  0  0  0  0  0
   20.0734   18.9950   28.4911 H   0  0  0  0  0  0  0  0  0  0  0  0
   21.4488   19.1173   27.5916 H   0  0  0  0  0  0  0  0  0  0  0  0
  1  2  1  0  0  0  0
  1  3  1  0  0  0  0
  1  4  1  0  0  0  0
  1  5  1  0  0  0  0
  5  6  1  0  0  0  0
  5  7  1  0  0  0  0
  5  8  1  0  0  0  0
  8  9  1  0  0  0  0
  8 10  1  0  0  0  0
  8 11  1  0  0  0  0
 11 12  1  0  0  0  0
 11 13  1  0  0  0  0
 11 14  1  0  0  0  0
 14 15  1  0  0  0  0
 14 16  1  0  0  0  0
 14 17  1  0  0  0  0
 17 18  1  0  0  0  0
 17 19  1  0  0  0  0
 17 20  1  0  0  0  0
 20 21  1  0  0  0  0
 20 22  1  0  0  0  0
 20 23  1  0  0  0  0
 23 24  1  0  0  0  0
 23 25  1  0  0  0  0
 23 26  1  0  0  0  0
M  END
> <VM2 Rank>
7

> <Conf_Id>
1031

> <Probability>
2.58

> <Sum Probability>
29.20

> <Delta G>
0.632

> <G>
48.894

> <E>
16.431

> <-TS>
32.463

> <U+W>
-5.031

> <U>
47.845

> <W>
-52.876

> <W(PB)>
-55.228

> <W(SA)>
2.352

> <Valence>
2.661

> <Coulomb>
44.462

> <VdW>
0.723

> <VdW6>
-6.379

> <VdW12>
7.102

> <Bond>
0.164

> <Angle>
0.634

> <Pdih>
1.863

> <Idih>
0.000

> <Tether>
0.000

$$$$
VeraChem MOL file


 26 25  0  0  0  0  0  0  0  0999 V2000     
   20.1863   19.7828   19.1892 C   0  0  0  0  0  0  0  0  0  0  0  0
   19.1866   20.2303   19.1151 H   0  0  0  0  0  0  0  0  0  0  0  0
   20.9113   20.5118   18.8045 H   0  0  0  0  0  0  0  0  0  0  0  0
   20.2158   18.9014   18.5354 H   0  0  0  0  0  0  0  0  0  0  0  0
   20.5170   19.4033   20.6483 C   0  0  0  0  0  0  0  0  0  0  0  0
   20.5180   20.3143   21.2613 H   0  0  0  0  0  0  0  0  0  0  0  0
   21.5327   18.9862   20.6948 H   0  0  0  0  0  0  0  0  0  0  0  0
   19.5051   18.3791   21.2142 C   0  0  0  0  0  0  0  0  0  0  0  0
   18.4972   18.8166   21.2167 H   0  0  0  0  0  0  0  0  0  0  0  0
   19.4623   17.5112   20.5416 H   0  0  0  0  0  0  0  0  0  0  0  0
   19.8578   17.8796   22.6369 C   0  0  0  0  0  0  0  0  0  0  0  0
   20.8596   17.4282   22.6301 H   0  0  0  0  0  0  0  0  0  0  0  0
   19.1591   17.0751   22.9055 H   0  0  0  0  0  0  0  0  0  0  0  0
   19.7904   18.9867   23.7163 C   0  0  0  0  0  0  0  0  0  0  0  0
   20.5371   19.7634   23.5051 H   0  0  0  0  0  0  0  0  0  0  0  0
   18.8054   19.4728   23.6835 H   0  0  0  0  0  0  0  0  0  0  0  0
   20.0383   18.4224   25.1326 C   0  0  0  0  0  0  0  0  0  0  0  0
   21.0226   17.9366   25.1698 H   0  0  0  0  0  0  0  0  0  0  0  0
   19.2896   17.6521   25.3609 H   0  0  0  0  0  0  0  0  0  0  0  0
   19.9736   19.5298   26.1992 C   0  0  0  0  0  0  0  0  0  0  0  0
   20.7287   20.2912   25.9858 H   0  0  0  0  0  0  0  0  0  0  0  0
   18.9894   20.0055   26.1768 H   0  0  0  0  0  0  0  0  0  0  0  0
   20.2125   19.0153   27.6041 N   0  3  0  0  0  0  0  0  0  0  0  0
   21.1354   18.5790   27.6997 H   0  0  0  0  0  0  0  0  0  0  0  0
   19.5170   18.3133   27.8775 H   0  0  0  0  0  0  0  0  0  0  0  0
   20.1651   19.7687   28.2989 H   0  0  0  0  0  0  0  0  0  0  0  0
  1  2  1  0  0  0  0
  1  3  1  0  0  0  0
  1  4  1  0  0  0  0
  1  5  1  0  0  0  0
  5  6  1  0  0  0  0
  5  7  1  0  0  0  0
  5  8  1  0  0  0  0
  8  9  1  0  0  0  0
  8 10  1  0  0  0  0
  8 11  1  0  0  0  0
 11 12  1  0  0  0  0
 11 13  1  0  0  0  0
 11 14  1  0  0  0  0
 14 15  1  0  0  0  0
 14 16  1  0  0  0  0
 14 17  1  0  0  0  0
 17 18  1  0  0  0  0
 17 19  1  0  0  0  0
 17 20  1  0  0  0  0
 20 21  1  0  0  0  0
 20 22  1  0  0  0  0
 20 23  1  0  0  0  0
 23 24  1  0  0  0  0
 23 25  1  0  0  0  0
 23 26  1  0  0  0  0
M  END
> <VM2 Rank>
8

> <Conf_Id>
1191

> <Probability>
2.45

> <Sum Probability>
31.65

> <Delta G>
0.662

> <G>
48.924

> <E>
16.473

> <-TS>
32.451

> <U+W>
-4.989

> <U>
48.035

> <W>
-53.024

> <W(PB)>
-55.379

> <W(SA)>
2.355

> <Valence>
2.701

> <Coulomb>
44.622

> <VdW>
0.712

> <VdW6>
-6.418

> <VdW12>
7.130

> <Bond>
0.168

> <Angle>
0.659

> <Pdih>
1.875

> <Idih>
0.000

> <Tether>
0.000

$$$$
