@<TRIPOS>MOLECULE
guest-3_vm2.mol2 : vm2 ligand conformer 1
          29          28           1
SMALL
USER_CHARGES
 
@<TRIPOS>ATOM
       1    C1      19.995011   18.991198   18.812242 C.3        1 MOL1        -0.2427
       2    H1      19.425150   19.214294   17.900902 H          1 MOL1         0.0958
       3    H2      20.899559   19.613287   18.804997 H          1 MOL1         0.0958
       4    H3      20.303517   17.938535   18.767726 H          1 MOL1         0.0958
       5    C2      19.142625   19.266596   20.068997 C.3        1 MOL1        -0.1412
       6    H4      18.229760   18.655722   20.031443 H          1 MOL1         0.0947
       7    H5      18.821195   20.317586   20.068411 H          1 MOL1         0.0947
       8    C3      19.922026   18.960346   21.366951 C.3        1 MOL1        -0.1437
       9    H6      20.243180   17.909515   21.361992 H          1 MOL1         0.0947
      10    H7      20.834634   19.571515   21.398981 H          1 MOL1         0.0947
      11    C4      19.071683   19.234895   22.627729 C.3        1 MOL1        -0.1437
      12    H8      18.159148   18.623631   22.594808 H          1 MOL1         0.0947
      13    H9      18.750684   20.285795   22.631831 H          1 MOL1         0.0947
      14    C5      19.851789   18.928351   23.925983 C.3        1 MOL1        -0.1437
      15    H10     20.172962   17.877479   23.921376 H          1 MOL1         0.0947
      16    H11     20.764326   19.539680   23.958514 H          1 MOL1         0.0947
      17    C6      19.001245   19.202770   25.186699 C.3        1 MOL1        -0.1437
      18    H12     18.088537   18.591458   25.154647 H          1 MOL1         0.0947
      19    H13     18.679913   20.253716   25.191811 H          1 MOL1         0.0947
      20    C7      19.780276   18.896588   26.484664 C.3        1 MOL1        -0.1477
      21    H14     20.098756   17.845549   26.485772 H          1 MOL1         0.0947
      22    H15     20.690711   19.509574   26.523022 H          1 MOL1         0.0947
      23    C8      18.924443   19.173088   27.733164 C.3        1 MOL1         0.0145
      24    H16     18.024538   18.552621   27.707592 H          1 MOL1         0.0921
      25    H17     18.618740   20.222786   27.745029 H          1 MOL1         0.0921
      26    N1      19.654902   18.884169   29.028571 N.4        1 MOL1        -0.5969
      27    H18     20.499525   19.457334   29.126806 H          1 MOL1         0.3603
      28    H19     19.946564   17.903112   29.091968 H          1 MOL1         0.3603
      29    H20     19.067384   19.074831   29.847859 H          1 MOL1         0.3603
@<TRIPOS>BOND
    1     1     2    1
    2     1     3    1
    3     1     4    1
    4     1     5    1
    5     5     6    1
    6     5     7    1
    7     5     8    1
    8     8     9    1
    9     8    10    1
   10     8    11    1
   11    11    12    1
   12    11    13    1
   13    11    14    1
   14    14    15    1
   15    14    16    1
   16    14    17    1
   17    17    18    1
   18    17    19    1
   19    17    20    1
   20    20    21    1
   21    20    22    1
   22    20    23    1
   23    23    24    1
   24    23    25    1
   25    23    26    1
   26    26    27    1
   27    26    28    1
   28    26    29    1
@<TRIPOS>SUBSTRUCTURE
       1 MOL1            1 RESIDUE      1      MOL     
@<SCITEGIC>MOL_PROPERTY
VM2 Rank
SciTegic.value.IntegerValue
1

@<SCITEGIC>MOL_PROPERTY
Conf_Id
SciTegic.value.IntegerValue
2386

@<SCITEGIC>MOL_PROPERTY
Probability
SciTegic.value.DoubleValue
5.21

@<SCITEGIC>MOL_PROPERTY
Sum Probability
SciTegic.value.DoubleValue
5.21

@<SCITEGIC>MOL_PROPERTY
Delta G
SciTegic.value.DoubleValue
0.000

@<SCITEGIC>MOL_PROPERTY
G
SciTegic.value.DoubleValue
58.147

@<SCITEGIC>MOL_PROPERTY
E
SciTegic.value.DoubleValue
20.963

@<SCITEGIC>MOL_PROPERTY
-TS
SciTegic.value.DoubleValue
37.184

@<SCITEGIC>MOL_PROPERTY
U+W
SciTegic.value.DoubleValue
-3.182

@<SCITEGIC>MOL_PROPERTY
U
SciTegic.value.DoubleValue
47.674

@<SCITEGIC>MOL_PROPERTY
W
SciTegic.value.DoubleValue
-50.850

@<SCITEGIC>MOL_PROPERTY
W(PB)
SciTegic.value.DoubleValue
-53.429

@<SCITEGIC>MOL_PROPERTY
W(SA)
SciTegic.value.DoubleValue
2.580

@<SCITEGIC>MOL_PROPERTY
Valence
SciTegic.value.DoubleValue
2.587

@<SCITEGIC>MOL_PROPERTY
Coulomb
SciTegic.value.DoubleValue
44.357

@<SCITEGIC>MOL_PROPERTY
VdW
SciTegic.value.DoubleValue
0.730

@<SCITEGIC>MOL_PROPERTY
VdW6
SciTegic.value.DoubleValue
-6.901

@<SCITEGIC>MOL_PROPERTY
VdW12
SciTegic.value.DoubleValue
7.631

@<SCITEGIC>MOL_PROPERTY
Bond
SciTegic.value.DoubleValue
0.145

@<SCITEGIC>MOL_PROPERTY
Angle
SciTegic.value.DoubleValue
0.401

@<SCITEGIC>MOL_PROPERTY
Pdih
SciTegic.value.DoubleValue
2.040

@<SCITEGIC>MOL_PROPERTY
Idih
SciTegic.value.DoubleValue
0.000

@<SCITEGIC>MOL_PROPERTY
Tether
SciTegic.value.DoubleValue
0.000

@<TRIPOS>MOLECULE
guest-3_vm2.mol2 : vm2 ligand conformer 2
          29          28           1
SMALL
USER_CHARGES
 
@<TRIPOS>ATOM
       1    C1      19.861465   19.163655   18.895393 C.3        1 MOL1        -0.2427
       2    H1      20.942425   19.355312   18.888500 H          1 MOL1         0.0958
       3    H2      19.703337   18.090405   18.726910 H          1 MOL1         0.0958
       4    H3      19.417470   19.706472   18.050839 H          1 MOL1         0.0958
       5    C2      19.226671   19.615293   20.227646 C.3        1 MOL1        -0.1412
       6    H4      18.141897   19.442458   20.191716 H          1 MOL1         0.0947
       7    H5      19.371445   20.697629   20.352075 H          1 MOL1         0.0947
       8    C3      19.834484   18.865786   21.433774 C.3        1 MOL1        -0.1437
       9    H6      19.689468   17.784353   21.303846 H          1 MOL1         0.0947
      10    H7      20.919027   19.039678   21.464331 H          1 MOL1         0.0947
      11    C4      19.201209   19.315254   22.769793 C.3        1 MOL1        -0.1437
      12    H8      18.116694   19.141234   22.738397 H          1 MOL1         0.0947
      13    H9      19.346319   20.396797   22.898767 H          1 MOL1         0.0947
      14    C5      19.809629   18.565139   23.976111 C.3        1 MOL1        -0.1437
      15    H10     19.665154   17.483633   23.845931 H          1 MOL1         0.0947
      16    H11     20.894091   18.739648   24.007589 H          1 MOL1         0.0947
      17    C6      19.175813   19.013978   25.312093 C.3        1 MOL1        -0.1437
      18    H12     18.091708   18.836664   25.281667 H          1 MOL1         0.0947
      19    H13     19.318830   20.095900   25.434659 H          1 MOL1         0.0947
      20    C7      19.786788   18.262543   26.518364 C.3        1 MOL1        -0.1477
      21    H14     19.672162   17.180658   26.368826 H          1 MOL1         0.0947
      22    H15     20.865800   18.458341   26.576638 H          1 MOL1         0.0947
      23    C8      19.122005   18.642978   27.855274 C.3        1 MOL1         0.0145
      24    H16     19.534997   18.022623   28.655364 H          1 MOL1         0.0921
      25    H17     18.046460   18.454945   27.798311 H          1 MOL1         0.0921
      26    N1      19.325936   20.093374   28.246552 N.4        1 MOL1        -0.5969
      27    H18     20.320184   20.326384   28.338723 H          1 MOL1         0.3603
      28    H19     18.882139   20.311215   29.145559 H          1 MOL1         0.3603
      29    H20     18.927534   20.733060   27.552048 H          1 MOL1         0.3603
@<TRIPOS>BOND
    1     1     2    1
    2     1     3    1
    3     1     4    1
    4     1     5    1
    5     5     6    1
    6     5     7    1
    7     5     8    1
    8     8     9    1
    9     8    10    1
   10     8    11    1
   11    11    12    1
   12    11    13    1
   13    11    14    1
   14    14    15    1
   15    14    16    1
   16    14    17    1
   17    17    18    1
   18    17    19    1
   19    17    20    1
   20    20    21    1
   21    20    22    1
   22    20    23    1
   23    23    24    1
   24    23    25    1
   25    23    26    1
   26    26    27    1
   27    26    28    1
   28    26    29    1
@<TRIPOS>SUBSTRUCTURE
       1 MOL1            1 RESIDUE      1      MOL     
@<SCITEGIC>MOL_PROPERTY
VM2 Rank
SciTegic.value.IntegerValue
2

@<SCITEGIC>MOL_PROPERTY
Conf_Id
SciTegic.value.IntegerValue
2178

@<SCITEGIC>MOL_PROPERTY
Probability
SciTegic.value.DoubleValue
3.50

@<SCITEGIC>MOL_PROPERTY
Sum Probability
SciTegic.value.DoubleValue
8.71

@<SCITEGIC>MOL_PROPERTY
Delta G
SciTegic.value.DoubleValue
0.238

@<SCITEGIC>MOL_PROPERTY
G
SciTegic.value.DoubleValue
58.385

@<SCITEGIC>MOL_PROPERTY
E
SciTegic.value.DoubleValue
21.096

@<SCITEGIC>MOL_PROPERTY
-TS
SciTegic.value.DoubleValue
37.288

@<SCITEGIC>MOL_PROPERTY
U+W
SciTegic.value.DoubleValue
-3.048

@<SCITEGIC>MOL_PROPERTY
U
SciTegic.value.DoubleValue
48.292

@<SCITEGIC>MOL_PROPERTY
W
SciTegic.value.DoubleValue
-51.340

@<SCITEGIC>MOL_PROPERTY
W(PB)
SciTegic.value.DoubleValue
-53.881

@<SCITEGIC>MOL_PROPERTY
W(SA)
SciTegic.value.DoubleValue
2.541

@<SCITEGIC>MOL_PROPERTY
Valence
SciTegic.value.DoubleValue
2.685

@<SCITEGIC>MOL_PROPERTY
Coulomb
SciTegic.value.DoubleValue
44.768

@<SCITEGIC>MOL_PROPERTY
VdW
SciTegic.value.DoubleValue
0.839

@<SCITEGIC>MOL_PROPERTY
VdW6
SciTegic.value.DoubleValue
-7.428

@<SCITEGIC>MOL_PROPERTY
VdW12
SciTegic.value.DoubleValue
8.267

@<SCITEGIC>MOL_PROPERTY
Bond
SciTegic.value.DoubleValue
0.165

@<SCITEGIC>MOL_PROPERTY
Angle
SciTegic.value.DoubleValue
0.440

@<SCITEGIC>MOL_PROPERTY
Pdih
SciTegic.value.DoubleValue
2.080

@<SCITEGIC>MOL_PROPERTY
Idih
SciTegic.value.DoubleValue
0.000

@<SCITEGIC>MOL_PROPERTY
Tether
SciTegic.value.DoubleValue
0.000

@<TRIPOS>MOLECULE
guest-3_vm2.mol2 : vm2 ligand conformer 3
          29          28           1
SMALL
USER_CHARGES
 
@<TRIPOS>ATOM
       1    C1      19.781728   18.938386   18.890458 C.3        1 MOL1        -0.2427
       2    H1      19.106741   18.831352   18.031396 H          1 MOL1         0.0958
       3    H2      20.338936   19.876168   18.766603 H          1 MOL1         0.0958
       4    H3      20.499116   18.107876   18.861065 H          1 MOL1         0.0958
       5    C2      18.985521   18.936894   20.212537 C.3        1 MOL1        -0.1412
       6    H4      18.412825   18.002244   20.292187 H          1 MOL1         0.0947
       7    H5      18.253922   19.756932   20.198475 H          1 MOL1         0.0947
       8    C3      19.912899   19.086370   21.438736 C.3        1 MOL1        -0.1437
       9    H6      20.643816   18.265948   21.447306 H          1 MOL1         0.0947
      10    H7      20.484815   20.020756   21.353635 H          1 MOL1         0.0947
      11    C4      19.119207   19.085216   22.764656 C.3        1 MOL1        -0.1437
      12    H8      18.547328   18.150710   22.848774 H          1 MOL1         0.0947
      13    H9      18.388390   19.905740   22.755279 H          1 MOL1         0.0947
      14    C5      20.047447   19.234731   23.991060 C.3        1 MOL1        -0.1437
      15    H10     20.778057   18.413986   24.000350 H          1 MOL1         0.0947
      16    H11     20.619647   20.168970   23.905863 H          1 MOL1         0.0947
      17    C6      19.253784   19.233994   25.317004 C.3        1 MOL1        -0.1437
      18    H12     18.680206   18.300705   25.394512 H          1 MOL1         0.0947
      19    H13     18.525285   20.056719   25.308967 H          1 MOL1         0.0947
      20    C7      20.184882   19.382666   26.543375 C.3        1 MOL1        -0.1477
      21    H14     20.897557   18.547879   26.578393 H          1 MOL1         0.0947
      22    H15     20.780630   20.299233   26.438662 H          1 MOL1         0.0947
      23    C8      19.410401   19.453946   27.873446 C.3        1 MOL1         0.0145
      24    H16     18.695445   20.280429   27.839391 H          1 MOL1         0.0921
      25    H17     20.110919   19.642187   28.691608 H          1 MOL1         0.0921
      26    N1      18.648132   18.185798   28.203728 N.4        1 MOL1        -0.5969
      27    H18     18.153811   18.261088   29.099608 H          1 MOL1         0.3603
      28    H19     19.271160   17.374349   28.272312 H          1 MOL1         0.3603
      29    H20     17.945258   17.969162   27.490080 H          1 MOL1         0.3603
@<TRIPOS>BOND
    1     1     2    1
    2     1     3    1
    3     1     4    1
    4     1     5    1
    5     5     6    1
    6     5     7    1
    7     5     8    1
    8     8     9    1
    9     8    10    1
   10     8    11    1
   11    11    12    1
   12    11    13    1
   13    11    14    1
   14    14    15    1
   15    14    16    1
   16    14    17    1
   17    17    18    1
   18    17    19    1
   19    17    20    1
   20    20    21    1
   21    20    22    1
   22    20    23    1
   23    23    24    1
   24    23    25    1
   25    23    26    1
   26    26    27    1
   27    26    28    1
   28    26    29    1
@<TRIPOS>SUBSTRUCTURE
       1 MOL1            1 RESIDUE      1      MOL     
@<SCITEGIC>MOL_PROPERTY
VM2 Rank
SciTegic.value.IntegerValue
3

@<SCITEGIC>MOL_PROPERTY
Conf_Id
SciTegic.value.IntegerValue
1784

@<SCITEGIC>MOL_PROPERTY
Probability
SciTegic.value.DoubleValue
3.29

@<SCITEGIC>MOL_PROPERTY
Sum Probability
SciTegic.value.DoubleValue
11.99

@<SCITEGIC>MOL_PROPERTY
Delta G
SciTegic.value.DoubleValue
0.275

@<SCITEGIC>MOL_PROPERTY
G
SciTegic.value.DoubleValue
58.421

@<SCITEGIC>MOL_PROPERTY
E
SciTegic.value.DoubleValue
21.133

@<SCITEGIC>MOL_PROPERTY
-TS
SciTegic.value.DoubleValue
37.288

@<SCITEGIC>MOL_PROPERTY
U+W
SciTegic.value.DoubleValue
-3.011

@<SCITEGIC>MOL_PROPERTY
U
SciTegic.value.DoubleValue
48.292

@<SCITEGIC>MOL_PROPERTY
W
SciTegic.value.DoubleValue
-51.304

@<SCITEGIC>MOL_PROPERTY
W(PB)
SciTegic.value.DoubleValue
-53.854

@<SCITEGIC>MOL_PROPERTY
W(SA)
SciTegic.value.DoubleValue
2.551

@<SCITEGIC>MOL_PROPERTY
Valence
SciTegic.value.DoubleValue
2.685

@<SCITEGIC>MOL_PROPERTY
Coulomb
SciTegic.value.DoubleValue
44.768

@<SCITEGIC>MOL_PROPERTY
VdW
SciTegic.value.DoubleValue
0.839

@<SCITEGIC>MOL_PROPERTY
VdW6
SciTegic.value.DoubleValue
-7.428

@<SCITEGIC>MOL_PROPERTY
VdW12
SciTegic.value.DoubleValue
8.268

@<SCITEGIC>MOL_PROPERTY
Bond
SciTegic.value.DoubleValue
0.165

@<SCITEGIC>MOL_PROPERTY
Angle
SciTegic.value.DoubleValue
0.440

@<SCITEGIC>MOL_PROPERTY
Pdih
SciTegic.value.DoubleValue
2.080

@<SCITEGIC>MOL_PROPERTY
Idih
SciTegic.value.DoubleValue
0.000

@<SCITEGIC>MOL_PROPERTY
Tether
SciTegic.value.DoubleValue
0.000

@<TRIPOS>MOLECULE
guest-3_vm2.mol2 : vm2 ligand conformer 4
          29          28           1
SMALL
USER_CHARGES
 
@<TRIPOS>ATOM
       1    C1      20.202709   18.471560   19.113955 C.3        1 MOL1        -0.2427
       2    H1      19.763199   18.616667   18.118552 H          1 MOL1         0.0958
       3    H2      21.193690   18.944002   19.117057 H          1 MOL1         0.0958
       4    H3      20.337467   17.393115   19.269034 H          1 MOL1         0.0958
       5    C2      19.295145   19.079459   20.204194 C.3        1 MOL1        -0.1412
       6    H4      18.301920   18.611570   20.154405 H          1 MOL1         0.0947
       7    H5      19.151615   20.150476   20.003639 H          1 MOL1         0.0947
       8    C3      19.891291   18.888643   21.616323 C.3        1 MOL1        -0.1437
       9    H6      20.035136   17.816870   21.811291 H          1 MOL1         0.0947
      10    H7      20.884791   19.355976   21.660655 H          1 MOL1         0.0947
      11    C4      18.985174   19.496106   22.710862 C.3        1 MOL1        -0.1437
      12    H8      17.991946   19.028183   22.666140 H          1 MOL1         0.0947
      13    H9      18.841228   20.567597   22.514345 H          1 MOL1         0.0947
      14    C5      19.582146   19.305463   24.123404 C.3        1 MOL1        -0.1437
      15    H10     19.729239   18.233405   24.310803 H          1 MOL1         0.0947
      16    H11     20.574060   19.776107   24.168145 H          1 MOL1         0.0947
      17    C6      18.672207   19.913271   25.217571 C.3        1 MOL1        -0.1437
      18    H12     17.689658   19.421503   25.198185 H          1 MOL1         0.0947
      19    H13     18.493551   20.973516   24.990923 H          1 MOL1         0.0947
      20    C7      19.275180   19.804685   26.637745 C.3        1 MOL1        -0.1477
      21    H14     20.246005   20.317200   26.666663 H          1 MOL1         0.0947
      22    H15     18.620111   20.331669   27.344229 H          1 MOL1         0.0947
      23    C8      19.445604   18.346049   27.101763 C.3        1 MOL1         0.0145
      24    H16     20.131454   17.821781   26.431380 H          1 MOL1         0.0921
      25    H17     18.478998   17.835859   27.074342 H          1 MOL1         0.0921
      26    N1      19.994544   18.232764   28.509183 N.4        1 MOL1        -0.5969
      27    H18     20.917198   18.671779   28.595641 H          1 MOL1         0.3603
      28    H19     20.100529   17.254339   28.799252 H          1 MOL1         0.3603
      29    H20     19.380376   18.682999   29.195914 H          1 MOL1         0.3603
@<TRIPOS>BOND
    1     1     2    1
    2     1     3    1
    3     1     4    1
    4     1     5    1
    5     5     6    1
    6     5     7    1
    7     5     8    1
    8     8     9    1
    9     8    10    1
   10     8    11    1
   11    11    12    1
   12    11    13    1
   13    11    14    1
   14    14    15    1
   15    14    16    1
   16    14    17    1
   17    17    18    1
   18    17    19    1
   19    17    20    1
   20    20    21    1
   21    20    22    1
   22    20    23    1
   23    23    24    1
   24    23    25    1
   25    23    26    1
   26    26    27    1
   27    26    28    1
   28    26    29    1
@<TRIPOS>SUBSTRUCTURE
       1 MOL1            1 RESIDUE      1      MOL     
@<SCITEGIC>MOL_PROPERTY
VM2 Rank
SciTegic.value.IntegerValue
4

@<SCITEGIC>MOL_PROPERTY
Conf_Id
SciTegic.value.IntegerValue
2540

@<SCITEGIC>MOL_PROPERTY
Probability
SciTegic.value.DoubleValue
2.23

@<SCITEGIC>MOL_PROPERTY
Sum Probability
SciTegic.value.DoubleValue
14.22

@<SCITEGIC>MOL_PROPERTY
Delta G
SciTegic.value.DoubleValue
0.506

@<SCITEGIC>MOL_PROPERTY
G
SciTegic.value.DoubleValue
58.653

@<SCITEGIC>MOL_PROPERTY
E
SciTegic.value.DoubleValue
21.369

@<SCITEGIC>MOL_PROPERTY
-TS
SciTegic.value.DoubleValue
37.283

@<SCITEGIC>MOL_PROPERTY
U+W
SciTegic.value.DoubleValue
-2.775

@<SCITEGIC>MOL_PROPERTY
U
SciTegic.value.DoubleValue
48.481

@<SCITEGIC>MOL_PROPERTY
W
SciTegic.value.DoubleValue
-51.257

@<SCITEGIC>MOL_PROPERTY
W(PB)
SciTegic.value.DoubleValue
-53.825

@<SCITEGIC>MOL_PROPERTY
W(SA)
SciTegic.value.DoubleValue
2.568

@<SCITEGIC>MOL_PROPERTY
Valence
SciTegic.value.DoubleValue
2.887

@<SCITEGIC>MOL_PROPERTY
Coulomb
SciTegic.value.DoubleValue
44.809

@<SCITEGIC>MOL_PROPERTY
VdW
SciTegic.value.DoubleValue
0.786

@<SCITEGIC>MOL_PROPERTY
VdW6
SciTegic.value.DoubleValue
-7.506

@<SCITEGIC>MOL_PROPERTY
VdW12
SciTegic.value.DoubleValue
8.292

@<SCITEGIC>MOL_PROPERTY
Bond
SciTegic.value.DoubleValue
0.167

@<SCITEGIC>MOL_PROPERTY
Angle
SciTegic.value.DoubleValue
0.525

@<SCITEGIC>MOL_PROPERTY
Pdih
SciTegic.value.DoubleValue
2.195

@<SCITEGIC>MOL_PROPERTY
Idih
SciTegic.value.DoubleValue
0.000

@<SCITEGIC>MOL_PROPERTY
Tether
SciTegic.value.DoubleValue
0.000

@<TRIPOS>MOLECULE
guest-3_vm2.mol2 : vm2 ligand conformer 5
          29          28           1
SMALL
USER_CHARGES
 
@<TRIPOS>ATOM
       1    C1      20.480042   19.250655   19.131366 C.3        1 MOL1        -0.2427
       2    H1      20.949111   18.258519   19.101471 H          1 MOL1         0.0958
       3    H2      20.061832   19.455892   18.137369 H          1 MOL1         0.0958
       4    H3      21.263970   19.993836   19.327304 H          1 MOL1         0.0958
       5    C2      19.377294   19.310437   20.209421 C.3        1 MOL1        -0.1412
       6    H4      18.591865   18.580421   19.968431 H          1 MOL1         0.0947
       7    H5      18.904323   20.302360   20.192557 H          1 MOL1         0.0947
       8    C3      19.939855   19.024847   21.619341 C.3        1 MOL1        -0.1437
       9    H6      20.413421   18.033376   21.630794 H          1 MOL1         0.0947
      10    H7      20.726119   19.755445   21.854750 H          1 MOL1         0.0947
      11    C4      18.838445   19.083973   22.701688 C.3        1 MOL1        -0.1437
      12    H8      18.052398   18.353583   22.464852 H          1 MOL1         0.0947
      13    H9      18.365336   20.075677   22.689728 H          1 MOL1         0.0947
      14    C5      19.401573   18.798017   24.112046 C.3        1 MOL1        -0.1437
      15    H10     19.871990   17.805058   24.123952 H          1 MOL1         0.0947
      16    H11     20.190507   19.527261   24.339742 H          1 MOL1         0.0947
      17    C6      18.296981   18.859270   25.194056 C.3        1 MOL1        -0.1437
      18    H12     17.491783   18.160408   24.928248 H          1 MOL1         0.0947
      19    H13     17.846557   19.861536   25.207948 H          1 MOL1         0.0947
      20    C7      18.812922   18.506253   26.608780 C.3        1 MOL1        -0.1477
      21    H14     17.962342   18.484144   27.303023 H          1 MOL1         0.0947
      22    H15     19.241226   17.495046   26.603744 H          1 MOL1         0.0947
      23    C8      19.859893   19.509548   27.127649 C.3        1 MOL1         0.0145
      24    H16     19.433393   20.516240   27.133883 H          1 MOL1         0.0921
      25    H17     20.732157   19.508603   26.469001 H          1 MOL1         0.0921
      26    N1      20.336996   19.194999   28.530653 N.4        1 MOL1        -0.5969
      27    H18     19.566823   19.207324   29.207555 H          1 MOL1         0.3603
      28    H19     21.033101   19.874119   28.857642 H          1 MOL1         0.3603
      29    H20     20.773583   18.268860   28.586832 H          1 MOL1         0.3603
@<TRIPOS>BOND
    1     1     2    1
    2     1     3    1
    3     1     4    1
    4     1     5    1
    5     5     6    1
    6     5     7    1
    7     5     8    1
    8     8     9    1
    9     8    10    1
   10     8    11    1
   11    11    12    1
   12    11    13    1
   13    11    14    1
   14    14    15    1
   15    14    16    1
   16    14    17    1
   17    17    18    1
   18    17    19    1
   19    17    20    1
   20    20    21    1
   21    20    22    1
   22    20    23    1
   23    23    24    1
   24    23    25    1
   25    23    26    1
   26    26    27    1
   27    26    28    1
   28    26    29    1
@<TRIPOS>SUBSTRUCTURE
       1 MOL1            1 RESIDUE      1      MOL     
@<SCITEGIC>MOL_PROPERTY
VM2 Rank
SciTegic.value.IntegerValue
5

@<SCITEGIC>MOL_PROPERTY
Conf_Id
SciTegic.value.IntegerValue
34

@<SCITEGIC>MOL_PROPERTY
Probability
SciTegic.value.DoubleValue
2.19

@<SCITEGIC>MOL_PROPERTY
Sum Probability
SciTegic.value.DoubleValue
16.41

@<SCITEGIC>MOL_PROPERTY
Delta G
SciTegic.value.DoubleValue
0.516

@<SCITEGIC>MOL_PROPERTY
G
SciTegic.value.DoubleValue
58.663

@<SCITEGIC>MOL_PROPERTY
E
SciTegic.value.DoubleValue
21.380

@<SCITEGIC>MOL_PROPERTY
-TS
SciTegic.value.DoubleValue
37.283

@<SCITEGIC>MOL_PROPERTY
U+W
SciTegic.value.DoubleValue
-2.765

@<SCITEGIC>MOL_PROPERTY
U
SciTegic.value.DoubleValue
48.481

@<SCITEGIC>MOL_PROPERTY
W
SciTegic.value.DoubleValue
-51.246

@<SCITEGIC>MOL_PROPERTY
W(PB)
SciTegic.value.DoubleValue
-53.778

@<SCITEGIC>MOL_PROPERTY
W(SA)
SciTegic.value.DoubleValue
2.532

@<SCITEGIC>MOL_PROPERTY
Valence
SciTegic.value.DoubleValue
2.887

@<SCITEGIC>MOL_PROPERTY
Coulomb
SciTegic.value.DoubleValue
44.809

@<SCITEGIC>MOL_PROPERTY
VdW
SciTegic.value.DoubleValue
0.786

@<SCITEGIC>MOL_PROPERTY
VdW6
SciTegic.value.DoubleValue
-7.506

@<SCITEGIC>MOL_PROPERTY
VdW12
SciTegic.value.DoubleValue
8.292

@<SCITEGIC>MOL_PROPERTY
Bond
SciTegic.value.DoubleValue
0.167

@<SCITEGIC>MOL_PROPERTY
Angle
SciTegic.value.DoubleValue
0.525

@<SCITEGIC>MOL_PROPERTY
Pdih
SciTegic.value.DoubleValue
2.195

@<SCITEGIC>MOL_PROPERTY
Idih
SciTegic.value.DoubleValue
0.000

@<SCITEGIC>MOL_PROPERTY
Tether
SciTegic.value.DoubleValue
0.000

@<TRIPOS>MOLECULE
guest-3_vm2.mol2 : vm2 ligand conformer 6
          29          28           1
SMALL
USER_CHARGES
 
@<TRIPOS>ATOM
       1    C1      18.950251   18.247139   19.532890 C.3        1 MOL1        -0.2427
       2    H1      19.660748   17.410527   19.550391 H          1 MOL1         0.0958
       3    H2      18.106930   17.996456   20.188200 H          1 MOL1         0.0958
       4    H3      18.559201   18.334278   18.510921 H          1 MOL1         0.0958
       5    C2      19.632727   19.564782   19.964798 C.3        1 MOL1        -0.1412
       6    H4      18.895005   20.379325   19.968132 H          1 MOL1         0.0947
       7    H5      20.386793   19.835890   19.212702 H          1 MOL1         0.0947
       8    C3      20.320931   19.476292   21.348255 C.3        1 MOL1        -0.1437
       9    H6      21.071641   18.674136   21.333845 H          1 MOL1         0.0947
      10    H7      20.870712   20.411158   21.524475 H          1 MOL1         0.0947
      11    C4      19.331567   19.244430   22.515320 C.3        1 MOL1        -0.1437
      12    H8      18.825269   18.278392   22.389635 H          1 MOL1         0.0947
      13    H9      18.552488   20.018890   22.494972 H          1 MOL1         0.0947
      14    C5      20.045941   19.266779   23.885493 C.3        1 MOL1        -0.1437
      15    H10     20.827667   18.494723   23.903680 H          1 MOL1         0.0947
      16    H11     20.550370   20.233564   24.020893 H          1 MOL1         0.0947
      17    C6      19.060237   19.031394   25.052190 C.3        1 MOL1        -0.1437
      18    H12     18.555938   18.064213   24.918019 H          1 MOL1         0.0947
      19    H13     18.277939   19.803036   25.033808 H          1 MOL1         0.0947
      20    C7      19.773397   19.054130   26.421937 C.3        1 MOL1        -0.1477
      21    H14     20.552714   18.280703   26.446129 H          1 MOL1         0.0947
      22    H15     20.274347   20.021340   26.562169 H          1 MOL1         0.0947
      23    C8      18.783148   18.818848   27.575925 C.3        1 MOL1         0.0145
      24    H16     18.293972   17.849212   27.449537 H          1 MOL1         0.0921
      25    H17     18.014414   19.596285   27.565830 H          1 MOL1         0.0921
      26    N1      19.445801   18.834207   28.938191 N.4        1 MOL1        -0.5969
      27    H18     20.162924   18.106049   29.022304 H          1 MOL1         0.3603
      28    H19     18.768946   18.675682   29.692841 H          1 MOL1         0.3603
      29    H20     19.902779   19.731839   29.130501 H          1 MOL1         0.3603
@<TRIPOS>BOND
    1     1     2    1
    2     1     3    1
    3     1     4    1
    4     1     5    1
    5     5     6    1
    6     5     7    1
    7     5     8    1
    8     8     9    1
    9     8    10    1
   10     8    11    1
   11    11    12    1
   12    11    13    1
   13    11    14    1
   14    14    15    1
   15    14    16    1
   16    14    17    1
   17    17    18    1
   18    17    19    1
   19    17    20    1
   20    20    21    1
   21    20    22    1
   22    20    23    1
   23    23    24    1
   24    23    25    1
   25    23    26    1
   26    26    27    1
   27    26    28    1
   28    26    29    1
@<TRIPOS>SUBSTRUCTURE
       1 MOL1            1 RESIDUE      1      MOL     
@<SCITEGIC>MOL_PROPERTY
VM2 Rank
SciTegic.value.IntegerValue
6

@<SCITEGIC>MOL_PROPERTY
Conf_Id
SciTegic.value.IntegerValue
2534

@<SCITEGIC>MOL_PROPERTY
Probability
SciTegic.value.DoubleValue
1.77

@<SCITEGIC>MOL_PROPERTY
Sum Probability
SciTegic.value.DoubleValue
18.18

@<SCITEGIC>MOL_PROPERTY
Delta G
SciTegic.value.DoubleValue
0.645

@<SCITEGIC>MOL_PROPERTY
G
SciTegic.value.DoubleValue
58.791

@<SCITEGIC>MOL_PROPERTY
E
SciTegic.value.DoubleValue
21.496

@<SCITEGIC>MOL_PROPERTY
-TS
SciTegic.value.DoubleValue
37.295

@<SCITEGIC>MOL_PROPERTY
U+W
SciTegic.value.DoubleValue
-2.648

@<SCITEGIC>MOL_PROPERTY
U
SciTegic.value.DoubleValue
48.301

@<SCITEGIC>MOL_PROPERTY
W
SciTegic.value.DoubleValue
-50.949

@<SCITEGIC>MOL_PROPERTY
W(PB)
SciTegic.value.DoubleValue
-53.521

@<SCITEGIC>MOL_PROPERTY
W(SA)
SciTegic.value.DoubleValue
2.572

@<SCITEGIC>MOL_PROPERTY
Valence
SciTegic.value.DoubleValue
3.090

@<SCITEGIC>MOL_PROPERTY
Coulomb
SciTegic.value.DoubleValue
44.344

@<SCITEGIC>MOL_PROPERTY
VdW
SciTegic.value.DoubleValue
0.866

@<SCITEGIC>MOL_PROPERTY
VdW6
SciTegic.value.DoubleValue
-7.521

@<SCITEGIC>MOL_PROPERTY
VdW12
SciTegic.value.DoubleValue
8.387

@<SCITEGIC>MOL_PROPERTY
Bond
SciTegic.value.DoubleValue
0.180

@<SCITEGIC>MOL_PROPERTY
Angle
SciTegic.value.DoubleValue
0.641

@<SCITEGIC>MOL_PROPERTY
Pdih
SciTegic.value.DoubleValue
2.270

@<SCITEGIC>MOL_PROPERTY
Idih
SciTegic.value.DoubleValue
0.000

@<SCITEGIC>MOL_PROPERTY
Tether
SciTegic.value.DoubleValue
0.000

@<TRIPOS>MOLECULE
guest-3_vm2.mol2 : vm2 ligand conformer 7
          29          28           1
SMALL
USER_CHARGES
 
@<TRIPOS>ATOM
       1    C1      19.644643   20.199095   19.576664 C.3        1 MOL1        -0.2427
       2    H1      19.139436   20.899515   20.253155 H          1 MOL1         0.0958
       3    H2      20.723431   20.398026   19.617596 H          1 MOL1         0.0958
       4    H3      19.301054   20.419022   18.557589 H          1 MOL1         0.0958
       5    C2      19.336076   18.730492   19.946119 C.3        1 MOL1        -0.1412
       6    H4      19.760445   18.074435   19.173293 H          1 MOL1         0.0947
       7    H5      18.249795   18.565050   19.927388 H          1 MOL1         0.0947
       8    C3      19.905936   18.309646   21.322185 C.3        1 MOL1        -0.1437
       9    H6      19.739619   17.231487   21.453344 H          1 MOL1         0.0947
      10    H7      20.994642   18.457637   21.329116 H          1 MOL1         0.0947
      11    C4      19.268545   19.067446   22.511350 C.3        1 MOL1        -0.1437
      12    H8      18.175820   18.960172   22.471227 H          1 MOL1         0.0947
      13    H9      19.487516   20.140293   22.431270 H          1 MOL1         0.0947
      14    C5      19.788998   18.544834   23.869369 C.3        1 MOL1        -0.1437
      15    H10     19.567877   17.472226   23.959217 H          1 MOL1         0.0947
      16    H11     20.882300   18.648570   23.907150 H          1 MOL1         0.0947
      17    C6      19.156814   19.303210   25.058240 C.3        1 MOL1        -0.1437
      18    H12     18.063337   19.200094   25.020361 H          1 MOL1         0.0947
      19    H13     19.378195   20.376002   24.969563 H          1 MOL1         0.0947
      20    C7      19.676215   18.781203   26.415832 C.3        1 MOL1        -0.1477
      21    H14     19.451990   17.710299   26.510690 H          1 MOL1         0.0947
      22    H15     20.768444   18.887205   26.459547 H          1 MOL1         0.0947
      23    C8      19.040828   19.543045   27.592064 C.3        1 MOL1         0.0145
      24    H16     17.954081   19.426638   27.562192 H          1 MOL1         0.0921
      25    H17     19.275455   20.607858   27.510908 H          1 MOL1         0.0921
      26    N1      19.525946   19.059028   28.943176 N.4        1 MOL1        -0.5969
      27    H18     19.310851   18.067722   29.093515 H          1 MOL1         0.3603
      28    H19     19.090718   19.579373   29.712966 H          1 MOL1         0.3603
      29    H20     20.540537   19.166890   29.045767 H          1 MOL1         0.3603
@<TRIPOS>BOND
    1     1     2    1
    2     1     3    1
    3     1     4    1
    4     1     5    1
    5     5     6    1
    6     5     7    1
    7     5     8    1
    8     8     9    1
    9     8    10    1
   10     8    11    1
   11    11    12    1
   12    11    13    1
   13    11    14    1
   14    14    15    1
   15    14    16    1
   16    14    17    1
   17    17    18    1
   18    17    19    1
   19    17    20    1
   20    20    21    1
   21    20    22    1
   22    20    23    1
   23    23    24    1
   24    23    25    1
   25    23    26    1
   26    26    27    1
   27    26    28    1
   28    26    29    1
@<TRIPOS>SUBSTRUCTURE
       1 MOL1            1 RESIDUE      1      MOL     
@<SCITEGIC>MOL_PROPERTY
VM2 Rank
SciTegic.value.IntegerValue
7

@<SCITEGIC>MOL_PROPERTY
Conf_Id
SciTegic.value.IntegerValue
1275

@<SCITEGIC>MOL_PROPERTY
Probability
SciTegic.value.DoubleValue
1.76

@<SCITEGIC>MOL_PROPERTY
Sum Probability
SciTegic.value.DoubleValue
19.94

@<SCITEGIC>MOL_PROPERTY
Delta G
SciTegic.value.DoubleValue
0.648

@<SCITEGIC>MOL_PROPERTY
G
SciTegic.value.DoubleValue
58.795

@<SCITEGIC>MOL_PROPERTY
E
SciTegic.value.DoubleValue
21.500

@<SCITEGIC>MOL_PROPERTY
-TS
SciTegic.value.DoubleValue
37.295

@<SCITEGIC>MOL_PROPERTY
U+W
SciTegic.value.DoubleValue
-2.645

@<SCITEGIC>MOL_PROPERTY
U
SciTegic.value.DoubleValue
48.301

@<SCITEGIC>MOL_PROPERTY
W
SciTegic.value.DoubleValue
-50.945

@<SCITEGIC>MOL_PROPERTY
W(PB)
SciTegic.value.DoubleValue
-53.510

@<SCITEGIC>MOL_PROPERTY
W(SA)
SciTegic.value.DoubleValue
2.565

@<SCITEGIC>MOL_PROPERTY
Valence
SciTegic.value.DoubleValue
3.090

@<SCITEGIC>MOL_PROPERTY
Coulomb
SciTegic.value.DoubleValue
44.344

@<SCITEGIC>MOL_PROPERTY
VdW
SciTegic.value.DoubleValue
0.866

@<SCITEGIC>MOL_PROPERTY
VdW6
SciTegic.value.DoubleValue
-7.521

@<SCITEGIC>MOL_PROPERTY
VdW12
SciTegic.value.DoubleValue
8.387

@<SCITEGIC>MOL_PROPERTY
Bond
SciTegic.value.DoubleValue
0.180

@<SCITEGIC>MOL_PROPERTY
Angle
SciTegic.value.DoubleValue
0.641

@<SCITEGIC>MOL_PROPERTY
Pdih
SciTegic.value.DoubleValue
2.270

@<SCITEGIC>MOL_PROPERTY
Idih
SciTegic.value.DoubleValue
0.000

@<SCITEGIC>MOL_PROPERTY
Tether
SciTegic.value.DoubleValue
0.000

@<TRIPOS>MOLECULE
guest-3_vm2.mol2 : vm2 ligand conformer 8
          29          28           1
SMALL
USER_CHARGES
 
@<TRIPOS>ATOM
       1    C1      19.815445   17.821982   19.501289 C.3        1 MOL1        -0.2427
       2    H1      19.493492   17.859948   18.452504 H          1 MOL1         0.0958
       3    H2      20.912392   17.780250   19.515905 H          1 MOL1         0.0958
       4    H3      19.431877   16.890705   19.938138 H          1 MOL1         0.0958
       5    C2      19.297016   19.052499   20.275234 C.3        1 MOL1        -0.1412
       6    H4      18.200108   19.085571   20.215230 H          1 MOL1         0.0947
       7    H5      19.668750   19.968225   19.794473 H          1 MOL1         0.0947
       8    C3      19.737246   19.024231   21.755610 C.3        1 MOL1        -0.1437
       9    H6      19.367770   18.101122   22.220840 H          1 MOL1         0.0947
      10    H7      20.834161   18.993459   21.810534 H          1 MOL1         0.0947
      11    C4      19.214179   20.255593   22.533579 C.3        1 MOL1        -0.1437
      12    H8      18.115444   20.258750   22.527499 H          1 MOL1         0.0947
      13    H9      19.527995   21.168946   22.009520 H          1 MOL1         0.0947
      14    C5      19.724854   20.329071   23.993523 C.3        1 MOL1        -0.1437
      15    H10     20.823545   20.342436   23.998415 H          1 MOL1         0.0947
      16    H11     19.402933   21.286480   24.426087 H          1 MOL1         0.0947
      17    C6      19.212112   19.174550   24.887585 C.3        1 MOL1        -0.1437
      18    H12     19.590049   18.213725   24.514117 H          1 MOL1         0.0947
      19    H13     18.115389   19.128785   24.836139 H          1 MOL1         0.0947
      20    C7      19.650926   19.350235   26.357986 C.3        1 MOL1        -0.1477
      21    H14     20.746813   19.395436   26.413741 H          1 MOL1         0.0947
      22    H15     19.268463   20.303212   26.747397 H          1 MOL1         0.0947
      23    C8      19.140806   18.196568   27.239185 C.3        1 MOL1         0.0145
      24    H16     19.532785   17.246681   26.865657 H          1 MOL1         0.0921
      25    H17     18.048837   18.157950   27.199534 H          1 MOL1         0.0921
      26    N1      19.551416   18.333271   28.691009 N.4        1 MOL1        -0.5969
      27    H18     19.201639   17.554924   29.260723 H          1 MOL1         0.3603
      28    H19     19.190028   19.196430   29.110415 H          1 MOL1         0.3603
      29    H20     20.570969   18.348492   28.799733 H          1 MOL1         0.3603
@<TRIPOS>BOND
    1     1     2    1
    2     1     3    1
    3     1     4    1
    4     1     5    1
    5     5     6    1
    6     5     7    1
    7     5     8    1
    8     8     9    1
    9     8    10    1
   10     8    11    1
   11    11    12    1
   12    11    13    1
   13    11    14    1
   14    14    15    1
   15    14    16    1
   16    14    17    1
   17    17    18    1
   18    17    19    1
   19    17    20    1
   20    20    21    1
   21    20    22    1
   22    20    23    1
   23    23    24    1
   24    23    25    1
   25    23    26    1
   26    26    27    1
   27    26    28    1
   28    26    29    1
@<TRIPOS>SUBSTRUCTURE
       1 MOL1            1 RESIDUE      1      MOL     
@<SCITEGIC>MOL_PROPERTY
VM2 Rank
SciTegic.value.IntegerValue
8

@<SCITEGIC>MOL_PROPERTY
Conf_Id
SciTegic.value.IntegerValue
2217

@<SCITEGIC>MOL_PROPERTY
Probability
SciTegic.value.DoubleValue
1.69

@<SCITEGIC>MOL_PROPERTY
Sum Probability
SciTegic.value.DoubleValue
21.62

@<SCITEGIC>MOL_PROPERTY
Delta G
SciTegic.value.DoubleValue
0.672

@<SCITEGIC>MOL_PROPERTY
G
SciTegic.value.DoubleValue
58.819

@<SCITEGIC>MOL_PROPERTY
E
SciTegic.value.DoubleValue
21.534

@<SCITEGIC>MOL_PROPERTY
-TS
SciTegic.value.DoubleValue
37.285

@<SCITEGIC>MOL_PROPERTY
U+W
SciTegic.value.DoubleValue
-2.610

@<SCITEGIC>MOL_PROPERTY
U
SciTegic.value.DoubleValue
48.554

@<SCITEGIC>MOL_PROPERTY
W
SciTegic.value.DoubleValue
-51.164

@<SCITEGIC>MOL_PROPERTY
W(PB)
SciTegic.value.DoubleValue
-53.731

@<SCITEGIC>MOL_PROPERTY
W(SA)
SciTegic.value.DoubleValue
2.567

@<SCITEGIC>MOL_PROPERTY
Valence
SciTegic.value.DoubleValue
3.126

@<SCITEGIC>MOL_PROPERTY
Coulomb
SciTegic.value.DoubleValue
44.585

@<SCITEGIC>MOL_PROPERTY
VdW
SciTegic.value.DoubleValue
0.842

@<SCITEGIC>MOL_PROPERTY
VdW6
SciTegic.value.DoubleValue
-7.593

@<SCITEGIC>MOL_PROPERTY
VdW12
SciTegic.value.DoubleValue
8.435

@<SCITEGIC>MOL_PROPERTY
Bond
SciTegic.value.DoubleValue
0.185

@<SCITEGIC>MOL_PROPERTY
Angle
SciTegic.value.DoubleValue
0.660

@<SCITEGIC>MOL_PROPERTY
Pdih
SciTegic.value.DoubleValue
2.281

@<SCITEGIC>MOL_PROPERTY
Idih
SciTegic.value.DoubleValue
0.000

@<SCITEGIC>MOL_PROPERTY
Tether
SciTegic.value.DoubleValue
0.000

