@<TRIPOS>MOLECULE
guest-s15_vm2.mol2 : vm2 ligand conformer 1
          29          28           1
SMALL
USER_CHARGES
 
@<TRIPOS>ATOM
       1    C1      19.530524   19.931332   18.743971 C.3        1 MOL1        -0.2426
       2    H1      18.590509   20.492488   18.826001 H          1 MOL1         0.0959
       3    H2      20.358443   20.652031   18.724012 H          1 MOL1         0.0959
       4    H3      19.523085   19.399797   17.783519 H          1 MOL1         0.0959
       5    C2      19.687698   18.938456   19.915017 C.3        1 MOL1        -0.1410
       6    H4      20.619002   18.368941   19.787626 H          1 MOL1         0.0948
       7    H5      18.864690   18.210533   19.888804 H          1 MOL1         0.0948
       8    C3      19.701117   19.661522   21.279914 C.3        1 MOL1        -0.1435
       9    H6      20.523870   20.389581   21.300526 H          1 MOL1         0.0948
      10    H7      18.769395   20.231161   21.401583 H          1 MOL1         0.0948
      11    C4      19.858457   18.670429   22.455087 C.3        1 MOL1        -0.1435
      12    H8      20.789859   18.100648   22.331378 H          1 MOL1         0.0948
      13    H9      19.035257   17.942834   22.433883 H          1 MOL1         0.0948
      14    C5      19.872461   19.394254   23.820392 C.3        1 MOL1        -0.1435
      15    H10     20.698141   20.119157   23.842055 H          1 MOL1         0.0948
      16    H11     18.941869   19.966130   23.933653 H          1 MOL1         0.0948
      17    C6      20.028937   18.399080   24.995771 C.3        1 MOL1        -0.1500
      18    H12     20.935520   17.800334   24.835410 H          1 MOL1         0.0948
      19    H13     19.185647   17.695641   25.001804 H          1 MOL1         0.0948
      20    C7      20.131366   19.098952   26.368231 C.3        1 MOL1         0.1162
      21    H14     20.961855   19.810586   26.329271 H          1 MOL1         0.0910
      22    C8      20.427987   18.070857   27.471560 C.3        1 MOL1        -0.2491
      23    H15     20.538224   18.565995   28.444235 H          1 MOL1         0.0959
      24    H16     19.620724   17.332219   27.553352 H          1 MOL1         0.0959
      25    H17     21.362201   17.534398   27.263670 H          1 MOL1         0.0959
      26    N1      18.897454   19.891119   26.704058 N.4        1 MOL1        -0.5987
      27    H18     18.990835   20.363849   27.607651 H          1 MOL1         0.3605
      28    H19     18.070969   19.289682   26.756462 H          1 MOL1         0.3605
      29    H20     18.711947   20.610347   25.999797 H          1 MOL1         0.3605
@<TRIPOS>BOND
    1     1     2    1
    2     1     3    1
    3     1     4    1
    4     1     5    1
    5     5     6    1
    6     5     7    1
    7     5     8    1
    8     8     9    1
    9     8    10    1
   10     8    11    1
   11    11    12    1
   12    11    13    1
   13    11    14    1
   14    14    15    1
   15    14    16    1
   16    14    17    1
   17    17    18    1
   18    17    19    1
   19    17    20    1
   20    20    21    1
   21    20    22    1
   22    22    23    1
   23    22    24    1
   24    22    25    1
   25    20    26    1
   26    26    27    1
   27    26    28    1
   28    26    29    1
@<TRIPOS>SUBSTRUCTURE
       1 MOL1            1 RESIDUE      1      MOL     
@<SCITEGIC>MOL_PROPERTY
VM2 Rank
SciTegic.value.IntegerValue
1

@<SCITEGIC>MOL_PROPERTY
Conf_Id
SciTegic.value.IntegerValue
402

@<SCITEGIC>MOL_PROPERTY
Probability
SciTegic.value.DoubleValue
10.66

@<SCITEGIC>MOL_PROPERTY
Sum Probability
SciTegic.value.DoubleValue
10.66

@<SCITEGIC>MOL_PROPERTY
Delta G
SciTegic.value.DoubleValue
0.000

@<SCITEGIC>MOL_PROPERTY
G
SciTegic.value.DoubleValue
33.702

@<SCITEGIC>MOL_PROPERTY
E
SciTegic.value.DoubleValue
-3.682

@<SCITEGIC>MOL_PROPERTY
-TS
SciTegic.value.DoubleValue
37.384

@<SCITEGIC>MOL_PROPERTY
U+W
SciTegic.value.DoubleValue
-27.827

@<SCITEGIC>MOL_PROPERTY
U
SciTegic.value.DoubleValue
23.963

@<SCITEGIC>MOL_PROPERTY
W
SciTegic.value.DoubleValue
-51.788

@<SCITEGIC>MOL_PROPERTY
W(PB)
SciTegic.value.DoubleValue
-54.342

@<SCITEGIC>MOL_PROPERTY
W(SA)
SciTegic.value.DoubleValue
2.554

@<SCITEGIC>MOL_PROPERTY
Valence
SciTegic.value.DoubleValue
3.166

@<SCITEGIC>MOL_PROPERTY
Coulomb
SciTegic.value.DoubleValue
19.734

@<SCITEGIC>MOL_PROPERTY
VdW
SciTegic.value.DoubleValue
1.063

@<SCITEGIC>MOL_PROPERTY
VdW6
SciTegic.value.DoubleValue
-7.938

@<SCITEGIC>MOL_PROPERTY
VdW12
SciTegic.value.DoubleValue
9.001

@<SCITEGIC>MOL_PROPERTY
Bond
SciTegic.value.DoubleValue
0.188

@<SCITEGIC>MOL_PROPERTY
Angle
SciTegic.value.DoubleValue
0.880

@<SCITEGIC>MOL_PROPERTY
Pdih
SciTegic.value.DoubleValue
2.098

@<SCITEGIC>MOL_PROPERTY
Idih
SciTegic.value.DoubleValue
0.000

@<SCITEGIC>MOL_PROPERTY
Tether
SciTegic.value.DoubleValue
0.000

@<TRIPOS>MOLECULE
guest-s15_vm2.mol2 : vm2 ligand conformer 2
          29          28           1
SMALL
USER_CHARGES
 
@<TRIPOS>ATOM
       1    C1      19.030750   19.352304   18.849829 C.3        1 MOL1        -0.2426
       2    H1      18.500179   18.391464   18.826770 H          1 MOL1         0.0959
       3    H2      18.285885   20.151859   18.955370 H          1 MOL1         0.0959
       4    H3      19.531814   19.483994   17.882026 H          1 MOL1         0.0959
       5    C2      20.054945   19.392686   20.003627 C.3        1 MOL1        -0.1410
       6    H4      20.592781   20.350855   19.980366 H          1 MOL1         0.0948
       7    H5      20.805369   18.604015   19.852773 H          1 MOL1         0.0948
       8    C3      19.375080   19.209531   21.378456 C.3        1 MOL1        -0.1435
       9    H6      18.624464   19.998744   21.523746 H          1 MOL1         0.0948
      10    H7      18.836849   18.251722   21.396004 H          1 MOL1         0.0948
      11    C4      20.397696   19.249182   22.536393 C.3        1 MOL1        -0.1435
      12    H8      20.935626   20.207158   22.517350 H          1 MOL1         0.0948
      13    H9      21.148105   18.459972   22.389786 H          1 MOL1         0.0948
      14    C5      19.717313   19.065669   23.911758 C.3        1 MOL1        -0.1435
      15    H10     18.968030   19.856063   24.051152 H          1 MOL1         0.0948
      16    H11     19.178989   18.108809   23.919103 H          1 MOL1         0.0948
      17    C6      20.749012   19.103082   25.069154 C.3        1 MOL1        -0.1500
      18    H12     21.313158   20.043652   25.018860 H          1 MOL1         0.0948
      19    H13     21.485341   18.301338   24.924921 H          1 MOL1         0.0948
      20    C7      20.143360   18.972232   26.486628 C.3        1 MOL1         0.1162
      21    H14     20.969327   19.044692   27.200984 H          1 MOL1         0.0910
      22    C8      19.461222   17.609885   26.701210 C.3        1 MOL1        -0.2491
      23    H15     19.163283   17.491459   27.750216 H          1 MOL1         0.0959
      24    H16     18.561114   17.504990   26.083951 H          1 MOL1         0.0959
      25    H17     20.145251   16.788240   26.455073 H          1 MOL1         0.0959
      26    N1      19.206621   20.101428   26.816945 N.4        1 MOL1        -0.5987
      27    H18     18.863272   20.033262   27.779303 H          1 MOL1         0.3605
      28    H19     18.391278   20.099981   26.199082 H          1 MOL1         0.3605
      29    H20     19.666445   21.011265   26.719572 H          1 MOL1         0.3605
@<TRIPOS>BOND
    1     1     2    1
    2     1     3    1
    3     1     4    1
    4     1     5    1
    5     5     6    1
    6     5     7    1
    7     5     8    1
    8     8     9    1
    9     8    10    1
   10     8    11    1
   11    11    12    1
   12    11    13    1
   13    11    14    1
   14    14    15    1
   15    14    16    1
   16    14    17    1
   17    17    18    1
   18    17    19    1
   19    17    20    1
   20    20    21    1
   21    20    22    1
   22    22    23    1
   23    22    24    1
   24    22    25    1
   25    20    26    1
   26    26    27    1
   27    26    28    1
   28    26    29    1
@<TRIPOS>SUBSTRUCTURE
       1 MOL1            1 RESIDUE      1      MOL     
@<SCITEGIC>MOL_PROPERTY
VM2 Rank
SciTegic.value.IntegerValue
2

@<SCITEGIC>MOL_PROPERTY
Conf_Id
SciTegic.value.IntegerValue
399

@<SCITEGIC>MOL_PROPERTY
Probability
SciTegic.value.DoubleValue
5.23

@<SCITEGIC>MOL_PROPERTY
Sum Probability
SciTegic.value.DoubleValue
15.89

@<SCITEGIC>MOL_PROPERTY
Delta G
SciTegic.value.DoubleValue
0.425

@<SCITEGIC>MOL_PROPERTY
G
SciTegic.value.DoubleValue
34.127

@<SCITEGIC>MOL_PROPERTY
E
SciTegic.value.DoubleValue
-3.403

@<SCITEGIC>MOL_PROPERTY
-TS
SciTegic.value.DoubleValue
37.530

@<SCITEGIC>MOL_PROPERTY
U+W
SciTegic.value.DoubleValue
-27.548

@<SCITEGIC>MOL_PROPERTY
U
SciTegic.value.DoubleValue
24.513

@<SCITEGIC>MOL_PROPERTY
W
SciTegic.value.DoubleValue
-52.061

@<SCITEGIC>MOL_PROPERTY
W(PB)
SciTegic.value.DoubleValue
-54.558

@<SCITEGIC>MOL_PROPERTY
W(SA)
SciTegic.value.DoubleValue
2.497

@<SCITEGIC>MOL_PROPERTY
Valence
SciTegic.value.DoubleValue
3.678

@<SCITEGIC>MOL_PROPERTY
Coulomb
SciTegic.value.DoubleValue
19.662

@<SCITEGIC>MOL_PROPERTY
VdW
SciTegic.value.DoubleValue
1.174

@<SCITEGIC>MOL_PROPERTY
VdW6
SciTegic.value.DoubleValue
-8.569

@<SCITEGIC>MOL_PROPERTY
VdW12
SciTegic.value.DoubleValue
9.743

@<SCITEGIC>MOL_PROPERTY
Bond
SciTegic.value.DoubleValue
0.224

@<SCITEGIC>MOL_PROPERTY
Angle
SciTegic.value.DoubleValue
1.211

@<SCITEGIC>MOL_PROPERTY
Pdih
SciTegic.value.DoubleValue
2.243

@<SCITEGIC>MOL_PROPERTY
Idih
SciTegic.value.DoubleValue
0.000

@<SCITEGIC>MOL_PROPERTY
Tether
SciTegic.value.DoubleValue
0.000

@<TRIPOS>MOLECULE
guest-s15_vm2.mol2 : vm2 ligand conformer 3
          29          28           1
SMALL
USER_CHARGES
 
@<TRIPOS>ATOM
       1    C1      20.203069   19.467356   18.690427 C.3        1 MOL1        -0.2426
       2    H1      20.598480   20.491420   18.704454 H          1 MOL1         0.0959
       3    H2      21.052468   18.773381   18.643790 H          1 MOL1         0.0959
       4    H3      19.616859   19.344932   17.770415 H          1 MOL1         0.0959
       5    C2      19.330228   19.192832   19.933263 C.3        1 MOL1        -0.1410
       6    H4      18.922132   18.174065   19.874357 H          1 MOL1         0.0948
       7    H5      18.471590   19.878862   19.934500 H          1 MOL1         0.0948
       8    C3      20.132032   19.358509   21.243071 C.3        1 MOL1        -0.1435
       9    H6      20.990449   18.672594   21.236051 H          1 MOL1         0.0948
      10    H7      20.539751   20.377494   21.296442 H          1 MOL1         0.0948
      11    C4      19.261267   19.084322   22.489944 C.3        1 MOL1        -0.1435
      12    H8      18.854156   18.065078   22.436047 H          1 MOL1         0.0948
      13    H9      18.402642   19.770032   22.494731 H          1 MOL1         0.0948
      14    C5      20.063805   19.250710   23.800215 C.3        1 MOL1        -0.1435
      15    H10     20.923341   18.567949   23.781340 H          1 MOL1         0.0948
      16    H11     20.466539   20.271579   23.856290 H          1 MOL1         0.0948
      17    C6      19.190221   18.970837   25.047753 C.3        1 MOL1        -0.1500
      18    H12     18.839184   17.930486   25.028354 H          1 MOL1         0.0948
      19    H13     18.293735   19.602733   24.995313 H          1 MOL1         0.0948
      20    C7      19.908585   19.252367   26.387207 C.3        1 MOL1         0.1162
      21    H14     20.285048   20.279713   26.365539 H          1 MOL1         0.0910
      22    C8      21.097244   18.302424   26.619543 C.3        1 MOL1        -0.2491
      23    H15     20.778952   17.252998   26.586204 H          1 MOL1         0.0959
      24    H16     21.878711   18.449159   25.865125 H          1 MOL1         0.0959
      25    H17     21.554233   18.488160   27.599350 H          1 MOL1         0.0959
      26    N1      18.949549   19.176643   27.542577 N.4        1 MOL1        -0.5987
      27    H18     19.412328   19.401266   28.428080 H          1 MOL1         0.3605
      28    H19     18.549880   18.238933   27.636093 H          1 MOL1         0.3605
      29    H20     18.171508   19.833176   27.430624 H          1 MOL1         0.3605
@<TRIPOS>BOND
    1     1     2    1
    2     1     3    1
    3     1     4    1
    4     1     5    1
    5     5     6    1
    6     5     7    1
    7     5     8    1
    8     8     9    1
    9     8    10    1
   10     8    11    1
   11    11    12    1
   12    11    13    1
   13    11    14    1
   14    14    15    1
   15    14    16    1
   16    14    17    1
   17    17    18    1
   18    17    19    1
   19    17    20    1
   20    20    21    1
   21    20    22    1
   22    22    23    1
   23    22    24    1
   24    22    25    1
   25    20    26    1
   26    26    27    1
   27    26    28    1
   28    26    29    1
@<TRIPOS>SUBSTRUCTURE
       1 MOL1            1 RESIDUE      1      MOL     
@<SCITEGIC>MOL_PROPERTY
VM2 Rank
SciTegic.value.IntegerValue
3

@<SCITEGIC>MOL_PROPERTY
Conf_Id
SciTegic.value.IntegerValue
58

@<SCITEGIC>MOL_PROPERTY
Probability
SciTegic.value.DoubleValue
5.21

@<SCITEGIC>MOL_PROPERTY
Sum Probability
SciTegic.value.DoubleValue
21.10

@<SCITEGIC>MOL_PROPERTY
Delta G
SciTegic.value.DoubleValue
0.427

@<SCITEGIC>MOL_PROPERTY
G
SciTegic.value.DoubleValue
34.129

@<SCITEGIC>MOL_PROPERTY
E
SciTegic.value.DoubleValue
-3.270

@<SCITEGIC>MOL_PROPERTY
-TS
SciTegic.value.DoubleValue
37.399

@<SCITEGIC>MOL_PROPERTY
U+W
SciTegic.value.DoubleValue
-27.414

@<SCITEGIC>MOL_PROPERTY
U
SciTegic.value.DoubleValue
24.279

@<SCITEGIC>MOL_PROPERTY
W
SciTegic.value.DoubleValue
-51.694

@<SCITEGIC>MOL_PROPERTY
W(PB)
SciTegic.value.DoubleValue
-54.271

@<SCITEGIC>MOL_PROPERTY
W(SA)
SciTegic.value.DoubleValue
2.577

@<SCITEGIC>MOL_PROPERTY
Valence
SciTegic.value.DoubleValue
3.709

@<SCITEGIC>MOL_PROPERTY
Coulomb
SciTegic.value.DoubleValue
19.380

@<SCITEGIC>MOL_PROPERTY
VdW
SciTegic.value.DoubleValue
1.191

@<SCITEGIC>MOL_PROPERTY
VdW6
SciTegic.value.DoubleValue
-8.093

@<SCITEGIC>MOL_PROPERTY
VdW12
SciTegic.value.DoubleValue
9.284

@<SCITEGIC>MOL_PROPERTY
Bond
SciTegic.value.DoubleValue
0.200

@<SCITEGIC>MOL_PROPERTY
Angle
SciTegic.value.DoubleValue
1.161

@<SCITEGIC>MOL_PROPERTY
Pdih
SciTegic.value.DoubleValue
2.348

@<SCITEGIC>MOL_PROPERTY
Idih
SciTegic.value.DoubleValue
0.000

@<SCITEGIC>MOL_PROPERTY
Tether
SciTegic.value.DoubleValue
0.000

@<TRIPOS>MOLECULE
guest-s15_vm2.mol2 : vm2 ligand conformer 4
          29          28           1
SMALL
USER_CHARGES
 
@<TRIPOS>ATOM
       1    C1      18.828853   18.794177   19.403750 C.3        1 MOL1        -0.2426
       2    H1      18.683239   17.874084   19.983135 H          1 MOL1         0.0959
       3    H2      17.943905   19.429659   19.538134 H          1 MOL1         0.0959
       4    H3      18.881765   18.511844   18.344304 H          1 MOL1         0.0959
       5    C2      20.115677   19.536150   19.830456 C.3        1 MOL1        -0.1410
       6    H4      20.282371   20.378647   19.144763 H          1 MOL1         0.0948
       7    H5      20.981983   18.869843   19.715234 H          1 MOL1         0.0948
       8    C3      20.061402   20.078351   21.279070 C.3        1 MOL1        -0.1435
       9    H6      20.961494   20.682275   21.459096 H          1 MOL1         0.0948
      10    H7      19.205825   20.759719   21.383703 H          1 MOL1         0.0948
      11    C4      19.976948   18.965504   22.351026 C.3        1 MOL1        -0.1435
      12    H8      20.804653   18.256974   22.209351 H          1 MOL1         0.0948
      13    H9      19.045478   18.397592   22.227479 H          1 MOL1         0.0948
      14    C5      20.030667   19.543812   23.783166 C.3        1 MOL1        -0.1435
      15    H10     20.965601   20.105666   23.916854 H          1 MOL1         0.0948
      16    H11     19.206830   20.258152   23.913082 H          1 MOL1         0.0948
      17    C6      19.940744   18.430615   24.855139 C.3        1 MOL1        -0.1500
      18    H12     20.738786   17.698253   24.673829 H          1 MOL1         0.0948
      19    H13     18.990160   17.890620   24.751248 H          1 MOL1         0.0948
      20    C7      20.077515   18.969021   26.295735 C.3        1 MOL1         0.1162
      21    H14     21.019096   19.522162   26.367236 H          1 MOL1         0.0910
      22    C8      20.123774   17.805541   27.298966 C.3        1 MOL1        -0.2491
      23    H15     19.197736   17.217785   27.268257 H          1 MOL1         0.0959
      24    H16     20.962480   17.133520   27.078236 H          1 MOL1         0.0959
      25    H17     20.257584   18.179598   28.321505 H          1 MOL1         0.0959
      26    N1      18.980421   19.932828   26.656693 N.4        1 MOL1        -0.5987
      27    H18     18.060954   19.485670   26.610120 H          1 MOL1         0.3605
      28    H19     18.965575   20.736415   26.022881 H          1 MOL1         0.3605
      29    H20     19.098070   20.294517   27.607486 H          1 MOL1         0.3605
@<TRIPOS>BOND
    1     1     2    1
    2     1     3    1
    3     1     4    1
    4     1     5    1
    5     5     6    1
    6     5     7    1
    7     5     8    1
    8     8     9    1
    9     8    10    1
   10     8    11    1
   11    11    12    1
   12    11    13    1
   13    11    14    1
   14    14    15    1
   15    14    16    1
   16    14    17    1
   17    17    18    1
   18    17    19    1
   19    17    20    1
   20    20    21    1
   21    20    22    1
   22    22    23    1
   23    22    24    1
   24    22    25    1
   25    20    26    1
   26    26    27    1
   27    26    28    1
   28    26    29    1
@<TRIPOS>SUBSTRUCTURE
       1 MOL1            1 RESIDUE      1      MOL     
@<SCITEGIC>MOL_PROPERTY
VM2 Rank
SciTegic.value.IntegerValue
4

@<SCITEGIC>MOL_PROPERTY
Conf_Id
SciTegic.value.IntegerValue
1220

@<SCITEGIC>MOL_PROPERTY
Probability
SciTegic.value.DoubleValue
4.02

@<SCITEGIC>MOL_PROPERTY
Sum Probability
SciTegic.value.DoubleValue
25.12

@<SCITEGIC>MOL_PROPERTY
Delta G
SciTegic.value.DoubleValue
0.582

@<SCITEGIC>MOL_PROPERTY
G
SciTegic.value.DoubleValue
34.284

@<SCITEGIC>MOL_PROPERTY
E
SciTegic.value.DoubleValue
-3.211

@<SCITEGIC>MOL_PROPERTY
-TS
SciTegic.value.DoubleValue
37.495

@<SCITEGIC>MOL_PROPERTY
U+W
SciTegic.value.DoubleValue
-27.356

@<SCITEGIC>MOL_PROPERTY
U
SciTegic.value.DoubleValue
24.589

@<SCITEGIC>MOL_PROPERTY
W
SciTegic.value.DoubleValue
-51.945

@<SCITEGIC>MOL_PROPERTY
W(PB)
SciTegic.value.DoubleValue
-54.480

@<SCITEGIC>MOL_PROPERTY
W(SA)
SciTegic.value.DoubleValue
2.535

@<SCITEGIC>MOL_PROPERTY
Valence
SciTegic.value.DoubleValue
3.670

@<SCITEGIC>MOL_PROPERTY
Coulomb
SciTegic.value.DoubleValue
19.723

@<SCITEGIC>MOL_PROPERTY
VdW
SciTegic.value.DoubleValue
1.196

@<SCITEGIC>MOL_PROPERTY
VdW6
SciTegic.value.DoubleValue
-8.561

@<SCITEGIC>MOL_PROPERTY
VdW12
SciTegic.value.DoubleValue
9.756

@<SCITEGIC>MOL_PROPERTY
Bond
SciTegic.value.DoubleValue
0.223

@<SCITEGIC>MOL_PROPERTY
Angle
SciTegic.value.DoubleValue
1.119

@<SCITEGIC>MOL_PROPERTY
Pdih
SciTegic.value.DoubleValue
2.329

@<SCITEGIC>MOL_PROPERTY
Idih
SciTegic.value.DoubleValue
0.000

@<SCITEGIC>MOL_PROPERTY
Tether
SciTegic.value.DoubleValue
0.000

@<TRIPOS>MOLECULE
guest-s15_vm2.mol2 : vm2 ligand conformer 5
          29          28           1
SMALL
USER_CHARGES
 
@<TRIPOS>ATOM
       1    C1      20.486166   18.898080   19.301247 C.3        1 MOL1        -0.2426
       2    H1      20.354903   18.591187   18.255531 H          1 MOL1         0.0959
       3    H2      21.278133   19.657626   19.331409 H          1 MOL1         0.0959
       4    H3      20.829774   18.019895   19.861763 H          1 MOL1         0.0959
       5    C2      19.161661   19.453439   19.872027 C.3        1 MOL1        -0.1410
       6    H4      18.394741   18.666424   19.858985 H          1 MOL1         0.0948
       7    H5      18.796541   20.249645   19.208320 H          1 MOL1         0.0948
       8    C3      19.300518   20.025269   21.303510 C.3        1 MOL1        -0.1435
       9    H6      20.053880   20.825061   21.307457 H          1 MOL1         0.0948
      10    H7      18.348302   20.496039   21.584462 H          1 MOL1         0.0948
      11    C4      19.667672   18.956991   22.361179 C.3        1 MOL1        -0.1435
      12    H8      20.651139   18.526628   22.131076 H          1 MOL1         0.0948
      13    H9      18.940748   18.134178   22.318996 H          1 MOL1         0.0948
      14    C5      19.694814   19.549011   23.788469 C.3        1 MOL1        -0.1435
      15    H10     20.422177   20.371791   23.829358 H          1 MOL1         0.0948
      16    H11     18.711262   19.979886   24.018212 H          1 MOL1         0.0948
      17    C6      20.064479   18.480549   24.845910 C.3        1 MOL1        -0.1500
      18    H12     21.024173   18.024156   24.568799 H          1 MOL1         0.0948
      19    H13     19.319169   17.674076   24.835407 H          1 MOL1         0.0948
      20    C7      20.182773   19.060088   26.272115 C.3        1 MOL1         0.1162
      21    H14     20.911998   19.875844   26.251479 H          1 MOL1         0.0910
      22    C8      20.689411   17.984227   27.245840 C.3        1 MOL1        -0.2491
      23    H15     19.989807   17.141006   27.304832 H          1 MOL1         0.0959
      24    H16     21.664912   17.597118   26.925990 H          1 MOL1         0.0959
      25    H17     20.810626   18.399113   28.254099 H          1 MOL1         0.0959
      26    N1      18.888506   19.648346   26.763702 N.4        1 MOL1        -0.5987
      27    H18     18.990544   20.045211   27.702185 H          1 MOL1         0.3605
      28    H19     18.150437   18.940677   26.808424 H          1 MOL1         0.3605
      29    H20     18.561048   20.397704   26.148137 H          1 MOL1         0.3605
@<TRIPOS>BOND
    1     1     2    1
    2     1     3    1
    3     1     4    1
    4     1     5    1
    5     5     6    1
    6     5     7    1
    7     5     8    1
    8     8     9    1
    9     8    10    1
   10     8    11    1
   11    11    12    1
   12    11    13    1
   13    11    14    1
   14    14    15    1
   15    14    16    1
   16    14    17    1
   17    17    18    1
   18    17    19    1
   19    17    20    1
   20    20    21    1
   21    20    22    1
   22    22    23    1
   23    22    24    1
   24    22    25    1
   25    20    26    1
   26    26    27    1
   27    26    28    1
   28    26    29    1
@<TRIPOS>SUBSTRUCTURE
       1 MOL1            1 RESIDUE      1      MOL     
@<SCITEGIC>MOL_PROPERTY
VM2 Rank
SciTegic.value.IntegerValue
5

@<SCITEGIC>MOL_PROPERTY
Conf_Id
SciTegic.value.IntegerValue
1039

@<SCITEGIC>MOL_PROPERTY
Probability
SciTegic.value.DoubleValue
3.90

@<SCITEGIC>MOL_PROPERTY
Sum Probability
SciTegic.value.DoubleValue
29.02

@<SCITEGIC>MOL_PROPERTY
Delta G
SciTegic.value.DoubleValue
0.600

@<SCITEGIC>MOL_PROPERTY
G
SciTegic.value.DoubleValue
34.302

@<SCITEGIC>MOL_PROPERTY
E
SciTegic.value.DoubleValue
-3.193

@<SCITEGIC>MOL_PROPERTY
-TS
SciTegic.value.DoubleValue
37.495

@<SCITEGIC>MOL_PROPERTY
U+W
SciTegic.value.DoubleValue
-27.338

@<SCITEGIC>MOL_PROPERTY
U
SciTegic.value.DoubleValue
24.574

@<SCITEGIC>MOL_PROPERTY
W
SciTegic.value.DoubleValue
-51.911

@<SCITEGIC>MOL_PROPERTY
W(PB)
SciTegic.value.DoubleValue
-54.448

@<SCITEGIC>MOL_PROPERTY
W(SA)
SciTegic.value.DoubleValue
2.537

@<SCITEGIC>MOL_PROPERTY
Valence
SciTegic.value.DoubleValue
3.669

@<SCITEGIC>MOL_PROPERTY
Coulomb
SciTegic.value.DoubleValue
19.705

@<SCITEGIC>MOL_PROPERTY
VdW
SciTegic.value.DoubleValue
1.200

@<SCITEGIC>MOL_PROPERTY
VdW6
SciTegic.value.DoubleValue
-8.560

@<SCITEGIC>MOL_PROPERTY
VdW12
SciTegic.value.DoubleValue
9.760

@<SCITEGIC>MOL_PROPERTY
Bond
SciTegic.value.DoubleValue
0.223

@<SCITEGIC>MOL_PROPERTY
Angle
SciTegic.value.DoubleValue
1.118

@<SCITEGIC>MOL_PROPERTY
Pdih
SciTegic.value.DoubleValue
2.328

@<SCITEGIC>MOL_PROPERTY
Idih
SciTegic.value.DoubleValue
0.000

@<SCITEGIC>MOL_PROPERTY
Tether
SciTegic.value.DoubleValue
0.000

@<TRIPOS>MOLECULE
guest-s15_vm2.mol2 : vm2 ligand conformer 6
          29          28           1
SMALL
USER_CHARGES
 
@<TRIPOS>ATOM
       1    C1      20.674615   18.986436   19.135417 C.3        1 MOL1        -0.2426
       2    H1      21.326763   19.869400   19.153435 H          1 MOL1         0.0959
       3    H2      21.274384   18.112354   19.420895 H          1 MOL1         0.0959
       4    H3      20.335060   18.839205   18.101942 H          1 MOL1         0.0959
       5    C2      19.470623   19.166887   20.083996 C.3        1 MOL1        -0.1410
       6    H4      18.820117   18.283353   20.019841 H          1 MOL1         0.0948
       7    H5      18.871559   20.026591   19.752477 H          1 MOL1         0.0948
       8    C3      19.921191   19.377101   21.546519 C.3        1 MOL1        -0.1435
       9    H6      20.526149   18.516673   21.860392 H          1 MOL1         0.0948
      10    H7      20.568844   20.262663   21.605795 H          1 MOL1         0.0948
      11    C4      18.714029   19.553367   22.498989 C.3        1 MOL1        -0.1435
      12    H8      18.095906   18.645031   22.486686 H          1 MOL1         0.0948
      13    H9      18.077006   20.364408   22.119758 H          1 MOL1         0.0948
      14    C5      19.115004   19.888651   23.956759 C.3        1 MOL1        -0.1435
      15    H10     19.730672   20.798758   23.968165 H          1 MOL1         0.0948
      16    H11     18.199406   20.127910   24.513288 H          1 MOL1         0.0948
      17    C6      19.869872   18.738215   24.671462 C.3        1 MOL1        -0.1500
      18    H12     20.796814   18.519300   24.127313 H          1 MOL1         0.0948
      19    H13     19.264445   17.822546   24.643626 H          1 MOL1         0.0948
      20    C7      20.234156   19.074810   26.133934 C.3        1 MOL1         0.1162
      21    H14     20.804793   20.008616   26.139106 H          1 MOL1         0.0910
      22    C8      21.115616   17.967382   26.733328 C.3        1 MOL1        -0.2491
      23    H15     20.587436   17.005791   26.751388 H          1 MOL1         0.0959
      24    H16     22.035208   17.841181   26.148362 H          1 MOL1         0.0959
      25    H17     21.407139   18.216691   27.761079 H          1 MOL1         0.0959
      26    N1      19.020893   19.303152   26.993596 N.4        1 MOL1        -0.5987
      27    H18     19.282845   19.541954   27.954325 H          1 MOL1         0.3605
      28    H19     18.430778   18.467946   27.035159 H          1 MOL1         0.3605
      29    H20     18.446155   20.069718   26.633551 H          1 MOL1         0.3605
@<TRIPOS>BOND
    1     1     2    1
    2     1     3    1
    3     1     4    1
    4     1     5    1
    5     5     6    1
    6     5     7    1
    7     5     8    1
    8     8     9    1
    9     8    10    1
   10     8    11    1
   11    11    12    1
   12    11    13    1
   13    11    14    1
   14    14    15    1
   15    14    16    1
   16    14    17    1
   17    17    18    1
   18    17    19    1
   19    17    20    1
   20    20    21    1
   21    20    22    1
   22    22    23    1
   23    22    24    1
   24    22    25    1
   25    20    26    1
   26    26    27    1
   27    26    28    1
   28    26    29    1
@<TRIPOS>SUBSTRUCTURE
       1 MOL1            1 RESIDUE      1      MOL     
@<SCITEGIC>MOL_PROPERTY
VM2 Rank
SciTegic.value.IntegerValue
6

@<SCITEGIC>MOL_PROPERTY
Conf_Id
SciTegic.value.IntegerValue
1238

@<SCITEGIC>MOL_PROPERTY
Probability
SciTegic.value.DoubleValue
3.58

@<SCITEGIC>MOL_PROPERTY
Sum Probability
SciTegic.value.DoubleValue
32.60

@<SCITEGIC>MOL_PROPERTY
Delta G
SciTegic.value.DoubleValue
0.651

@<SCITEGIC>MOL_PROPERTY
G
SciTegic.value.DoubleValue
34.353

@<SCITEGIC>MOL_PROPERTY
E
SciTegic.value.DoubleValue
-3.103

@<SCITEGIC>MOL_PROPERTY
-TS
SciTegic.value.DoubleValue
37.455

@<SCITEGIC>MOL_PROPERTY
U+W
SciTegic.value.DoubleValue
-27.247

@<SCITEGIC>MOL_PROPERTY
U
SciTegic.value.DoubleValue
24.710

@<SCITEGIC>MOL_PROPERTY
W
SciTegic.value.DoubleValue
-51.958

@<SCITEGIC>MOL_PROPERTY
W(PB)
SciTegic.value.DoubleValue
-54.513

@<SCITEGIC>MOL_PROPERTY
W(SA)
SciTegic.value.DoubleValue
2.555

@<SCITEGIC>MOL_PROPERTY
Valence
SciTegic.value.DoubleValue
3.735

@<SCITEGIC>MOL_PROPERTY
Coulomb
SciTegic.value.DoubleValue
19.760

@<SCITEGIC>MOL_PROPERTY
VdW
SciTegic.value.DoubleValue
1.216

@<SCITEGIC>MOL_PROPERTY
VdW6
SciTegic.value.DoubleValue
-8.624

@<SCITEGIC>MOL_PROPERTY
VdW12
SciTegic.value.DoubleValue
9.840

@<SCITEGIC>MOL_PROPERTY
Bond
SciTegic.value.DoubleValue
0.236

@<SCITEGIC>MOL_PROPERTY
Angle
SciTegic.value.DoubleValue
1.168

@<SCITEGIC>MOL_PROPERTY
Pdih
SciTegic.value.DoubleValue
2.330

@<SCITEGIC>MOL_PROPERTY
Idih
SciTegic.value.DoubleValue
0.000

@<SCITEGIC>MOL_PROPERTY
Tether
SciTegic.value.DoubleValue
0.000

@<TRIPOS>MOLECULE
guest-s15_vm2.mol2 : vm2 ligand conformer 7
          29          28           1
SMALL
USER_CHARGES
 
@<TRIPOS>ATOM
       1    C1      19.704453   20.025571   19.021338 C.3        1 MOL1        -0.2426
       2    H1      20.461026   20.391807   18.315281 H          1 MOL1         0.0959
       3    H2      19.242427   19.129964   18.585823 H          1 MOL1         0.0959
       4    H3      18.930143   20.797999   19.116450 H          1 MOL1         0.0959
       5    C2      20.343935   19.709888   20.389998 C.3        1 MOL1        -0.1410
       6    H4      20.826578   20.615141   20.784280 H          1 MOL1         0.0948
       7    H5      21.136361   18.959890   20.257859 H          1 MOL1         0.0948
       8    C3      19.299481   19.191955   21.403328 C.3        1 MOL1        -0.1435
       9    H6      18.508488   19.943964   21.530542 H          1 MOL1         0.0948
      10    H7      18.818056   18.288862   21.003248 H          1 MOL1         0.0948
      11    C4      19.936324   18.874246   22.774903 C.3        1 MOL1        -0.1435
      12    H8      20.422268   19.778969   23.163575 H          1 MOL1         0.0948
      13    H9      20.724331   18.119324   22.646252 H          1 MOL1         0.0948
      14    C5      18.887169   18.357636   23.788362 C.3        1 MOL1        -0.1435
      15    H10     18.109044   19.117812   23.938833 H          1 MOL1         0.0948
      16    H11     18.377405   17.482352   23.362480 H          1 MOL1         0.0948
      17    C6      19.503289   17.951383   25.151620 C.3        1 MOL1        -0.1500
      18    H12     20.203750   17.121381   24.989063 H          1 MOL1         0.0948
      19    H13     18.708995   17.559284   25.800645 H          1 MOL1         0.0948
      20    C7      20.240684   19.096484   25.881372 C.3        1 MOL1         0.1162
      21    H14     21.040774   19.461536   25.230743 H          1 MOL1         0.0910
      22    C8      20.878577   18.579556   27.180455 C.3        1 MOL1        -0.2491
      23    H15     20.116637   18.204930   27.875454 H          1 MOL1         0.0959
      24    H16     21.581305   17.763339   26.971382 H          1 MOL1         0.0959
      25    H17     21.436798   19.378702   27.683589 H          1 MOL1         0.0959
      26    N1      19.342088   20.269282   26.162623 N.4        1 MOL1        -0.5987
      27    H18     18.940884   20.644684   25.298885 H          1 MOL1         0.3605
      28    H19     19.851011   21.029747   26.622285 H          1 MOL1         0.3605
      29    H20     18.565599   20.005188   26.774840 H          1 MOL1         0.3605
@<TRIPOS>BOND
    1     1     2    1
    2     1     3    1
    3     1     4    1
    4     1     5    1
    5     5     6    1
    6     5     7    1
    7     5     8    1
    8     8     9    1
    9     8    10    1
   10     8    11    1
   11    11    12    1
   12    11    13    1
   13    11    14    1
   14    14    15    1
   15    14    16    1
   16    14    17    1
   17    17    18    1
   18    17    19    1
   19    17    20    1
   20    20    21    1
   21    20    22    1
   22    22    23    1
   23    22    24    1
   24    22    25    1
   25    20    26    1
   26    26    27    1
   27    26    28    1
   28    26    29    1
@<TRIPOS>SUBSTRUCTURE
       1 MOL1            1 RESIDUE      1      MOL     
@<SCITEGIC>MOL_PROPERTY
VM2 Rank
SciTegic.value.IntegerValue
7

@<SCITEGIC>MOL_PROPERTY
Conf_Id
SciTegic.value.IntegerValue
933

@<SCITEGIC>MOL_PROPERTY
Probability
SciTegic.value.DoubleValue
3.51

@<SCITEGIC>MOL_PROPERTY
Sum Probability
SciTegic.value.DoubleValue
36.11

@<SCITEGIC>MOL_PROPERTY
Delta G
SciTegic.value.DoubleValue
0.662

@<SCITEGIC>MOL_PROPERTY
G
SciTegic.value.DoubleValue
34.364

@<SCITEGIC>MOL_PROPERTY
E
SciTegic.value.DoubleValue
-3.215

@<SCITEGIC>MOL_PROPERTY
-TS
SciTegic.value.DoubleValue
37.579

@<SCITEGIC>MOL_PROPERTY
U+W
SciTegic.value.DoubleValue
-27.360

@<SCITEGIC>MOL_PROPERTY
U
SciTegic.value.DoubleValue
24.672

@<SCITEGIC>MOL_PROPERTY
W
SciTegic.value.DoubleValue
-52.032

@<SCITEGIC>MOL_PROPERTY
W(PB)
SciTegic.value.DoubleValue
-54.582

@<SCITEGIC>MOL_PROPERTY
W(SA)
SciTegic.value.DoubleValue
2.550

@<SCITEGIC>MOL_PROPERTY
Valence
SciTegic.value.DoubleValue
3.465

@<SCITEGIC>MOL_PROPERTY
Coulomb
SciTegic.value.DoubleValue
20.280

@<SCITEGIC>MOL_PROPERTY
VdW
SciTegic.value.DoubleValue
0.927

@<SCITEGIC>MOL_PROPERTY
VdW6
SciTegic.value.DoubleValue
-8.843

@<SCITEGIC>MOL_PROPERTY
VdW12
SciTegic.value.DoubleValue
9.770

@<SCITEGIC>MOL_PROPERTY
Bond
SciTegic.value.DoubleValue
0.217

@<SCITEGIC>MOL_PROPERTY
Angle
SciTegic.value.DoubleValue
1.094

@<SCITEGIC>MOL_PROPERTY
Pdih
SciTegic.value.DoubleValue
2.153

@<SCITEGIC>MOL_PROPERTY
Idih
SciTegic.value.DoubleValue
0.000

@<SCITEGIC>MOL_PROPERTY
Tether
SciTegic.value.DoubleValue
0.000

@<TRIPOS>MOLECULE
guest-s15_vm2.mol2 : vm2 ligand conformer 8
          29          28           1
SMALL
USER_CHARGES
 
@<TRIPOS>ATOM
       1    C1      18.621449   18.917047   19.291994 C.3        1 MOL1        -0.2426
       2    H1      18.166548   17.971064   19.613580 H          1 MOL1         0.0959
       3    H2      17.874753   19.713150   19.409942 H          1 MOL1         0.0959
       4    H3      18.857097   18.831558   18.223253 H          1 MOL1         0.0959
       5    C2      19.894744   19.225818   20.107664 C.3        1 MOL1        -0.1410
       6    H4      20.345446   20.158384   19.740159 H          1 MOL1         0.0948
       7    H5      20.634712   18.429858   19.943974 H          1 MOL1         0.0948
       8    C3      19.590541   19.352143   21.616821 C.3        1 MOL1        -0.1435
       9    H6      18.852103   20.150079   21.775528 H          1 MOL1         0.0948
      10    H7      19.132921   18.418389   21.968804 H          1 MOL1         0.0948
      11    C4      20.867374   19.657639   22.436148 C.3        1 MOL1        -0.1435
      12    H8      21.352671   20.552297   22.022085 H          1 MOL1         0.0948
      13    H9      21.587178   18.835494   22.321047 H          1 MOL1         0.0948
      14    C5      20.592890   19.900608   23.940459 C.3        1 MOL1        -0.1435
      15    H10     21.531404   20.213201   24.419084 H          1 MOL1         0.0948
      16    H11     19.894270   20.741044   24.048103 H          1 MOL1         0.0948
      17    C6      20.043793   18.651627   24.676216 C.3        1 MOL1        -0.1500
      18    H12     20.700407   17.797188   24.464804 H          1 MOL1         0.0948
      19    H13     19.050839   18.390000   24.289305 H          1 MOL1         0.0948
      20    C7      19.958382   18.847540   26.205168 C.3        1 MOL1         0.1162
      21    H14     20.952015   19.123159   26.571725 H          1 MOL1         0.0910
      22    C8      19.537568   17.537342   26.889683 C.3        1 MOL1        -0.2491
      23    H15     18.542101   17.217437   26.557052 H          1 MOL1         0.0959
      24    H16     20.248502   16.733121   26.662612 H          1 MOL1         0.0959
      25    H17     19.510895   17.659825   27.979493 H          1 MOL1         0.0959
      26    N1      19.029259   19.966236   26.589847 N.4        1 MOL1        -0.5987
      27    H18     18.072414   19.780278   26.277859 H          1 MOL1         0.3605
      28    H19     19.322526   20.854538   26.174346 H          1 MOL1         0.3605
      29    H20     19.001320   20.096986   27.605118 H          1 MOL1         0.3605
@<TRIPOS>BOND
    1     1     2    1
    2     1     3    1
    3     1     4    1
    4     1     5    1
    5     5     6    1
    6     5     7    1
    7     5     8    1
    8     8     9    1
    9     8    10    1
   10     8    11    1
   11    11    12    1
   12    11    13    1
   13    11    14    1
   14    14    15    1
   15    14    16    1
   16    14    17    1
   17    17    18    1
   18    17    19    1
   19    17    20    1
   20    20    21    1
   21    20    22    1
   22    22    23    1
   23    22    24    1
   24    22    25    1
   25    20    26    1
   26    26    27    1
   27    26    28    1
   28    26    29    1
@<TRIPOS>SUBSTRUCTURE
       1 MOL1            1 RESIDUE      1      MOL     
@<SCITEGIC>MOL_PROPERTY
VM2 Rank
SciTegic.value.IntegerValue
8

@<SCITEGIC>MOL_PROPERTY
Conf_Id
SciTegic.value.IntegerValue
1224

@<SCITEGIC>MOL_PROPERTY
Probability
SciTegic.value.DoubleValue
3.51

@<SCITEGIC>MOL_PROPERTY
Sum Probability
SciTegic.value.DoubleValue
39.62

@<SCITEGIC>MOL_PROPERTY
Delta G
SciTegic.value.DoubleValue
0.663

@<SCITEGIC>MOL_PROPERTY
G
SciTegic.value.DoubleValue
34.365

@<SCITEGIC>MOL_PROPERTY
E
SciTegic.value.DoubleValue
-3.138

@<SCITEGIC>MOL_PROPERTY
-TS
SciTegic.value.DoubleValue
37.502

@<SCITEGIC>MOL_PROPERTY
U+W
SciTegic.value.DoubleValue
-27.282

@<SCITEGIC>MOL_PROPERTY
U
SciTegic.value.DoubleValue
24.741

@<SCITEGIC>MOL_PROPERTY
W
SciTegic.value.DoubleValue
-52.023

@<SCITEGIC>MOL_PROPERTY
W(PB)
SciTegic.value.DoubleValue
-54.548

@<SCITEGIC>MOL_PROPERTY
W(SA)
SciTegic.value.DoubleValue
2.525

@<SCITEGIC>MOL_PROPERTY
Valence
SciTegic.value.DoubleValue
3.693

@<SCITEGIC>MOL_PROPERTY
Coulomb
SciTegic.value.DoubleValue
19.919

@<SCITEGIC>MOL_PROPERTY
VdW
SciTegic.value.DoubleValue
1.129

@<SCITEGIC>MOL_PROPERTY
VdW6
SciTegic.value.DoubleValue
-8.666

@<SCITEGIC>MOL_PROPERTY
VdW12
SciTegic.value.DoubleValue
9.795

@<SCITEGIC>MOL_PROPERTY
Bond
SciTegic.value.DoubleValue
0.229

@<SCITEGIC>MOL_PROPERTY
Angle
SciTegic.value.DoubleValue
1.104

@<SCITEGIC>MOL_PROPERTY
Pdih
SciTegic.value.DoubleValue
2.360

@<SCITEGIC>MOL_PROPERTY
Idih
SciTegic.value.DoubleValue
0.000

@<SCITEGIC>MOL_PROPERTY
Tether
SciTegic.value.DoubleValue
0.000

