VeraChem MOL file


 20 19  0  0  0  0  0  0  0  0999 V2000     
   19.8543   19.1510   18.8169 C   0  0  0  0  0  0  0  0  0  0  0  0
   18.7731   18.9826   18.7279 H   0  0  0  0  0  0  0  0  0  0  0  0
   20.0355   20.2331   18.7809 H   0  0  0  0  0  0  0  0  0  0  0  0
   20.3379   18.6999   17.9408 H   0  0  0  0  0  0  0  0  0  0  0  0
   20.4073   18.5375   20.1216 C   0  0  0  0  0  0  0  0  0  0  0  0
   21.4948   18.6914   20.1651 H   0  0  0  0  0  0  0  0  0  0  0  0
   20.2423   17.4507   20.1126 H   0  0  0  0  0  0  0  0  0  0  0  0
   19.7440   19.1542   21.3727 C   0  0  0  0  0  0  0  0  0  0  0  0
   19.9122   20.2394   21.3827 H   0  0  0  0  0  0  0  0  0  0  0  0
   18.6579   18.9971   21.3302 H   0  0  0  0  0  0  0  0  0  0  0  0
   20.3006   18.5374   22.6694 C   0  0  0  0  0  0  0  0  0  0  0  0
   21.3792   18.7056   22.7224 H   0  0  0  0  0  0  0  0  0  0  0  0
   20.1208   17.4593   22.6697 H   0  0  0  0  0  0  0  0  0  0  0  0
   19.6776   19.1133   23.9259 N   0  3  0  0  0  0  0  0  0  0  0  0
   18.6547   18.9807   23.9099 H   0  0  0  0  0  0  0  0  0  0  0  0
   19.8198   20.1345   23.9587 H   0  0  0  0  0  0  0  0  0  0  0  0
   20.2823   18.4506   25.1565 C   0  0  0  0  0  0  0  0  0  0  0  0
   21.3590   18.6330   25.1710 H   0  0  0  0  0  0  0  0  0  0  0  0
   19.8251   18.8744   26.0534 H   0  0  0  0  0  0  0  0  0  0  0  0
   20.0900   17.3762   25.1179 H   0  0  0  0  0  0  0  0  0  0  0  0
  1  2  1  0  0  0  0
  1  3  1  0  0  0  0
  1  4  1  0  0  0  0
  1  5  1  0  0  0  0
  5  6  1  0  0  0  0
  5  7  1  0  0  0  0
  5  8  1  0  0  0  0
  8  9  1  0  0  0  0
  8 10  1  0  0  0  0
  8 11  1  0  0  0  0
 11 12  1  0  0  0  0
 11 13  1  0  0  0  0
 11 14  1  0  0  0  0
 14 15  1  0  0  0  0
 14 16  1  0  0  0  0
 14 17  1  0  0  0  0
 17 18  1  0  0  0  0
 17 19  1  0  0  0  0
 17 20  1  0  0  0  0
M  END
> <VM2 Rank>
1

> <Conf_Id>
97

> <Probability>
13.58

> <Sum Probability>
13.58

> <Delta G>
0.000

> <G>
53.937

> <E>
31.435

> <-TS>
22.502

> <U+W>
15.338

> <U>
69.277

> <W>
-53.938

> <W(PB)>
-55.889

> <W(SA)>
1.950

> <Valence>
0.846

> <Coulomb>
68.557

> <VdW>
-0.126

> <VdW6>
-3.008

> <VdW12>
2.882

> <Bond>
0.088

> <Angle>
0.332

> <Pdih>
0.426

> <Idih>
0.000

> <Tether>
0.000

$$$$
VeraChem MOL file


 20 19  0  0  0  0  0  0  0  0999 V2000     
   20.2447   19.5234   19.0575 C   0  0  0  0  0  0  0  0  0  0  0  0
   21.0844   20.2045   19.2476 H   0  0  0  0  0  0  0  0  0  0  0  0
   20.4069   19.0551   18.0781 H   0  0  0  0  0  0  0  0  0  0  0  0
   19.3265   20.1220   18.9959 H   0  0  0  0  0  0  0  0  0  0  0  0
   20.1366   18.4514   20.1636 C   0  0  0  0  0  0  0  0  0  0  0  0
   21.0549   17.8474   20.1778 H   0  0  0  0  0  0  0  0  0  0  0  0
   19.3110   17.7652   19.9275 H   0  0  0  0  0  0  0  0  0  0  0  0
   19.9075   19.0821   21.5548 C   0  0  0  0  0  0  0  0  0  0  0  0
   20.7340   19.7663   21.7862 H   0  0  0  0  0  0  0  0  0  0  0  0
   18.9878   19.6817   21.5411 H   0  0  0  0  0  0  0  0  0  0  0  0
   19.7994   18.0036   22.6525 C   0  0  0  0  0  0  0  0  0  0  0  0
   20.7302   17.4333   22.7055 H   0  0  0  0  0  0  0  0  0  0  0  0
   18.9939   17.3122   22.3922 H   0  0  0  0  0  0  0  0  0  0  0  0
   19.5006   18.5424   24.0421 N   0  3  0  0  0  0  0  0  0  0  0  0
   19.2826   17.7581   24.6768 H   0  0  0  0  0  0  0  0  0  0  0  0
   18.6431   19.1153   24.0266 H   0  0  0  0  0  0  0  0  0  0  0  0
   20.6772   19.3412   24.5924 C   0  0  0  0  0  0  0  0  0  0  0  0
   20.8594   20.2065   23.9521 H   0  0  0  0  0  0  0  0  0  0  0  0
   20.4391   19.6780   25.6037 H   0  0  0  0  0  0  0  0  0  0  0  0
   21.5643   18.7046   24.6162 H   0  0  0  0  0  0  0  0  0  0  0  0
  1  2  1  0  0  0  0
  1  3  1  0  0  0  0
  1  4  1  0  0  0  0
  1  5  1  0  0  0  0
  5  6  1  0  0  0  0
  5  7  1  0  0  0  0
  5  8  1  0  0  0  0
  8  9  1  0  0  0  0
  8 10  1  0  0  0  0
  8 11  1  0  0  0  0
 11 12  1  0  0  0  0
 11 13  1  0  0  0  0
 11 14  1  0  0  0  0
 14 15  1  0  0  0  0
 14 16  1  0  0  0  0
 14 17  1  0  0  0  0
 17 18  1  0  0  0  0
 17 19  1  0  0  0  0
 17 20  1  0  0  0  0
M  END
> <VM2 Rank>
2

> <Conf_Id>
37

> <Probability>
10.60

> <Sum Probability>
24.18

> <Delta G>
0.147

> <G>
54.084

> <E>
31.414

> <-TS>
22.671

> <U+W>
15.318

> <U>
69.657

> <W>
-54.337

> <W(PB)>
-56.236

> <W(SA)>
1.899

> <Valence>
1.137

> <Coulomb>
68.383

> <VdW>
0.138

> <VdW6>
-3.703

> <VdW12>
3.841

> <Bond>
0.125

> <Angle>
0.468

> <Pdih>
0.543

> <Idih>
0.000

> <Tether>
0.000

$$$$
VeraChem MOL file


 20 19  0  0  0  0  0  0  0  0999 V2000     
   19.4687   18.7548   19.0250 C   0  0  0  0  0  0  0  0  0  0  0  0
   18.8814   19.6811   18.9772 H   0  0  0  0  0  0  0  0  0  0  0  0
   19.9766   18.6288   18.0600 H   0  0  0  0  0  0  0  0  0  0  0  0
   18.7728   17.9152   19.1507 H   0  0  0  0  0  0  0  0  0  0  0  0
   20.4939   18.8052   20.1786 C   0  0  0  0  0  0  0  0  0  0  0  0
   21.1967   19.6326   20.0065 H   0  0  0  0  0  0  0  0  0  0  0  0
   21.0886   17.8807   20.1793 H   0  0  0  0  0  0  0  0  0  0  0  0
   19.8069   18.9825   21.5506 C   0  0  0  0  0  0  0  0  0  0  0  0
   19.2164   19.9083   21.5506 H   0  0  0  0  0  0  0  0  0  0  0  0
   19.1063   18.1543   21.7180 H   0  0  0  0  0  0  0  0  0  0  0  0
   20.8390   19.0333   22.6960 C   0  0  0  0  0  0  0  0  0  0  0  0
   21.5477   19.8418   22.4992 H   0  0  0  0  0  0  0  0  0  0  0  0
   21.3984   18.0952   22.7335 H   0  0  0  0  0  0  0  0  0  0  0  0
   20.2445   19.2793   24.0733 N   0  3  0  0  0  0  0  0  0  0  0  0
   19.6801   20.1426   24.0700 H   0  0  0  0  0  0  0  0  0  0  0  0
   21.0030   19.4625   24.7488 H   0  0  0  0  0  0  0  0  0  0  0  0
   19.4131   18.0889   24.5395 C   0  0  0  0  0  0  0  0  0  0  0  0
   20.0405   17.1952   24.5523 H   0  0  0  0  0  0  0  0  0  0  0  0
   19.0360   18.2880   25.5450 H   0  0  0  0  0  0  0  0  0  0  0  0
   18.5741   17.9427   23.8564 H   0  0  0  0  0  0  0  0  0  0  0  0
  1  2  1  0  0  0  0
  1  3  1  0  0  0  0
  1  4  1  0  0  0  0
  1  5  1  0  0  0  0
  5  6  1  0  0  0  0
  5  7  1  0  0  0  0
  5  8  1  0  0  0  0
  8  9  1  0  0  0  0
  8 10  1  0  0  0  0
  8 11  1  0  0  0  0
 11 12  1  0  0  0  0
 11 13  1  0  0  0  0
 11 14  1  0  0  0  0
 14 15  1  0  0  0  0
 14 16  1  0  0  0  0
 14 17  1  0  0  0  0
 17 18  1  0  0  0  0
 17 19  1  0  0  0  0
 17 20  1  0  0  0  0
M  END
> <VM2 Rank>
3

> <Conf_Id>
81

> <Probability>
9.13

> <Sum Probability>
33.31

> <Delta G>
0.237

> <G>
54.174

> <E>
31.503

> <-TS>
22.670

> <U+W>
15.407

> <U>
69.657

> <W>
-54.250

> <W(PB)>
-56.176

> <W(SA)>
1.926

> <Valence>
1.137

> <Coulomb>
68.383

> <VdW>
0.138

> <VdW6>
-3.703

> <VdW12>
3.841

> <Bond>
0.125

> <Angle>
0.468

> <Pdih>
0.543

> <Idih>
0.000

> <Tether>
0.000

$$$$
VeraChem MOL file


 20 19  0  0  0  0  0  0  0  0999 V2000     
   20.8667   19.3664   19.5193 C   0  0  0  0  0  0  0  0  0  0  0  0
   20.5577   20.4198   19.5220 H   0  0  0  0  0  0  0  0  0  0  0  0
   21.7364   19.2626   20.1803 H   0  0  0  0  0  0  0  0  0  0  0  0
   21.1933   19.1163   18.5016 H   0  0  0  0  0  0  0  0  0  0  0  0
   19.7057   18.4446   19.9580 C   0  0  0  0  0  0  0  0  0  0  0  0
   20.0429   17.3984   19.9527 H   0  0  0  0  0  0  0  0  0  0  0  0
   18.8958   18.5113   19.2180 H   0  0  0  0  0  0  0  0  0  0  0  0
   19.1424   18.8036   21.3530 C   0  0  0  0  0  0  0  0  0  0  0  0
   18.7742   19.8381   21.3461 H   0  0  0  0  0  0  0  0  0  0  0  0
   18.2762   18.1626   21.5643 H   0  0  0  0  0  0  0  0  0  0  0  0
   20.1840   18.6323   22.4760 C   0  0  0  0  0  0  0  0  0  0  0  0
   21.0330   19.2958   22.2953 H   0  0  0  0  0  0  0  0  0  0  0  0
   20.5484   17.6020   22.4843 H   0  0  0  0  0  0  0  0  0  0  0  0
   19.6384   18.9445   23.8556 N   0  3  0  0  0  0  0  0  0  0  0  0
   18.8280   18.3411   24.0636 H   0  0  0  0  0  0  0  0  0  0  0  0
   19.2749   19.9094   23.8853 H   0  0  0  0  0  0  0  0  0  0  0  0
   20.7289   18.7527   24.9011 C   0  0  0  0  0  0  0  0  0  0  0  0
   21.0741   17.7168   24.8752 H   0  0  0  0  0  0  0  0  0  0  0  0
   21.5608   19.4252   24.6811 H   0  0  0  0  0  0  0  0  0  0  0  0
   20.3227   18.9806   25.8891 H   0  0  0  0  0  0  0  0  0  0  0  0
  1  2  1  0  0  0  0
  1  3  1  0  0  0  0
  1  4  1  0  0  0  0
  1  5  1  0  0  0  0
  5  6  1  0  0  0  0
  5  7  1  0  0  0  0
  5  8  1  0  0  0  0
  8  9  1  0  0  0  0
  8 10  1  0  0  0  0
  8 11  1  0  0  0  0
 11 12  1  0  0  0  0
 11 13  1  0  0  0  0
 11 14  1  0  0  0  0
 14 15  1  0  0  0  0
 14 16  1  0  0  0  0
 14 17  1  0  0  0  0
 17 18  1  0  0  0  0
 17 19  1  0  0  0  0
 17 20  1  0  0  0  0
M  END
> <VM2 Rank>
4

> <Conf_Id>
279

> <Probability>
7.34

> <Sum Probability>
40.65

> <Delta G>
0.366

> <G>
54.304

> <E>
31.705

> <-TS>
22.599

> <U+W>
15.608

> <U>
69.798

> <W>
-54.190

> <W(PB)>
-56.122

> <W(SA)>
1.932

> <Valence>
1.134

> <Coulomb>
68.735

> <VdW>
-0.070

> <VdW6>
-3.565

> <VdW12>
3.494

> <Bond>
0.108

> <Angle>
0.456

> <Pdih>
0.569

> <Idih>
0.000

> <Tether>
0.000

$$$$
VeraChem MOL file


 20 19  0  0  0  0  0  0  0  0999 V2000     
   19.6007   18.1122   19.4663 C   0  0  0  0  0  0  0  0  0  0  0  0
   19.6692   17.2146   20.0938 H   0  0  0  0  0  0  0  0  0  0  0  0
   18.5508   18.4315   19.4379 H   0  0  0  0  0  0  0  0  0  0  0  0
   19.8910   17.8258   18.4471 H   0  0  0  0  0  0  0  0  0  0  0  0
   20.5130   19.2444   19.9918 C   0  0  0  0  0  0  0  0  0  0  0  0
   20.4843   20.0852   19.2845 H   0  0  0  0  0  0  0  0  0  0  0  0
   21.5556   18.8971   20.0161 H   0  0  0  0  0  0  0  0  0  0  0  0
   20.1001   19.7524   21.3931 C   0  0  0  0  0  0  0  0  0  0  0  0
   20.7390   20.6024   21.6675 H   0  0  0  0  0  0  0  0  0  0  0  0
   19.0700   20.1312   21.3585 H   0  0  0  0  0  0  0  0  0  0  0  0
   20.2150   18.6631   22.4773 C   0  0  0  0  0  0  0  0  0  0  0  0
   21.2409   18.2879   22.5132 H   0  0  0  0  0  0  0  0  0  0  0  0
   19.5524   17.8293   22.2333 H   0  0  0  0  0  0  0  0  0  0  0  0
   19.8497   19.1536   23.8645 N   0  3  0  0  0  0  0  0  0  0  0  0
   18.8876   19.5258   23.8691 H   0  0  0  0  0  0  0  0  0  0  0  0
   20.4509   19.9481   24.1317 H   0  0  0  0  0  0  0  0  0  0  0  0
   19.9874   18.0183   24.8700 C   0  0  0  0  0  0  0  0  0  0  0  0
   21.0203   17.6633   24.8727 H   0  0  0  0  0  0  0  0  0  0  0  0
   19.7216   18.3850   25.8639 H   0  0  0  0  0  0  0  0  0  0  0  0
   19.3174   17.2035   24.5870 H   0  0  0  0  0  0  0  0  0  0  0  0
  1  2  1  0  0  0  0
  1  3  1  0  0  0  0
  1  4  1  0  0  0  0
  1  5  1  0  0  0  0
  5  6  1  0  0  0  0
  5  7  1  0  0  0  0
  5  8  1  0  0  0  0
  8  9  1  0  0  0  0
  8 10  1  0  0  0  0
  8 11  1  0  0  0  0
 11 12  1  0  0  0  0
 11 13  1  0  0  0  0
 11 14  1  0  0  0  0
 14 15  1  0  0  0  0
 14 16  1  0  0  0  0
 14 17  1  0  0  0  0
 17 18  1  0  0  0  0
 17 19  1  0  0  0  0
 17 20  1  0  0  0  0
M  END
> <VM2 Rank>
5

> <Conf_Id>
34

> <Probability>
7.27

> <Sum Probability>
47.91

> <Delta G>
0.373

> <G>
54.310

> <E>
31.711

> <-TS>
22.599

> <U+W>
15.615

> <U>
69.798

> <W>
-54.184

> <W(PB)>
-56.116

> <W(SA)>
1.933

> <Valence>
1.134

> <Coulomb>
68.735

> <VdW>
-0.070

> <VdW6>
-3.565

> <VdW12>
3.494

> <Bond>
0.108

> <Angle>
0.456

> <Pdih>
0.569

> <Idih>
0.000

> <Tether>
0.000

$$$$
VeraChem MOL file


 20 19  0  0  0  0  0  0  0  0999 V2000     
   19.6845   18.8158   18.9888 C   0  0  0  0  0  0  0  0  0  0  0  0
   18.8182   19.4884   18.9412 H   0  0  0  0  0  0  0  0  0  0  0  0
   20.5416   19.3302   18.5351 H   0  0  0  0  0  0  0  0  0  0  0  0
   19.4592   17.9337   18.3755 H   0  0  0  0  0  0  0  0  0  0  0  0
   19.9895   18.4042   20.4454 C   0  0  0  0  0  0  0  0  0  0  0  0
   20.8398   17.7076   20.4565 H   0  0  0  0  0  0  0  0  0  0  0  0
   19.1273   17.8585   20.8519 H   0  0  0  0  0  0  0  0  0  0  0  0
   20.3100   19.6310   21.3317 C   0  0  0  0  0  0  0  0  0  0  0  0
   21.1481   20.1874   20.8914 H   0  0  0  0  0  0  0  0  0  0  0  0
   19.4536   20.3182   21.3480 H   0  0  0  0  0  0  0  0  0  0  0  0
   20.6878   19.2436   22.7755 C   0  0  0  0  0  0  0  0  0  0  0  0
   20.9885   20.1404   23.3232 H   0  0  0  0  0  0  0  0  0  0  0  0
   21.5357   18.5541   22.7609 H   0  0  0  0  0  0  0  0  0  0  0  0
   19.5633   18.5876   23.5547 N   0  3  0  0  0  0  0  0  0  0  0  0
   19.2486   17.7326   23.0728 H   0  0  0  0  0  0  0  0  0  0  0  0
   18.7396   19.2080   23.5803 H   0  0  0  0  0  0  0  0  0  0  0  0
   20.0308   18.2619   24.9669 C   0  0  0  0  0  0  0  0  0  0  0  0
   19.2126   17.7906   25.5160 H   0  0  0  0  0  0  0  0  0  0  0  0
   20.8814   17.5788   24.9159 H   0  0  0  0  0  0  0  0  0  0  0  0
   20.3277   19.1849   25.4695 H   0  0  0  0  0  0  0  0  0  0  0  0
  1  2  1  0  0  0  0
  1  3  1  0  0  0  0
  1  4  1  0  0  0  0
  1  5  1  0  0  0  0
  5  6  1  0  0  0  0
  5  7  1  0  0  0  0
  5  8  1  0  0  0  0
  8  9  1  0  0  0  0
  8 10  1  0  0  0  0
  8 11  1  0  0  0  0
 11 12  1  0  0  0  0
 11 13  1  0  0  0  0
 11 14  1  0  0  0  0
 14 15  1  0  0  0  0
 14 16  1  0  0  0  0
 14 17  1  0  0  0  0
 17 18  1  0  0  0  0
 17 19  1  0  0  0  0
 17 20  1  0  0  0  0
M  END
> <VM2 Rank>
6

> <Conf_Id>
228

> <Probability>
6.88

> <Sum Probability>
54.80

> <Delta G>
0.405

> <G>
54.342

> <E>
31.753

> <-TS>
22.589

> <U+W>
15.657

> <U>
69.962

> <W>
-54.305

> <W(PB)>
-56.223

> <W(SA)>
1.918

> <Valence>
0.982

> <Coulomb>
69.057

> <VdW>
-0.078

> <VdW6>
-3.548

> <VdW12>
3.471

> <Bond>
0.105

> <Angle>
0.408

> <Pdih>
0.469

> <Idih>
0.000

> <Tether>
0.000

$$$$
VeraChem MOL file


 20 19  0  0  0  0  0  0  0  0999 V2000     
   20.1835   19.3100   19.0098 C   0  0  0  0  0  0  0  0  0  0  0  0
   19.6812   18.4781   18.4990 H   0  0  0  0  0  0  0  0  0  0  0  0
   19.5210   20.1845   18.9707 H   0  0  0  0  0  0  0  0  0  0  0  0
   21.0926   19.5515   18.4440 H   0  0  0  0  0  0  0  0  0  0  0  0
   20.5304   18.9398   20.4681 C   0  0  0  0  0  0  0  0  0  0  0  0
   21.0660   19.7785   20.9332 H   0  0  0  0  0  0  0  0  0  0  0  0
   21.2184   18.0826   20.4723 H   0  0  0  0  0  0  0  0  0  0  0  0
   19.2645   18.5954   21.2879 C   0  0  0  0  0  0  0  0  0  0  0  0
   18.5847   19.4575   21.3115 H   0  0  0  0  0  0  0  0  0  0  0  0
   18.7198   17.7824   20.7897 H   0  0  0  0  0  0  0  0  0  0  0  0
   19.5872   18.1535   22.7294 C   0  0  0  0  0  0  0  0  0  0  0  0
   20.2692   17.2998   22.7079 H   0  0  0  0  0  0  0  0  0  0  0  0
   18.6654   17.8396   23.2259 H   0  0  0  0  0  0  0  0  0  0  0  0
   20.2194   19.2374   23.5822 N   0  3  0  0  0  0  0  0  0  0  0  0
   19.6057   20.0658   23.6166 H   0  0  0  0  0  0  0  0  0  0  0  0
   21.0967   19.5631   23.1501 H   0  0  0  0  0  0  0  0  0  0  0  0
   20.4812   18.7079   24.9857 C   0  0  0  0  0  0  0  0  0  0  0  0
   21.1583   17.8530   24.9274 H   0  0  0  0  0  0  0  0  0  0  0  0
   20.9360   19.4974   25.5881 H   0  0  0  0  0  0  0  0  0  0  0  0
   19.5352   18.3999   25.4363 H   0  0  0  0  0  0  0  0  0  0  0  0
  1  2  1  0  0  0  0
  1  3  1  0  0  0  0
  1  4  1  0  0  0  0
  1  5  1  0  0  0  0
  5  6  1  0  0  0  0
  5  7  1  0  0  0  0
  5  8  1  0  0  0  0
  8  9  1  0  0  0  0
  8 10  1  0  0  0  0
  8 11  1  0  0  0  0
 11 12  1  0  0  0  0
 11 13  1  0  0  0  0
 11 14  1  0  0  0  0
 14 15  1  0  0  0  0
 14 16  1  0  0  0  0
 14 17  1  0  0  0  0
 17 18  1  0  0  0  0
 17 19  1  0  0  0  0
 17 20  1  0  0  0  0
M  END
> <VM2 Rank>
7

> <Conf_Id>
245

> <Probability>
6.43

> <Sum Probability>
61.22

> <Delta G>
0.446

> <G>
54.383

> <E>
31.794

> <-TS>
22.589

> <U+W>
15.698

> <U>
69.962

> <W>
-54.265

> <W(PB)>
-56.166

> <W(SA)>
1.901

> <Valence>
0.982

> <Coulomb>
69.058

> <VdW>
-0.077

> <VdW6>
-3.548

> <VdW12>
3.471

> <Bond>
0.105

> <Angle>
0.408

> <Pdih>
0.469

> <Idih>
0.000

> <Tether>
0.000

$$$$
VeraChem MOL file


 20 19  0  0  0  0  0  0  0  0999 V2000     
   19.9202   18.3276   19.2182 C   0  0  0  0  0  0  0  0  0  0  0  0
   19.1809   17.5281   19.3569 H   0  0  0  0  0  0  0  0  0  0  0  0
   19.4297   19.1594   18.6960 H   0  0  0  0  0  0  0  0  0  0  0  0
   20.7136   17.9421   18.5649 H   0  0  0  0  0  0  0  0  0  0  0  0
   20.5031   18.7868   20.5722 C   0  0  0  0  0  0  0  0  0  0  0  0
   21.2614   19.5633   20.3981 H   0  0  0  0  0  0  0  0  0  0  0  0
   21.0180   17.9401   21.0463 H   0  0  0  0  0  0  0  0  0  0  0  0
   19.4038   19.3332   21.5132 C   0  0  0  0  0  0  0  0  0  0  0  0
   18.8683   20.1492   21.0101 H   0  0  0  0  0  0  0  0  0  0  0  0
   18.6580   18.5529   21.7124 H   0  0  0  0  0  0  0  0  0  0  0  0
   19.9679   19.8726   22.8464 C   0  0  0  0  0  0  0  0  0  0  0  0
   19.1520   20.2798   23.4490 H   0  0  0  0  0  0  0  0  0  0  0  0
   20.6648   20.6870   22.6330 H   0  0  0  0  0  0  0  0  0  0  0  0
   20.7069   18.8541   23.7014 N   0  3  0  0  0  0  0  0  0  0  0  0
   21.1548   19.3330   24.4985 H   0  0  0  0  0  0  0  0  0  0  0  0
   21.4863   18.4409   23.1686 H   0  0  0  0  0  0  0  0  0  0  0  0
   19.7642   17.7698   24.2116 C   0  0  0  0  0  0  0  0  0  0  0  0
   19.3450   17.2259   23.3628 H   0  0  0  0  0  0  0  0  0  0  0  0
   20.3228   17.0805   24.8486 H   0  0  0  0  0  0  0  0  0  0  0  0
   18.9608   18.2339   24.7876 H   0  0  0  0  0  0  0  0  0  0  0  0
  1  2  1  0  0  0  0
  1  3  1  0  0  0  0
  1  4  1  0  0  0  0
  1  5  1  0  0  0  0
  5  6  1  0  0  0  0
  5  7  1  0  0  0  0
  5  8  1  0  0  0  0
  8  9  1  0  0  0  0
  8 10  1  0  0  0  0
  8 11  1  0  0  0  0
 11 12  1  0  0  0  0
 11 13  1  0  0  0  0
 11 14  1  0  0  0  0
 14 15  1  0  0  0  0
 14 16  1  0  0  0  0
 14 17  1  0  0  0  0
 17 18  1  0  0  0  0
 17 19  1  0  0  0  0
 17 20  1  0  0  0  0
M  END
> <VM2 Rank>
8

> <Conf_Id>
297

> <Probability>
5.28

> <Sum Probability>
66.51

> <Delta G>
0.563

> <G>
54.500

> <E>
31.687

> <-TS>
22.812

> <U+W>
15.591

> <U>
70.298

> <W>
-54.707

> <W(PB)>
-56.585

> <W(SA)>
1.878

> <Valence>
1.245

> <Coulomb>
68.933

> <VdW>
0.120

> <VdW6>
-4.430

> <VdW12>
4.550

> <Bond>
0.148

> <Angle>
0.587

> <Pdih>
0.509

> <Idih>
0.000

> <Tether>
0.000

$$$$
