VeraChem MOL file


 16 15  0  0  0  0  0  0  0  0999 V2000     
   20.0718   19.4318   24.6567 C   0  0  0  0  0  0  0  0  0  0  0  0
   20.4841   20.5080   25.0408 O   0  5  0  0  0  0  0  0  0  0  0  0
   19.2403   18.7784   25.2547 O   0  0  0  0  0  0  0  0  0  0  0  0
   20.6140   18.8794   23.3431 C   0  0  0  0  0  0  0  0  0  0  0  0
   20.6286   17.7851   23.4135 H   0  0  0  0  0  0  0  0  0  0  0  0
   21.6540   19.2111   23.2371 H   0  0  0  0  0  0  0  0  0  0  0  0
   19.7839   19.3242   22.1138 C   0  0  0  0  0  0  0  0  0  0  0  0
   18.7430   18.9958   22.2406 H   0  0  0  0  0  0  0  0  0  0  0  0
   19.7683   20.4219   22.0642 H   0  0  0  0  0  0  0  0  0  0  0  0
   20.3534   18.7522   20.7989 C   0  0  0  0  0  0  0  0  0  0  0  0
   20.3686   17.6545   20.8479 H   0  0  0  0  0  0  0  0  0  0  0  0
   21.3942   19.0810   20.6715 H   0  0  0  0  0  0  0  0  0  0  0  0
   19.5224   19.1989   19.5799 C   0  0  0  0  0  0  0  0  0  0  0  0
   19.5162   20.2930   19.4885 H   0  0  0  0  0  0  0  0  0  0  0  0
   18.4830   18.8560   19.6662 H   0  0  0  0  0  0  0  0  0  0  0  0
   19.9406   18.7838   18.6537 H   0  0  0  0  0  0  0  0  0  0  0  0
  1  2  1  0  0  0  0
  1  3  2  0  0  0  0
  1  4  1  0  0  0  0
  4  5  1  0  0  0  0
  4  6  1  0  0  0  0
  4  7  1  0  0  0  0
  7  8  1  0  0  0  0
  7  9  1  0  0  0  0
  7 10  1  0  0  0  0
 10 11  1  0  0  0  0
 10 12  1  0  0  0  0
 10 13  1  0  0  0  0
 13 14  1  0  0  0  0
 13 15  1  0  0  0  0
 13 16  1  0  0  0  0
M  END
> <VM2 Rank>
1

> <Conf_Id>
70

> <Probability>
57.85

> <Sum Probability>
57.85

> <Delta G>
0.000

> <G>
-35.660

> <E>
-45.569

> <-TS>
9.910

> <U+W>
-58.089

> <U>
6.298

> <W>
-64.387

> <W(PB)>
-66.329

> <W(SA)>
1.942

> <Valence>
6.246

> <Coulomb>
-0.408

> <VdW>
0.460

> <VdW6>
-4.207

> <VdW12>
4.667

> <Bond>
0.072

> <Angle>
2.246

> <Pdih>
3.928

> <Idih>
0.001

> <Tether>
0.000

$$$$
VeraChem MOL file


 16 15  0  0  0  0  0  0  0  0999 V2000     
   19.9235   19.5294   24.5490 C   0  0  0  0  0  0  0  0  0  0  0  0
   20.4257   20.5944   24.8481 O   0  5  0  0  0  0  0  0  0  0  0  0
   19.7700   18.6152   25.3343 O   0  0  0  0  0  0  0  0  0  0  0  0
   19.4800   19.3211   23.1052 C   0  0  0  0  0  0  0  0  0  0  0  0
   19.1446   20.2889   22.7155 H   0  0  0  0  0  0  0  0  0  0  0  0
   18.6105   18.6529   23.1091 H   0  0  0  0  0  0  0  0  0  0  0  0
   20.6019   18.7326   22.2107 C   0  0  0  0  0  0  0  0  0  0  0  0
   21.4502   19.4303   22.1803 H   0  0  0  0  0  0  0  0  0  0  0  0
   20.9756   17.8092   22.6745 H   0  0  0  0  0  0  0  0  0  0  0  0
   20.1370   18.4126   20.7713 C   0  0  0  0  0  0  0  0  0  0  0  0
   19.2962   17.7058   20.8012 H   0  0  0  0  0  0  0  0  0  0  0  0
   20.9534   17.9021   20.2418 H   0  0  0  0  0  0  0  0  0  0  0  0
   19.7318   19.6678   19.9693 C   0  0  0  0  0  0  0  0  0  0  0  0
   18.8447   20.1493   20.3995 H   0  0  0  0  0  0  0  0  0  0  0  0
   19.4940   19.3998   18.9317 H   0  0  0  0  0  0  0  0  0  0  0  0
   20.5477   20.4021   19.9502 H   0  0  0  0  0  0  0  0  0  0  0  0
  1  2  1  0  0  0  0
  1  3  2  0  0  0  0
  1  4  1  0  0  0  0
  4  5  1  0  0  0  0
  4  6  1  0  0  0  0
  4  7  1  0  0  0  0
  7  8  1  0  0  0  0
  7  9  1  0  0  0  0
  7 10  1  0  0  0  0
 10 11  1  0  0  0  0
 10 12  1  0  0  0  0
 10 13  1  0  0  0  0
 13 14  1  0  0  0  0
 13 15  1  0  0  0  0
 13 16  1  0  0  0  0
M  END
> <VM2 Rank>
2

> <Conf_Id>
17

> <Probability>
13.52

> <Sum Probability>
71.37

> <Delta G>
0.866

> <G>
-34.793

> <E>
-44.817

> <-TS>
10.023

> <U+W>
-57.336

> <U>
7.263

> <W>
-64.599

> <W(PB)>
-66.503

> <W(SA)>
1.904

> <Valence>
6.734

> <Coulomb>
-0.068

> <VdW>
0.598

> <VdW6>
-4.819

> <VdW12>
5.417

> <Bond>
0.107

> <Angle>
2.469

> <Pdih>
4.157

> <Idih>
0.001

> <Tether>
0.000

$$$$
VeraChem MOL file


 16 15  0  0  0  0  0  0  0  0999 V2000     
   19.9195   19.5238   24.5497 C   0  0  0  0  0  0  0  0  0  0  0  0
   20.8187   20.0735   25.1539 O   0  5  0  0  0  0  0  0  0  0  0  0
   19.1179   18.7757   25.0730 O   0  0  0  0  0  0  0  0  0  0  0  0
   19.8032   19.7705   23.0496 C   0  0  0  0  0  0  0  0  0  0  0  0
   20.1479   20.7912   22.8447 H   0  0  0  0  0  0  0  0  0  0  0  0
   18.7406   19.7270   22.7850 H   0  0  0  0  0  0  0  0  0  0  0  0
   20.6165   18.7530   22.2082 C   0  0  0  0  0  0  0  0  0  0  0  0
   21.6585   18.7591   22.5570 H   0  0  0  0  0  0  0  0  0  0  0  0
   20.2342   17.7389   22.3895 H   0  0  0  0  0  0  0  0  0  0  0  0
   20.5985   19.0545   20.6919 C   0  0  0  0  0  0  0  0  0  0  0  0
   21.2817   18.3588   20.1853 H   0  0  0  0  0  0  0  0  0  0  0  0
   20.9918   20.0642   20.5095 H   0  0  0  0  0  0  0  0  0  0  0  0
   19.1957   18.9220   20.0616 C   0  0  0  0  0  0  0  0  0  0  0  0
   18.7698   17.9290   20.2560 H   0  0  0  0  0  0  0  0  0  0  0  0
   19.2494   19.0595   18.9738 H   0  0  0  0  0  0  0  0  0  0  0  0
   18.5052   19.6770   20.4579 H   0  0  0  0  0  0  0  0  0  0  0  0
  1  2  1  0  0  0  0
  1  3  2  0  0  0  0
  1  4  1  0  0  0  0
  4  5  1  0  0  0  0
  4  6  1  0  0  0  0
  4  7  1  0  0  0  0
  7  8  1  0  0  0  0
  7  9  1  0  0  0  0
  7 10  1  0  0  0  0
 10 11  1  0  0  0  0
 10 12  1  0  0  0  0
 10 13  1  0  0  0  0
 13 14  1  0  0  0  0
 13 15  1  0  0  0  0
 13 16  1  0  0  0  0
M  END
> <VM2 Rank>
3

> <Conf_Id>
148

> <Probability>
13.40

> <Sum Probability>
84.77

> <Delta G>
0.872

> <G>
-34.788

> <E>
-44.811

> <-TS>
10.023

> <U+W>
-57.331

> <U>
7.263

> <W>
-64.594

> <W(PB)>
-66.513

> <W(SA)>
1.920

> <Valence>
6.734

> <Coulomb>
-0.068

> <VdW>
0.598

> <VdW6>
-4.819

> <VdW12>
5.417

> <Bond>
0.107

> <Angle>
2.469

> <Pdih>
4.157

> <Idih>
0.001

> <Tether>
0.000

$$$$
VeraChem MOL file


 16 15  0  0  0  0  0  0  0  0999 V2000     
   20.1243   19.3850   24.4356 C   0  0  0  0  0  0  0  0  0  0  0  0
   21.2505   19.7943   24.6363 O   0  5  0  0  0  0  0  0  0  0  0  0
   19.6401   18.4373   25.0219 O   0  0  0  0  0  0  0  0  0  0  0  0
   19.2613   20.1135   23.4089 C   0  0  0  0  0  0  0  0  0  0  0  0
   19.6865   21.1099   23.2373 H   0  0  0  0  0  0  0  0  0  0  0  0
   18.2727   20.2640   23.8587 H   0  0  0  0  0  0  0  0  0  0  0  0
   19.1073   19.3586   22.0630 C   0  0  0  0  0  0  0  0  0  0  0  0
   18.7075   18.3528   22.2532 H   0  0  0  0  0  0  0  0  0  0  0  0
   18.3660   19.8816   21.4437 H   0  0  0  0  0  0  0  0  0  0  0  0
   20.4371   19.2543   21.2851 C   0  0  0  0  0  0  0  0  0  0  0  0
   21.1810   18.7143   21.8873 H   0  0  0  0  0  0  0  0  0  0  0  0
   20.8419   20.2601   21.1065 H   0  0  0  0  0  0  0  0  0  0  0  0
   20.2494   18.5300   19.9373 C   0  0  0  0  0  0  0  0  0  0  0  0
   19.8741   17.5095   20.0891 H   0  0  0  0  0  0  0  0  0  0  0  0
   21.2033   18.4637   19.3980 H   0  0  0  0  0  0  0  0  0  0  0  0
   19.5356   19.0667   19.2987 H   0  0  0  0  0  0  0  0  0  0  0  0
  1  2  1  0  0  0  0
  1  3  2  0  0  0  0
  1  4  1  0  0  0  0
  4  5  1  0  0  0  0
  4  6  1  0  0  0  0
  4  7  1  0  0  0  0
  7  8  1  0  0  0  0
  7  9  1  0  0  0  0
  7 10  1  0  0  0  0
 10 11  1  0  0  0  0
 10 12  1  0  0  0  0
 10 13  1  0  0  0  0
 13 14  1  0  0  0  0
 13 15  1  0  0  0  0
 13 16  1  0  0  0  0
M  END
> <VM2 Rank>
4

> <Conf_Id>
85

> <Probability>
5.57

> <Sum Probability>
90.34

> <Delta G>
1.395

> <G>
-34.265

> <E>
-44.483

> <-TS>
10.219

> <U+W>
-57.002

> <U>
8.277

> <W>
-65.279

> <W(PB)>
-67.160

> <W(SA)>
1.881

> <Valence>
6.513

> <Coulomb>
1.429

> <VdW>
0.335

> <VdW6>
-5.021

> <VdW12>
5.356

> <Bond>
0.092

> <Angle>
2.417

> <Pdih>
4.002

> <Idih>
0.001

> <Tether>
0.000

$$$$
VeraChem MOL file


 16 15  0  0  0  0  0  0  0  0999 V2000     
   20.1071   19.3611   24.4385 C   0  0  0  0  0  0  0  0  0  0  0  0
   20.9072   20.1993   24.8040 O   0  5  0  0  0  0  0  0  0  0  0  0
   20.1124   18.2116   24.8321 O   0  0  0  0  0  0  0  0  0  0  0  0
   19.0236   19.7830   23.4497 C   0  0  0  0  0  0  0  0  0  0  0  0
   18.6132   20.7374   23.8001 H   0  0  0  0  0  0  0  0  0  0  0  0
   18.2068   19.0521   23.4917 H   0  0  0  0  0  0  0  0  0  0  0  0
   19.5259   19.9406   21.9910 C   0  0  0  0  0  0  0  0  0  0  0  0
   18.7221   20.3768   21.3825 H   0  0  0  0  0  0  0  0  0  0  0  0
   20.3619   20.6535   21.9687 H   0  0  0  0  0  0  0  0  0  0  0  0
   19.9659   18.5989   21.3661 C   0  0  0  0  0  0  0  0  0  0  0  0
   19.1328   17.8832   21.4005 H   0  0  0  0  0  0  0  0  0  0  0  0
   20.7845   18.1627   21.9555 H   0  0  0  0  0  0  0  0  0  0  0  0
   20.4280   18.7785   19.9065 C   0  0  0  0  0  0  0  0  0  0  0  0
   19.6180   19.1815   19.2845 H   0  0  0  0  0  0  0  0  0  0  0  0
   20.7378   17.8165   19.4780 H   0  0  0  0  0  0  0  0  0  0  0  0
   21.2814   19.4667   19.8469 H   0  0  0  0  0  0  0  0  0  0  0  0
  1  2  1  0  0  0  0
  1  3  2  0  0  0  0
  1  4  1  0  0  0  0
  4  5  1  0  0  0  0
  4  6  1  0  0  0  0
  4  7  1  0  0  0  0
  7  8  1  0  0  0  0
  7  9  1  0  0  0  0
  7 10  1  0  0  0  0
 10 11  1  0  0  0  0
 10 12  1  0  0  0  0
 10 13  1  0  0  0  0
 13 14  1  0  0  0  0
 13 15  1  0  0  0  0
 13 16  1  0  0  0  0
M  END
> <VM2 Rank>
5

> <Conf_Id>
84

> <Probability>
4.82

> <Sum Probability>
95.16

> <Delta G>
1.482

> <G>
-34.178

> <E>
-44.396

> <-TS>
10.218

> <U+W>
-56.915

> <U>
8.277

> <W>
-65.192

> <W(PB)>
-67.082

> <W(SA)>
1.890

> <Valence>
6.513

> <Coulomb>
1.429

> <VdW>
0.335

> <VdW6>
-5.021

> <VdW12>
5.356

> <Bond>
0.092

> <Angle>
2.417

> <Pdih>
4.002

> <Idih>
0.001

> <Tether>
0.000

$$$$
VeraChem MOL file


 16 15  0  0  0  0  0  0  0  0999 V2000     
   20.0196   19.3905   24.6749 C   0  0  0  0  0  0  0  0  0  0  0  0
   20.1520   20.5987   24.6516 O   0  5  0  0  0  0  0  0  0  0  0  0
   19.9478   18.7520   25.7057 O   0  0  0  0  0  0  0  0  0  0  0  0
   19.9368   18.6093   23.3624 C   0  0  0  0  0  0  0  0  0  0  0  0
   18.9894   18.0574   23.3693 H   0  0  0  0  0  0  0  0  0  0  0  0
   20.7417   17.8649   23.3733 H   0  0  0  0  0  0  0  0  0  0  0  0
   20.0339   19.4666   22.0724 C   0  0  0  0  0  0  0  0  0  0  0  0
   19.2284   20.2140   22.0698 H   0  0  0  0  0  0  0  0  0  0  0  0
   20.9824   20.0213   22.0738 H   0  0  0  0  0  0  0  0  0  0  0  0
   19.9415   18.5995   20.7993 C   0  0  0  0  0  0  0  0  0  0  0  0
   18.9924   18.0456   20.7959 H   0  0  0  0  0  0  0  0  0  0  0  0
   20.7476   17.8527   20.7998 H   0  0  0  0  0  0  0  0  0  0  0  0
   20.0385   19.4565   19.5217 C   0  0  0  0  0  0  0  0  0  0  0  0
   19.2247   20.1923   19.4796 H   0  0  0  0  0  0  0  0  0  0  0  0
   19.9711   18.8250   18.6262 H   0  0  0  0  0  0  0  0  0  0  0  0
   20.9928   19.9981   19.4836 H   0  0  0  0  0  0  0  0  0  0  0  0
  1  2  1  0  0  0  0
  1  3  2  0  0  0  0
  1  4  1  0  0  0  0
  4  5  1  0  0  0  0
  4  6  1  0  0  0  0
  4  7  1  0  0  0  0
  7  8  1  0  0  0  0
  7  9  1  0  0  0  0
  7 10  1  0  0  0  0
 10 11  1  0  0  0  0
 10 12  1  0  0  0  0
 10 13  1  0  0  0  0
 13 14  1  0  0  0  0
 13 15  1  0  0  0  0
 13 16  1  0  0  0  0
M  END
> <VM2 Rank>
6

> <Conf_Id>
0

> <Probability>
3.39

> <Sum Probability>
98.55

> <Delta G>
1.691

> <G>
-33.969

> <E>
-44.385

> <-TS>
10.416

> <U+W>
-56.904

> <U>
7.329

> <W>
-64.233

> <W(PB)>
-66.148

> <W(SA)>
1.915

> <Valence>
6.755

> <Coulomb>
-0.421

> <VdW>
0.995

> <VdW6>
-4.495

> <VdW12>
5.490

> <Bond>
0.106

> <Angle>
2.715

> <Pdih>
3.934

> <Idih>
0.000

> <Tether>
0.000

$$$$
VeraChem MOL file


 16 15  0  0  0  0  0  0  0  0999 V2000     
   20.0626   19.5193   24.2841 C   0  0  0  0  0  0  0  0  0  0  0  0
   20.7089   20.5482   24.2834 O   0  5  0  0  0  0  0  0  0  0  0  0
   20.2326   18.6215   25.0852 O   0  0  0  0  0  0  0  0  0  0  0  0
   18.9552   19.3577   23.2462 C   0  0  0  0  0  0  0  0  0  0  0  0
   18.7519   20.3349   22.7934 H   0  0  0  0  0  0  0  0  0  0  0  0
   18.0444   19.0697   23.7842 H   0  0  0  0  0  0  0  0  0  0  0  0
   19.2597   18.2993   22.1508 C   0  0  0  0  0  0  0  0  0  0  0  0
   19.4047   17.3232   22.6340 H   0  0  0  0  0  0  0  0  0  0  0  0
   18.3821   18.1929   21.4991 H   0  0  0  0  0  0  0  0  0  0  0  0
   20.5015   18.6174   21.2843 C   0  0  0  0  0  0  0  0  0  0  0  0
   20.6794   17.7757   20.6009 H   0  0  0  0  0  0  0  0  0  0  0  0
   21.3936   18.6920   21.9216 H   0  0  0  0  0  0  0  0  0  0  0  0
   20.3495   19.9096   20.4539 C   0  0  0  0  0  0  0  0  0  0  0  0
   19.4444   19.8752   19.8336 H   0  0  0  0  0  0  0  0  0  0  0  0
   21.2119   20.0411   19.7877 H   0  0  0  0  0  0  0  0  0  0  0  0
   20.2926   20.7942   21.1010 H   0  0  0  0  0  0  0  0  0  0  0  0
  1  2  1  0  0  0  0
  1  3  2  0  0  0  0
  1  4  1  0  0  0  0
  4  5  1  0  0  0  0
  4  6  1  0  0  0  0
  4  7  1  0  0  0  0
  7  8  1  0  0  0  0
  7  9  1  0  0  0  0
  7 10  1  0  0  0  0
 10 11  1  0  0  0  0
 10 12  1  0  0  0  0
 10 13  1  0  0  0  0
 13 14  1  0  0  0  0
 13 15  1  0  0  0  0
 13 16  1  0  0  0  0
M  END
> <VM2 Rank>
7

> <Conf_Id>
163

> <Probability>
0.69

> <Sum Probability>
99.24

> <Delta G>
2.638

> <G>
-33.021

> <E>
-43.374

> <-TS>
10.353

> <U+W>
-55.893

> <U>
9.719

> <W>
-65.612

> <W(PB)>
-67.463

> <W(SA)>
1.850

> <Valence>
7.002

> <Coulomb>
2.403

> <VdW>
0.314

> <VdW6>
-5.861

> <VdW12>
6.176

> <Bond>
0.134

> <Angle>
2.733

> <Pdih>
4.133

> <Idih>
0.002

> <Tether>
0.000

$$$$
VeraChem MOL file


 16 15  0  0  0  0  0  0  0  0999 V2000     
   19.9434   19.3535   24.3046 C   0  0  0  0  0  0  0  0  0  0  0  0
   20.9343   19.5974   24.9646 O   0  5  0  0  0  0  0  0  0  0  0  0
   19.1878   18.4329   24.5451 O   0  0  0  0  0  0  0  0  0  0  0  0
   19.6145   20.2746   23.1328 C   0  0  0  0  0  0  0  0  0  0  0  0
   19.6510   21.3041   23.5078 H   0  0  0  0  0  0  0  0  0  0  0  0
   18.5788   20.0940   22.8232 H   0  0  0  0  0  0  0  0  0  0  0  0
   20.5797   20.1350   21.9238 C   0  0  0  0  0  0  0  0  0  0  0  0
   20.3187   20.8860   21.1660 H   0  0  0  0  0  0  0  0  0  0  0  0
   21.5990   20.3748   22.2567 H   0  0  0  0  0  0  0  0  0  0  0  0
   20.5844   18.7326   21.2701 C   0  0  0  0  0  0  0  0  0  0  0  0
   20.8782   17.9754   22.0102 H   0  0  0  0  0  0  0  0  0  0  0  0
   21.3529   18.7123   20.4852 H   0  0  0  0  0  0  0  0  0  0  0  0
   19.2259   18.3470   20.6469 C   0  0  0  0  0  0  0  0  0  0  0  0
   18.8920   19.1068   19.9284 H   0  0  0  0  0  0  0  0  0  0  0  0
   18.4522   18.2349   21.4172 H   0  0  0  0  0  0  0  0  0  0  0  0
   19.3056   17.3900   20.1154 H   0  0  0  0  0  0  0  0  0  0  0  0
  1  2  1  0  0  0  0
  1  3  2  0  0  0  0
  1  4  1  0  0  0  0
  4  5  1  0  0  0  0
  4  6  1  0  0  0  0
  4  7  1  0  0  0  0
  7  8  1  0  0  0  0
  7  9  1  0  0  0  0
  7 10  1  0  0  0  0
 10 11  1  0  0  0  0
 10 12  1  0  0  0  0
 10 13  1  0  0  0  0
 13 14  1  0  0  0  0
 13 15  1  0  0  0  0
 13 16  1  0  0  0  0
M  END
> <VM2 Rank>
8

> <Conf_Id>
86

> <Probability>
0.64

> <Sum Probability>
99.88

> <Delta G>
2.690

> <G>
-32.970

> <E>
-43.322

> <-TS>
10.352

> <U+W>
-55.841

> <U>
9.719

> <W>
-65.560

> <W(PB)>
-67.415

> <W(SA)>
1.854

> <Valence>
7.002

> <Coulomb>
2.402

> <VdW>
0.314

> <VdW6>
-5.861

> <VdW12>
6.175

> <Bond>
0.134

> <Angle>
2.733

> <Pdih>
4.133

> <Idih>
0.002

> <Tether>
0.000

$$$$
