VeraChem MOL file


 26 25  0  0  0  0  0  0  0  0999 V2000     
   19.9837   18.6238   26.4861 N   0  3  0  0  0  0  0  0  0  0  0  0
   20.8629   18.0855   26.5332 H   0  0  0  0  0  0  0  0  0  0  0  0
   19.2304   17.9186   26.4753 H   0  0  0  0  0  0  0  0  0  0  0  0
   19.9442   19.4507   25.2166 C   0  0  0  0  0  0  0  0  0  0  0  0
   20.7598   20.1768   25.2639 H   0  0  0  0  0  0  0  0  0  0  0  0
   18.9976   19.9967   25.2014 H   0  0  0  0  0  0  0  0  0  0  0  0
   20.0759   18.6065   23.9359 C   0  0  0  0  0  0  0  0  0  0  0  0
   21.0206   18.0471   23.9630 H   0  0  0  0  0  0  0  0  0  0  0  0
   19.2643   17.8676   23.9008 H   0  0  0  0  0  0  0  0  0  0  0  0
   20.0305   19.4900   22.6695 C   0  0  0  0  0  0  0  0  0  0  0  0
   20.8407   20.2315   22.7111 H   0  0  0  0  0  0  0  0  0  0  0  0
   19.0865   20.0523   22.6490 H   0  0  0  0  0  0  0  0  0  0  0  0
   20.1618   18.6528   21.3767 C   0  0  0  0  0  0  0  0  0  0  0  0
   21.1058   18.0907   21.3970 H   0  0  0  0  0  0  0  0  0  0  0  0
   19.3518   17.9115   21.3349 H   0  0  0  0  0  0  0  0  0  0  0  0
   20.1163   19.5367   20.1103 C   0  0  0  0  0  0  0  0  0  0  0  0
   20.9265   20.2786   20.1461 H   0  0  0  0  0  0  0  0  0  0  0  0
   19.1726   20.0995   20.0840 H   0  0  0  0  0  0  0  0  0  0  0  0
   20.2476   18.6974   18.8214 C   0  0  0  0  0  0  0  0  0  0  0  0
   21.1984   18.1489   18.8025 H   0  0  0  0  0  0  0  0  0  0  0  0
   20.2132   19.3421   17.9337 H   0  0  0  0  0  0  0  0  0  0  0  0
   19.4308   17.9684   18.7399 H   0  0  0  0  0  0  0  0  0  0  0  0
   19.8478   19.5320   27.7004 C   0  0  0  0  0  0  0  0  0  0  0  0
   20.6733   20.2472   27.7083 H   0  0  0  0  0  0  0  0  0  0  0  0
   18.8963   20.0655   27.6453 H   0  0  0  0  0  0  0  0  0  0  0  0
   19.8778   18.9241   28.6075 H   0  0  0  0  0  0  0  0  0  0  0  0
  1  2  1  0  0  0  0
  1  3  1  0  0  0  0
  1  4  1  0  0  0  0
  4  5  1  0  0  0  0
  4  6  1  0  0  0  0
  4  7  1  0  0  0  0
  7  8  1  0  0  0  0
  7  9  1  0  0  0  0
  7 10  1  0  0  0  0
 10 11  1  0  0  0  0
 10 12  1  0  0  0  0
 10 13  1  0  0  0  0
 13 14  1  0  0  0  0
 13 15  1  0  0  0  0
 13 16  1  0  0  0  0
 16 17  1  0  0  0  0
 16 18  1  0  0  0  0
 16 19  1  0  0  0  0
 19 20  1  0  0  0  0
 19 21  1  0  0  0  0
 19 22  1  0  0  0  0
  1 23  1  0  0  0  0
 23 24  1  0  0  0  0
 23 25  1  0  0  0  0
 23 26  1  0  0  0  0
M  END
> <VM2 Rank>
1

> <Conf_Id>
906

> <Probability>
7.12

> <Sum Probability>
7.12

> <Delta G>
0.000

> <G>
75.466

> <E>
43.304

> <-TS>
32.163

> <U+W>
21.842

> <U>
70.358

> <W>
-48.515

> <W(PB)>
-50.856

> <W(SA)>
2.341

> <Valence>
1.714

> <Coulomb>
68.480

> <VdW>
0.163

> <VdW6>
-5.268

> <VdW12>
5.431

> <Bond>
0.126

> <Angle>
0.350

> <Pdih>
1.238

> <Idih>
0.000

> <Tether>
0.000

$$$$
VeraChem MOL file


 26 25  0  0  0  0  0  0  0  0999 V2000     
   20.3923   19.0035   26.6222 N   0  3  0  0  0  0  0  0  0  0  0  0
   20.8630   19.5626   27.3515 H   0  0  0  0  0  0  0  0  0  0  0  0
   20.8761   18.0923   26.6321 H   0  0  0  0  0  0  0  0  0  0  0  0
   20.5689   19.6776   25.2718 C   0  0  0  0  0  0  0  0  0  0  0  0
   21.6302   19.9156   25.1643 H   0  0  0  0  0  0  0  0  0  0  0  0
   20.0109   20.6171   25.2891 H   0  0  0  0  0  0  0  0  0  0  0  0
   20.1225   18.8244   24.0671 C   0  0  0  0  0  0  0  0  0  0  0  0
   20.6519   17.8626   24.0860 H   0  0  0  0  0  0  0  0  0  0  0  0
   19.0502   18.6036   24.1455 H   0  0  0  0  0  0  0  0  0  0  0  0
   20.4032   19.5463   22.7305 C   0  0  0  0  0  0  0  0  0  0  0  0
   21.4766   19.7692   22.6529 H   0  0  0  0  0  0  0  0  0  0  0  0
   19.8770   20.5111   22.7182 H   0  0  0  0  0  0  0  0  0  0  0  0
   19.9615   18.7009   21.5141 C   0  0  0  0  0  0  0  0  0  0  0  0
   20.4874   17.7362   21.5265 H   0  0  0  0  0  0  0  0  0  0  0  0
   18.8882   18.4783   21.5912 H   0  0  0  0  0  0  0  0  0  0  0  0
   20.2425   19.4231   20.1774 C   0  0  0  0  0  0  0  0  0  0  0  0
   21.3156   19.6458   20.0942 H   0  0  0  0  0  0  0  0  0  0  0  0
   19.7166   20.3880   20.1590 H   0  0  0  0  0  0  0  0  0  0  0  0
   19.8002   18.5760   18.9651 C   0  0  0  0  0  0  0  0  0  0  0  0
   20.3349   17.6176   18.9368 H   0  0  0  0  0  0  0  0  0  0  0  0
   20.0077   19.1051   18.0260 H   0  0  0  0  0  0  0  0  0  0  0  0
   18.7233   18.3657   19.0021 H   0  0  0  0  0  0  0  0  0  0  0  0
   18.9169   18.8381   26.9688 C   0  0  0  0  0  0  0  0  0  0  0  0
   18.4413   18.1921   26.2282 H   0  0  0  0  0  0  0  0  0  0  0  0
   18.8313   18.3855   27.9593 H   0  0  0  0  0  0  0  0  0  0  0  0
   18.4363   19.8188   26.9690 H   0  0  0  0  0  0  0  0  0  0  0  0
  1  2  1  0  0  0  0
  1  3  1  0  0  0  0
  1  4  1  0  0  0  0
  4  5  1  0  0  0  0
  4  6  1  0  0  0  0
  4  7  1  0  0  0  0
  7  8  1  0  0  0  0
  7  9  1  0  0  0  0
  7 10  1  0  0  0  0
 10 11  1  0  0  0  0
 10 12  1  0  0  0  0
 10 13  1  0  0  0  0
 13 14  1  0  0  0  0
 13 15  1  0  0  0  0
 13 16  1  0  0  0  0
 16 17  1  0  0  0  0
 16 18  1  0  0  0  0
 16 19  1  0  0  0  0
 19 20  1  0  0  0  0
 19 21  1  0  0  0  0
 19 22  1  0  0  0  0
  1 23  1  0  0  0  0
 23 24  1  0  0  0  0
 23 25  1  0  0  0  0
 23 26  1  0  0  0  0
M  END
> <VM2 Rank>
2

> <Conf_Id>
994

> <Probability>
4.37

> <Sum Probability>
11.48

> <Delta G>
0.291

> <G>
75.757

> <E>
43.423

> <-TS>
32.334

> <U+W>
21.962

> <U>
70.745

> <W>
-48.784

> <W(PB)>
-51.113

> <W(SA)>
2.329

> <Valence>
1.993

> <Coulomb>
68.323

> <VdW>
0.429

> <VdW6>
-5.973

> <VdW12>
6.402

> <Bond>
0.161

> <Angle>
0.472

> <Pdih>
1.360

> <Idih>
0.000

> <Tether>
0.000

$$$$
VeraChem MOL file


 26 25  0  0  0  0  0  0  0  0999 V2000     
   19.4984   18.9124   26.5906 N   0  3  0  0  0  0  0  0  0  0  0  0
   19.2086   17.9224   26.5732 H   0  0  0  0  0  0  0  0  0  0  0  0
   18.8748   19.3601   27.2811 H   0  0  0  0  0  0  0  0  0  0  0  0
   19.2845   19.5466   25.2263 C   0  0  0  0  0  0  0  0  0  0  0  0
   19.6389   20.5793   25.2758 H   0  0  0  0  0  0  0  0  0  0  0  0
   18.2071   19.5665   25.0431 H   0  0  0  0  0  0  0  0  0  0  0  0
   19.9769   18.8096   24.0619 C   0  0  0  0  0  0  0  0  0  0  0  0
   21.0636   18.8090   24.2168 H   0  0  0  0  0  0  0  0  0  0  0  0
   19.6525   17.7606   24.0507 H   0  0  0  0  0  0  0  0  0  0  0  0
   19.6506   19.4695   22.7038 C   0  0  0  0  0  0  0  0  0  0  0  0
   19.9709   20.5206   22.7215 H   0  0  0  0  0  0  0  0  0  0  0  0
   18.5625   19.4716   22.5497 H   0  0  0  0  0  0  0  0  0  0  0  0
   20.3379   18.7393   21.5274 C   0  0  0  0  0  0  0  0  0  0  0  0
   21.4260   18.7374   21.6812 H   0  0  0  0  0  0  0  0  0  0  0  0
   20.0180   17.6882   21.5099 H   0  0  0  0  0  0  0  0  0  0  0  0
   20.0113   19.3995   20.1692 C   0  0  0  0  0  0  0  0  0  0  0  0
   20.3316   20.4508   20.1809 H   0  0  0  0  0  0  0  0  0  0  0  0
   18.9239   19.4015   20.0094 H   0  0  0  0  0  0  0  0  0  0  0  0
   20.6995   18.6678   18.9970 C   0  0  0  0  0  0  0  0  0  0  0  0
   21.7913   18.6791   19.1109 H   0  0  0  0  0  0  0  0  0  0  0  0
   20.4557   19.1508   18.0419 H   0  0  0  0  0  0  0  0  0  0  0  0
   20.3727   17.6214   18.9382 H   0  0  0  0  0  0  0  0  0  0  0  0
   20.9489   19.0453   27.0407 C   0  0  0  0  0  0  0  0  0  0  0  0
   21.2208   20.1027   27.0674 H   0  0  0  0  0  0  0  0  0  0  0  0
   21.0544   18.6123   28.0380 H   0  0  0  0  0  0  0  0  0  0  0  0
   21.5955   18.5136   26.3398 H   0  0  0  0  0  0  0  0  0  0  0  0
  1  2  1  0  0  0  0
  1  3  1  0  0  0  0
  1  4  1  0  0  0  0
  4  5  1  0  0  0  0
  4  6  1  0  0  0  0
  4  7  1  0  0  0  0
  7  8  1  0  0  0  0
  7  9  1  0  0  0  0
  7 10  1  0  0  0  0
 10 11  1  0  0  0  0
 10 12  1  0  0  0  0
 10 13  1  0  0  0  0
 13 14  1  0  0  0  0
 13 15  1  0  0  0  0
 13 16  1  0  0  0  0
 16 17  1  0  0  0  0
 16 18  1  0  0  0  0
 16 19  1  0  0  0  0
 19 20  1  0  0  0  0
 19 21  1  0  0  0  0
 19 22  1  0  0  0  0
  1 23  1  0  0  0  0
 23 24  1  0  0  0  0
 23 25  1  0  0  0  0
 23 26  1  0  0  0  0
M  END
> <VM2 Rank>
3

> <Conf_Id>
37

> <Probability>
4.33

> <Sum Probability>
15.81

> <Delta G>
0.296

> <G>
75.762

> <E>
43.429

> <-TS>
32.333

> <U+W>
21.967

> <U>
70.745

> <W>
-48.778

> <W(PB)>
-51.115

> <W(SA)>
2.337

> <Valence>
1.993

> <Coulomb>
68.323

> <VdW>
0.429

> <VdW6>
-5.973

> <VdW12>
6.403

> <Bond>
0.161

> <Angle>
0.472

> <Pdih>
1.360

> <Idih>
0.000

> <Tether>
0.000

$$$$
VeraChem MOL file


 26 25  0  0  0  0  0  0  0  0999 V2000     
   20.5559   19.2936   25.9475 N   0  3  0  0  0  0  0  0  0  0  0  0
   20.9608   20.0234   25.3420 H   0  0  0  0  0  0  0  0  0  0  0  0
   21.2649   18.5452   25.9906 H   0  0  0  0  0  0  0  0  0  0  0  0
   19.2732   18.7626   25.3370 C   0  0  0  0  0  0  0  0  0  0  0  0
   18.5526   19.5835   25.2990 H   0  0  0  0  0  0  0  0  0  0  0  0
   18.8812   17.9955   26.0097 H   0  0  0  0  0  0  0  0  0  0  0  0
   19.4518   18.1635   23.9280 C   0  0  0  0  0  0  0  0  0  0  0  0
   20.1814   17.3438   23.9678 H   0  0  0  0  0  0  0  0  0  0  0  0
   18.4974   17.7179   23.6174 H   0  0  0  0  0  0  0  0  0  0  0  0
   19.8907   19.2154   22.8816 C   0  0  0  0  0  0  0  0  0  0  0  0
   20.8632   19.6405   23.1635 H   0  0  0  0  0  0  0  0  0  0  0  0
   19.1703   20.0454   22.8730 H   0  0  0  0  0  0  0  0  0  0  0  0
   19.9934   18.6073   21.4643 C   0  0  0  0  0  0  0  0  0  0  0  0
   20.7112   17.7752   21.4725 H   0  0  0  0  0  0  0  0  0  0  0  0
   19.0214   18.1849   21.1738 H   0  0  0  0  0  0  0  0  0  0  0  0
   20.4323   19.6554   20.4174 C   0  0  0  0  0  0  0  0  0  0  0  0
   21.4059   20.0789   20.7014 H   0  0  0  0  0  0  0  0  0  0  0  0
   19.7162   20.4891   20.4039 H   0  0  0  0  0  0  0  0  0  0  0  0
   20.5330   19.0445   19.0033 C   0  0  0  0  0  0  0  0  0  0  0  0
   21.2678   18.2293   18.9767 H   0  0  0  0  0  0  0  0  0  0  0  0
   20.8456   19.8034   18.2744 H   0  0  0  0  0  0  0  0  0  0  0  0
   19.5649   18.6428   18.6768 H   0  0  0  0  0  0  0  0  0  0  0  0
   20.2778   19.8477   27.3379 C   0  0  0  0  0  0  0  0  0  0  0  0
   19.8798   19.0501   27.9692 H   0  0  0  0  0  0  0  0  0  0  0  0
   21.2088   20.2266   27.7654 H   0  0  0  0  0  0  0  0  0  0  0  0
   19.5496   20.6582   27.2625 H   0  0  0  0  0  0  0  0  0  0  0  0
  1  2  1  0  0  0  0
  1  3  1  0  0  0  0
  1  4  1  0  0  0  0
  4  5  1  0  0  0  0
  4  6  1  0  0  0  0
  4  7  1  0  0  0  0
  7  8  1  0  0  0  0
  7  9  1  0  0  0  0
  7 10  1  0  0  0  0
 10 11  1  0  0  0  0
 10 12  1  0  0  0  0
 10 13  1  0  0  0  0
 13 14  1  0  0  0  0
 13 15  1  0  0  0  0
 13 16  1  0  0  0  0
 16 17  1  0  0  0  0
 16 18  1  0  0  0  0
 16 19  1  0  0  0  0
 19 20  1  0  0  0  0
 19 21  1  0  0  0  0
 19 22  1  0  0  0  0
  1 23  1  0  0  0  0
 23 24  1  0  0  0  0
 23 25  1  0  0  0  0
 23 26  1  0  0  0  0
M  END
> <VM2 Rank>
4

> <Conf_Id>
484

> <Probability>
3.19

> <Sum Probability>
19.00

> <Delta G>
0.478

> <G>
75.944

> <E>
43.689

> <-TS>
32.255

> <U+W>
22.227

> <U>
71.142

> <W>
-48.916

> <W(PB)>
-51.253

> <W(SA)>
2.337

> <Valence>
1.835

> <Coulomb>
69.101

> <VdW>
0.206

> <VdW6>
-5.849

> <VdW12>
6.055

> <Bond>
0.142

> <Angle>
0.413

> <Pdih>
1.279

> <Idih>
0.000

> <Tether>
0.000

$$$$
VeraChem MOL file


 26 25  0  0  0  0  0  0  0  0999 V2000     
   19.9281   18.8065   26.2896 N   0  3  0  0  0  0  0  0  0  0  0  0
   20.7993   19.0420   26.7900 H   0  0  0  0  0  0  0  0  0  0  0  0
   19.8671   17.7767   26.3147 H   0  0  0  0  0  0  0  0  0  0  0  0
   20.0012   19.2913   24.8557 C   0  0  0  0  0  0  0  0  0  0  0  0
   20.0756   20.3816   24.8737 H   0  0  0  0  0  0  0  0  0  0  0  0
   19.0648   19.0176   24.3639 H   0  0  0  0  0  0  0  0  0  0  0  0
   21.1920   18.7036   24.0742 C   0  0  0  0  0  0  0  0  0  0  0  0
   22.1234   18.9481   24.6021 H   0  0  0  0  0  0  0  0  0  0  0  0
   21.1183   17.6080   24.0577 H   0  0  0  0  0  0  0  0  0  0  0  0
   21.2800   19.2406   22.6261 C   0  0  0  0  0  0  0  0  0  0  0  0
   22.1973   18.8527   22.1618 H   0  0  0  0  0  0  0  0  0  0  0  0
   21.3814   20.3346   22.6466 H   0  0  0  0  0  0  0  0  0  0  0  0
   20.0626   18.8451   21.7557 C   0  0  0  0  0  0  0  0  0  0  0  0
   19.9442   17.7526   21.7645 H   0  0  0  0  0  0  0  0  0  0  0  0
   19.1430   19.2682   22.1815 H   0  0  0  0  0  0  0  0  0  0  0  0
   20.2163   19.3333   20.2979 C   0  0  0  0  0  0  0  0  0  0  0  0
   21.1298   18.9088   19.8582 H   0  0  0  0  0  0  0  0  0  0  0  0
   20.3360   20.4258   20.2832 H   0  0  0  0  0  0  0  0  0  0  0  0
   19.0010   18.9397   19.4313 C   0  0  0  0  0  0  0  0  0  0  0  0
   18.0755   19.3789   19.8260 H   0  0  0  0  0  0  0  0  0  0  0  0
   18.8755   17.8496   19.3990 H   0  0  0  0  0  0  0  0  0  0  0  0
   19.1288   19.2945   18.4004 H   0  0  0  0  0  0  0  0  0  0  0  0
   18.7267   19.4299   26.9865 C   0  0  0  0  0  0  0  0  0  0  0  0
   18.6859   19.0728   28.0180 H   0  0  0  0  0  0  0  0  0  0  0  0
   18.8299   20.5172   26.9765 H   0  0  0  0  0  0  0  0  0  0  0  0
   17.8152   19.1397   26.4594 H   0  0  0  0  0  0  0  0  0  0  0  0
  1  2  1  0  0  0  0
  1  3  1  0  0  0  0
  1  4  1  0  0  0  0
  4  5  1  0  0  0  0
  4  6  1  0  0  0  0
  4  7  1  0  0  0  0
  7  8  1  0  0  0  0
  7  9  1  0  0  0  0
  7 10  1  0  0  0  0
 10 11  1  0  0  0  0
 10 12  1  0  0  0  0
 10 13  1  0  0  0  0
 13 14  1  0  0  0  0
 13 15  1  0  0  0  0
 13 16  1  0  0  0  0
 16 17  1  0  0  0  0
 16 18  1  0  0  0  0
 16 19  1  0  0  0  0
 19 20  1  0  0  0  0
 19 21  1  0  0  0  0
 19 22  1  0  0  0  0
  1 23  1  0  0  0  0
 23 24  1  0  0  0  0
 23 25  1  0  0  0  0
 23 26  1  0  0  0  0
M  END
> <VM2 Rank>
5

> <Conf_Id>
485

> <Probability>
2.77

> <Sum Probability>
21.78

> <Delta G>
0.562

> <G>
76.028

> <E>
43.768

> <-TS>
32.260

> <U+W>
22.306

> <U>
71.138

> <W>
-48.832

> <W(PB)>
-51.176

> <W(SA)>
2.344

> <Valence>
2.016

> <Coulomb>
68.932

> <VdW>
0.190

> <VdW6>
-5.902

> <VdW12>
6.092

> <Bond>
0.149

> <Angle>
0.477

> <Pdih>
1.390

> <Idih>
0.000

> <Tether>
0.000

$$$$
VeraChem MOL file


 26 25  0  0  0  0  0  0  0  0999 V2000     
   20.0150   18.8154   26.2927 N   0  3  0  0  0  0  0  0  0  0  0  0
   20.2811   17.8191   26.3294 H   0  0  0  0  0  0  0  0  0  0  0  0
   19.0813   18.8663   26.7290 H   0  0  0  0  0  0  0  0  0  0  0  0
   19.9461   19.2856   24.8537 C   0  0  0  0  0  0  0  0  0  0  0  0
   20.9506   19.2103   24.4308 H   0  0  0  0  0  0  0  0  0  0  0  0
   19.6519   20.3382   24.8586 H   0  0  0  0  0  0  0  0  0  0  0  0
   18.9563   18.4749   23.9950 C   0  0  0  0  0  0  0  0  0  0  0  0
   19.2509   17.4170   23.9915 H   0  0  0  0  0  0  0  0  0  0  0  0
   17.9601   18.5224   24.4546 H   0  0  0  0  0  0  0  0  0  0  0  0
   18.8633   18.9935   22.5405 C   0  0  0  0  0  0  0  0  0  0  0  0
   18.5416   20.0443   22.5460 H   0  0  0  0  0  0  0  0  0  0  0  0
   18.0780   18.4316   22.0159 H   0  0  0  0  0  0  0  0  0  0  0  0
   20.1933   18.8584   21.7603 C   0  0  0  0  0  0  0  0  0  0  0  0
   20.9763   19.4556   22.2464 H   0  0  0  0  0  0  0  0  0  0  0  0
   20.5291   17.8124   21.7852 H   0  0  0  0  0  0  0  0  0  0  0  0
   20.0465   19.3159   20.2919 C   0  0  0  0  0  0  0  0  0  0  0  0
   19.7097   20.3617   20.2609 H   0  0  0  0  0  0  0  0  0  0  0  0
   19.2708   18.7186   19.7923 H   0  0  0  0  0  0  0  0  0  0  0  0
   21.3739   19.1824   19.5153 C   0  0  0  0  0  0  0  0  0  0  0  0
   21.2495   19.5113   18.4754 H   0  0  0  0  0  0  0  0  0  0  0  0
   21.7193   18.1405   19.4997 H   0  0  0  0  0  0  0  0  0  0  0  0
   22.1615   19.7968   19.9707 H   0  0  0  0  0  0  0  0  0  0  0  0
   21.0136   19.6639   27.0676 C   0  0  0  0  0  0  0  0  0  0  0  0
   21.0535   19.3150   28.1019 H   0  0  0  0  0  0  0  0  0  0  0  0
   21.9997   19.5678   26.6078 H   0  0  0  0  0  0  0  0  0  0  0  0
   20.6936   20.7079   27.0426 H   0  0  0  0  0  0  0  0  0  0  0  0
  1  2  1  0  0  0  0
  1  3  1  0  0  0  0
  1  4  1  0  0  0  0
  4  5  1  0  0  0  0
  4  6  1  0  0  0  0
  4  7  1  0  0  0  0
  7  8  1  0  0  0  0
  7  9  1  0  0  0  0
  7 10  1  0  0  0  0
 10 11  1  0  0  0  0
 10 12  1  0  0  0  0
 10 13  1  0  0  0  0
 13 14  1  0  0  0  0
 13 15  1  0  0  0  0
 13 16  1  0  0  0  0
 16 17  1  0  0  0  0
 16 18  1  0  0  0  0
 16 19  1  0  0  0  0
 19 20  1  0  0  0  0
 19 21  1  0  0  0  0
 19 22  1  0  0  0  0
  1 23  1  0  0  0  0
 23 24  1  0  0  0  0
 23 25  1  0  0  0  0
 23 26  1  0  0  0  0
M  END
> <VM2 Rank>
6

> <Conf_Id>
1096

> <Probability>
2.63

> <Sum Probability>
24.41

> <Delta G>
0.593

> <G>
76.059

> <E>
43.798

> <-TS>
32.260

> <U+W>
22.337

> <U>
71.138

> <W>
-48.801

> <W(PB)>
-51.136

> <W(SA)>
2.335

> <Valence>
2.016

> <Coulomb>
68.932

> <VdW>
0.190

> <VdW6>
-5.902

> <VdW12>
6.092

> <Bond>
0.149

> <Angle>
0.477

> <Pdih>
1.390

> <Idih>
0.000

> <Tether>
0.000

$$$$
VeraChem MOL file


 26 25  0  0  0  0  0  0  0  0999 V2000     
   19.5900   19.7660   26.0203 N   0  3  0  0  0  0  0  0  0  0  0  0
   18.9701   19.9962   26.8132 H   0  0  0  0  0  0  0  0  0  0  0  0
   19.4490   20.5280   25.3405 H   0  0  0  0  0  0  0  0  0  0  0  0
   19.1666   18.4378   25.4125 C   0  0  0  0  0  0  0  0  0  0  0  0
   18.0904   18.4914   25.2291 H   0  0  0  0  0  0  0  0  0  0  0  0
   19.3412   17.6611   26.1613 H   0  0  0  0  0  0  0  0  0  0  0  0
   19.8810   18.0565   24.0973 C   0  0  0  0  0  0  0  0  0  0  0  0
   20.9575   17.9412   24.2782 H   0  0  0  0  0  0  0  0  0  0  0  0
   19.5144   17.0716   23.7790 H   0  0  0  0  0  0  0  0  0  0  0  0
   19.6410   19.0830   22.9649 C   0  0  0  0  0  0  0  0  0  0  0  0
   20.0430   20.0619   23.2587 H   0  0  0  0  0  0  0  0  0  0  0  0
   18.5607   19.2137   22.8118 H   0  0  0  0  0  0  0  0  0  0  0  0
   20.3006   18.6403   21.6390 C   0  0  0  0  0  0  0  0  0  0  0  0
   21.3804   18.5063   21.7927 H   0  0  0  0  0  0  0  0  0  0  0  0
   19.8993   17.6630   21.3368 H   0  0  0  0  0  0  0  0  0  0  0  0
   20.0649   19.6654   20.5073 C   0  0  0  0  0  0  0  0  0  0  0  0
   20.4673   20.6444   20.8032 H   0  0  0  0  0  0  0  0  0  0  0  0
   18.9859   19.8014   20.3484 H   0  0  0  0  0  0  0  0  0  0  0  0
   20.7247   19.2196   19.1848 C   0  0  0  0  0  0  0  0  0  0  0  0
   20.5465   19.9597   18.3939 H   0  0  0  0  0  0  0  0  0  0  0  0
   20.3174   18.2586   18.8446 H   0  0  0  0  0  0  0  0  0  0  0  0
   21.8104   19.1080   19.3031 H   0  0  0  0  0  0  0  0  0  0  0  0
   21.0393   19.7215   26.4908 C   0  0  0  0  0  0  0  0  0  0  0  0
   21.2951   20.6783   26.9514 H   0  0  0  0  0  0  0  0  0  0  0  0
   21.1547   18.9179   27.2214 H   0  0  0  0  0  0  0  0  0  0  0  0
   21.6916   19.5404   25.6341 H   0  0  0  0  0  0  0  0  0  0  0  0
  1  2  1  0  0  0  0
  1  3  1  0  0  0  0
  1  4  1  0  0  0  0
  4  5  1  0  0  0  0
  4  6  1  0  0  0  0
  4  7  1  0  0  0  0
  7  8  1  0  0  0  0
  7  9  1  0  0  0  0
  7 10  1  0  0  0  0
 10 11  1  0  0  0  0
 10 12  1  0  0  0  0
 10 13  1  0  0  0  0
 13 14  1  0  0  0  0
 13 15  1  0  0  0  0
 13 16  1  0  0  0  0
 16 17  1  0  0  0  0
 16 18  1  0  0  0  0
 16 19  1  0  0  0  0
 19 20  1  0  0  0  0
 19 21  1  0  0  0  0
 19 22  1  0  0  0  0
  1 23  1  0  0  0  0
 23 24  1  0  0  0  0
 23 25  1  0  0  0  0
 23 26  1  0  0  0  0
M  END
> <VM2 Rank>
7

> <Conf_Id>
775

> <Probability>
2.63

> <Sum Probability>
27.04

> <Delta G>
0.594

> <G>
76.060

> <E>
43.581

> <-TS>
32.480

> <U+W>
22.119

> <U>
71.479

> <W>
-49.361

> <W(PB)>
-51.654

> <W(SA)>
2.294

> <Valence>
2.085

> <Coulomb>
68.999

> <VdW>
0.395

> <VdW6>
-6.753

> <VdW12>
7.148

> <Bond>
0.184

> <Angle>
0.576

> <Pdih>
1.325

> <Idih>
0.000

> <Tether>
0.000

$$$$
VeraChem MOL file


 26 25  0  0  0  0  0  0  0  0999 V2000     
   20.1696   19.8255   26.0409 N   0  3  0  0  0  0  0  0  0  0  0  0
   20.2001   20.6051   25.3671 H   0  0  0  0  0  0  0  0  0  0  0  0
   20.6729   20.1711   26.8734 H   0  0  0  0  0  0  0  0  0  0  0  0
   20.8953   18.6153   25.4736 C   0  0  0  0  0  0  0  0  0  0  0  0
   20.8300   17.8140   26.2140 H   0  0  0  0  0  0  0  0  0  0  0  0
   21.9483   18.8876   25.3656 H   0  0  0  0  0  0  0  0  0  0  0  0
   20.3669   18.1064   24.1145 C   0  0  0  0  0  0  0  0  0  0  0  0
   20.9469   17.2186   23.8298 H   0  0  0  0  0  0  0  0  0  0  0  0
   19.3262   17.7739   24.2204 H   0  0  0  0  0  0  0  0  0  0  0  0
   20.4724   19.1684   22.9943 C   0  0  0  0  0  0  0  0  0  0  0  0
   21.5118   19.5164   22.9161 H   0  0  0  0  0  0  0  0  0  0  0  0
   19.8607   20.0433   23.2521 H   0  0  0  0  0  0  0  0  0  0  0  0
   20.0107   18.6106   21.6288 C   0  0  0  0  0  0  0  0  0  0  0  0
   20.6218   17.7370   21.3624 H   0  0  0  0  0  0  0  0  0  0  0  0
   18.9724   18.2595   21.7075 H   0  0  0  0  0  0  0  0  0  0  0  0
   20.1123   19.6702   20.5089 C   0  0  0  0  0  0  0  0  0  0  0  0
   21.1497   20.0232   20.4249 H   0  0  0  0  0  0  0  0  0  0  0  0
   19.5001   20.5452   20.7689 H   0  0  0  0  0  0  0  0  0  0  0  0
   19.6507   19.1093   19.1468 C   0  0  0  0  0  0  0  0  0  0  0  0
   18.6046   18.7792   19.1896 H   0  0  0  0  0  0  0  0  0  0  0  0
   20.2671   18.2533   18.8428 H   0  0  0  0  0  0  0  0  0  0  0  0
   19.7301   19.8758   18.3649 H   0  0  0  0  0  0  0  0  0  0  0  0
   18.7303   19.4843   26.4093 C   0  0  0  0  0  0  0  0  0  0  0  0
   18.1898   19.1808   25.5104 H   0  0  0  0  0  0  0  0  0  0  0  0
   18.7297   18.6689   27.1358 H   0  0  0  0  0  0  0  0  0  0  0  0
   18.2540   20.3660   26.8439 H   0  0  0  0  0  0  0  0  0  0  0  0
  1  2  1  0  0  0  0
  1  3  1  0  0  0  0
  1  4  1  0  0  0  0
  4  5  1  0  0  0  0
  4  6  1  0  0  0  0
  4  7  1  0  0  0  0
  7  8  1  0  0  0  0
  7  9  1  0  0  0  0
  7 10  1  0  0  0  0
 10 11  1  0  0  0  0
 10 12  1  0  0  0  0
 10 13  1  0  0  0  0
 13 14  1  0  0  0  0
 13 15  1  0  0  0  0
 13 16  1  0  0  0  0
 16 17  1  0  0  0  0
 16 18  1  0  0  0  0
 16 19  1  0  0  0  0
 19 20  1  0  0  0  0
 19 21  1  0  0  0  0
 19 22  1  0  0  0  0
  1 23  1  0  0  0  0
 23 24  1  0  0  0  0
 23 25  1  0  0  0  0
 23 26  1  0  0  0  0
M  END
> <VM2 Rank>
8

> <Conf_Id>
1288

> <Probability>
2.46

> <Sum Probability>
29.50

> <Delta G>
0.632

> <G>
76.098

> <E>
43.619

> <-TS>
32.479

> <U+W>
22.157

> <U>
71.479

> <W>
-49.322

> <W(PB)>
-51.599

> <W(SA)>
2.276

> <Valence>
2.085

> <Coulomb>
68.999

> <VdW>
0.395

> <VdW6>
-6.752

> <VdW12>
7.148

> <Bond>
0.184

> <Angle>
0.576

> <Pdih>
1.325

> <Idih>
0.000

> <Tether>
0.000

$$$$
