VeraChem MOL file


 25 24  0  0  0  0  0  0  0  0999 V2000     
   20.1601   19.3401   27.8084 C   0  0  0  0  0  0  0  0  0  0  0  0
   21.2157   19.7050   28.2872 O   0  5  0  0  0  0  0  0  0  0  0  0
   19.0777   19.5690   28.3112 O   0  0  0  0  0  0  0  0  0  0  0  0
   20.1941   18.5724   26.4918 C   0  0  0  0  0  0  0  0  0  0  0  0
   19.3547   17.8667   26.4872 H   0  0  0  0  0  0  0  0  0  0  0  0
   21.1164   17.9795   26.4670 H   0  0  0  0  0  0  0  0  0  0  0  0
   20.1206   19.4991   25.2533 C   0  0  0  0  0  0  0  0  0  0  0  0
   19.1984   20.0950   25.3002 H   0  0  0  0  0  0  0  0  0  0  0  0
   20.9600   20.2078   25.2799 H   0  0  0  0  0  0  0  0  0  0  0  0
   20.1566   18.6986   23.9334 C   0  0  0  0  0  0  0  0  0  0  0  0
   19.3171   17.9902   23.9106 H   0  0  0  0  0  0  0  0  0  0  0  0
   21.0790   18.1032   23.8902 H   0  0  0  0  0  0  0  0  0  0  0  0
   20.0829   19.6250   22.7006 C   0  0  0  0  0  0  0  0  0  0  0  0
   19.1606   20.2204   22.7437 H   0  0  0  0  0  0  0  0  0  0  0  0
   20.9223   20.3334   22.7232 H   0  0  0  0  0  0  0  0  0  0  0  0
   20.1189   18.8252   21.3804 C   0  0  0  0  0  0  0  0  0  0  0  0
   19.2795   18.1167   21.3574 H   0  0  0  0  0  0  0  0  0  0  0  0
   21.0412   18.2297   21.3370 H   0  0  0  0  0  0  0  0  0  0  0  0
   20.0451   19.7510   20.1480 C   0  0  0  0  0  0  0  0  0  0  0  0
   19.1228   20.3470   20.1870 H   0  0  0  0  0  0  0  0  0  0  0  0
   20.8844   20.4600   20.1665 H   0  0  0  0  0  0  0  0  0  0  0  0
   20.0813   18.9486   18.8317 C   0  0  0  0  0  0  0  0  0  0  0  0
   19.2340   18.2529   18.7723 H   0  0  0  0  0  0  0  0  0  0  0  0
   20.0280   19.6221   17.9664 H   0  0  0  0  0  0  0  0  0  0  0  0
   21.0089   18.3668   18.7516 H   0  0  0  0  0  0  0  0  0  0  0  0
  1  2  1  0  0  0  0
  1  3  2  0  0  0  0
  1  4  1  0  0  0  0
  4  5  1  0  0  0  0
  4  6  1  0  0  0  0
  4  7  1  0  0  0  0
  7  8  1  0  0  0  0
  7  9  1  0  0  0  0
  7 10  1  0  0  0  0
 10 11  1  0  0  0  0
 10 12  1  0  0  0  0
 10 13  1  0  0  0  0
 13 14  1  0  0  0  0
 13 15  1  0  0  0  0
 13 16  1  0  0  0  0
 16 17  1  0  0  0  0
 16 18  1  0  0  0  0
 16 19  1  0  0  0  0
 19 20  1  0  0  0  0
 19 21  1  0  0  0  0
 19 22  1  0  0  0  0
 22 23  1  0  0  0  0
 22 24  1  0  0  0  0
 22 25  1  0  0  0  0
M  END
> <VM2 Rank>
1

> <Conf_Id>
348

> <Probability>
23.52

> <Sum Probability>
23.52

> <Delta G>
0.000

> <G>
-7.962

> <E>
-32.361

> <-TS>
24.399

> <U+W>
-52.928

> <U>
5.617

> <W>
-58.544

> <W(PB)>
-61.064

> <W(SA)>
2.520

> <Valence>
7.531

> <Coulomb>
-2.818

> <VdW>
0.904

> <VdW6>
-7.640

> <VdW12>
8.544

> <Bond>
0.115

> <Angle>
2.271

> <Pdih>
5.144

> <Idih>
0.001

> <Tether>
0.000

$$$$
VeraChem MOL file


 25 24  0  0  0  0  0  0  0  0999 V2000     
   19.8606   19.1637   27.5407 C   0  0  0  0  0  0  0  0  0  0  0  0
   20.6741   18.7866   28.3609 O   0  5  0  0  0  0  0  0  0  0  0  0
   18.8684   19.8062   27.8228 O   0  0  0  0  0  0  0  0  0  0  0  0
   20.1114   18.8330   26.0738 C   0  0  0  0  0  0  0  0  0  0  0  0
   19.1367   18.6971   25.5919 H   0  0  0  0  0  0  0  0  0  0  0  0
   20.6353   17.8709   26.0269 H   0  0  0  0  0  0  0  0  0  0  0  0
   20.9344   19.9269   25.3450 C   0  0  0  0  0  0  0  0  0  0  0  0
   20.3788   20.8748   25.3594 H   0  0  0  0  0  0  0  0  0  0  0  0
   21.8623   20.1029   25.9068 H   0  0  0  0  0  0  0  0  0  0  0  0
   21.2999   19.5571   23.8877 C   0  0  0  0  0  0  0  0  0  0  0  0
   21.8645   18.6147   23.8778 H   0  0  0  0  0  0  0  0  0  0  0  0
   21.9750   20.3280   23.4915 H   0  0  0  0  0  0  0  0  0  0  0  0
   20.0710   19.4383   22.9569 C   0  0  0  0  0  0  0  0  0  0  0  0
   19.4212   18.6214   23.2963 H   0  0  0  0  0  0  0  0  0  0  0  0
   19.4797   20.3627   23.0099 H   0  0  0  0  0  0  0  0  0  0  0  0
   20.4876   19.1765   21.4933 C   0  0  0  0  0  0  0  0  0  0  0  0
   21.0823   18.2543   21.4407 H   0  0  0  0  0  0  0  0  0  0  0  0
   21.1330   19.9937   21.1430 H   0  0  0  0  0  0  0  0  0  0  0  0
   19.2627   19.0534   20.5626 C   0  0  0  0  0  0  0  0  0  0  0  0
   18.6155   18.2354   20.9082 H   0  0  0  0  0  0  0  0  0  0  0  0
   18.6661   19.9749   20.6117 H   0  0  0  0  0  0  0  0  0  0  0  0
   19.6828   18.7922   19.1022 C   0  0  0  0  0  0  0  0  0  0  0  0
   20.2549   17.8588   19.0190 H   0  0  0  0  0  0  0  0  0  0  0  0
   18.8002   18.7075   18.4550 H   0  0  0  0  0  0  0  0  0  0  0  0
   20.3059   19.6115   18.7202 H   0  0  0  0  0  0  0  0  0  0  0  0
  1  2  1  0  0  0  0
  1  3  2  0  0  0  0
  1  4  1  0  0  0  0
  4  5  1  0  0  0  0
  4  6  1  0  0  0  0
  4  7  1  0  0  0  0
  7  8  1  0  0  0  0
  7  9  1  0  0  0  0
  7 10  1  0  0  0  0
 10 11  1  0  0  0  0
 10 12  1  0  0  0  0
 10 13  1  0  0  0  0
 13 14  1  0  0  0  0
 13 15  1  0  0  0  0
 13 16  1  0  0  0  0
 16 17  1  0  0  0  0
 16 18  1  0  0  0  0
 16 19  1  0  0  0  0
 19 20  1  0  0  0  0
 19 21  1  0  0  0  0
 19 22  1  0  0  0  0
 22 23  1  0  0  0  0
 22 24  1  0  0  0  0
 22 25  1  0  0  0  0
M  END
> <VM2 Rank>
2

> <Conf_Id>
821

> <Probability>
5.75

> <Sum Probability>
29.27

> <Delta G>
0.840

> <G>
-7.123

> <E>
-31.631

> <-TS>
24.509

> <U+W>
-52.199

> <U>
6.575

> <W>
-58.774

> <W(PB)>
-61.317

> <W(SA)>
2.543

> <Valence>
8.051

> <Coulomb>
-2.490

> <VdW>
1.015

> <VdW6>
-8.339

> <VdW12>
9.354

> <Bond>
0.157

> <Angle>
2.513

> <Pdih>
5.379

> <Idih>
0.001

> <Tether>
0.000

$$$$
VeraChem MOL file


 25 24  0  0  0  0  0  0  0  0999 V2000     
   20.1315   19.7075   27.5208 C   0  0  0  0  0  0  0  0  0  0  0  0
   20.9464   19.3334   28.3409 O   0  5  0  0  0  0  0  0  0  0  0  0
   19.0293   20.1290   27.8109 O   0  0  0  0  0  0  0  0  0  0  0  0
   20.5035   19.6201   26.0450 C   0  0  0  0  0  0  0  0  0  0  0  0
   21.5851   19.7774   25.9570 H   0  0  0  0  0  0  0  0  0  0  0  0
   20.0104   20.4507   25.5276 H   0  0  0  0  0  0  0  0  0  0  0  0
   20.1061   18.2641   25.4059 C   0  0  0  0  0  0  0  0  0  0  0  0
   20.5414   17.4515   26.0039 H   0  0  0  0  0  0  0  0  0  0  0  0
   19.0158   18.1387   25.4596 H   0  0  0  0  0  0  0  0  0  0  0  0
   20.5787   18.1093   23.9408 C   0  0  0  0  0  0  0  0  0  0  0  0
   20.3594   17.0848   23.6103 H   0  0  0  0  0  0  0  0  0  0  0  0
   21.6702   18.2246   23.8921 H   0  0  0  0  0  0  0  0  0  0  0  0
   19.9055   19.1060   22.9691 C   0  0  0  0  0  0  0  0  0  0  0  0
   18.8136   19.0254   23.0589 H   0  0  0  0  0  0  0  0  0  0  0  0
   20.1752   20.1347   23.2409 H   0  0  0  0  0  0  0  0  0  0  0  0
   20.3226   18.8453   21.5054 C   0  0  0  0  0  0  0  0  0  0  0  0
   20.0498   17.8194   21.2226 H   0  0  0  0  0  0  0  0  0  0  0  0
   21.4150   18.9219   21.4162 H   0  0  0  0  0  0  0  0  0  0  0  0
   19.6554   19.8415   20.5338 C   0  0  0  0  0  0  0  0  0  0  0  0
   18.5624   19.7667   20.6195 H   0  0  0  0  0  0  0  0  0  0  0  0
   19.9278   20.8691   20.8118 H   0  0  0  0  0  0  0  0  0  0  0  0
   20.0741   19.5778   19.0735 C   0  0  0  0  0  0  0  0  0  0  0  0
   19.5908   20.2946   18.3969 H   0  0  0  0  0  0  0  0  0  0  0  0
   21.1608   19.6771   18.9524 H   0  0  0  0  0  0  0  0  0  0  0  0
   19.7850   18.5666   18.7584 H   0  0  0  0  0  0  0  0  0  0  0  0
  1  2  1  0  0  0  0
  1  3  2  0  0  0  0
  1  4  1  0  0  0  0
  4  5  1  0  0  0  0
  4  6  1  0  0  0  0
  4  7  1  0  0  0  0
  7  8  1  0  0  0  0
  7  9  1  0  0  0  0
  7 10  1  0  0  0  0
 10 11  1  0  0  0  0
 10 12  1  0  0  0  0
 10 13  1  0  0  0  0
 13 14  1  0  0  0  0
 13 15  1  0  0  0  0
 13 16  1  0  0  0  0
 16 17  1  0  0  0  0
 16 18  1  0  0  0  0
 16 19  1  0  0  0  0
 19 20  1  0  0  0  0
 19 21  1  0  0  0  0
 19 22  1  0  0  0  0
 22 23  1  0  0  0  0
 22 24  1  0  0  0  0
 22 25  1  0  0  0  0
M  END
> <VM2 Rank>
3

> <Conf_Id>
832

> <Probability>
5.57

> <Sum Probability>
34.84

> <Delta G>
0.859

> <G>
-7.104

> <E>
-31.612

> <-TS>
24.508

> <U+W>
-52.180

> <U>
6.575

> <W>
-58.755

> <W(PB)>
-61.293

> <W(SA)>
2.538

> <Valence>
8.050

> <Coulomb>
-2.490

> <VdW>
1.015

> <VdW6>
-8.339

> <VdW12>
9.354

> <Bond>
0.157

> <Angle>
2.513

> <Pdih>
5.379

> <Idih>
0.001

> <Tether>
0.000

$$$$
VeraChem MOL file


 25 24  0  0  0  0  0  0  0  0999 V2000     
   20.1304   19.1678   27.7051 C   0  0  0  0  0  0  0  0  0  0  0  0
   21.2276   19.2434   28.2218 O   0  5  0  0  0  0  0  0  0  0  0  0
   19.2271   18.4812   28.1399 O   0  0  0  0  0  0  0  0  0  0  0  0
   19.8807   19.9606   26.4271 C   0  0  0  0  0  0  0  0  0  0  0  0
   20.4731   20.8821   26.4766 H   0  0  0  0  0  0  0  0  0  0  0  0
   18.8243   20.2546   26.4096 H   0  0  0  0  0  0  0  0  0  0  0  0
   20.2355   19.1650   25.1468 C   0  0  0  0  0  0  0  0  0  0  0  0
   21.2925   18.8669   25.1860 H   0  0  0  0  0  0  0  0  0  0  0  0
   19.6440   18.2393   25.1192 H   0  0  0  0  0  0  0  0  0  0  0  0
   19.9739   19.9884   23.8671 C   0  0  0  0  0  0  0  0  0  0  0  0
   20.5655   20.9137   23.8990 H   0  0  0  0  0  0  0  0  0  0  0  0
   18.9167   20.2854   23.8311 H   0  0  0  0  0  0  0  0  0  0  0  0
   20.3287   19.1927   22.5924 C   0  0  0  0  0  0  0  0  0  0  0  0
   21.3866   18.8985   22.6261 H   0  0  0  0  0  0  0  0  0  0  0  0
   19.7386   18.2673   22.5702 H   0  0  0  0  0  0  0  0  0  0  0  0
   20.0627   20.0173   21.3117 C   0  0  0  0  0  0  0  0  0  0  0  0
   20.6043   20.9705   21.3814 H   0  0  0  0  0  0  0  0  0  0  0  0
   18.9954   20.2698   21.2490 H   0  0  0  0  0  0  0  0  0  0  0  0
   20.5008   19.2976   20.0148 C   0  0  0  0  0  0  0  0  0  0  0  0
   20.3879   19.9922   19.1710 H   0  0  0  0  0  0  0  0  0  0  0  0
   21.5696   19.0492   20.0712 H   0  0  0  0  0  0  0  0  0  0  0  0
   19.6855   18.0200   19.7193 C   0  0  0  0  0  0  0  0  0  0  0  0
   18.6101   18.2385   19.6879 H   0  0  0  0  0  0  0  0  0  0  0  0
   19.9729   17.5974   18.7478 H   0  0  0  0  0  0  0  0  0  0  0  0
   19.8585   17.2491   20.4806 H   0  0  0  0  0  0  0  0  0  0  0  0
  1  2  1  0  0  0  0
  1  3  2  0  0  0  0
  1  4  1  0  0  0  0
  4  5  1  0  0  0  0
  4  6  1  0  0  0  0
  4  7  1  0  0  0  0
  7  8  1  0  0  0  0
  7  9  1  0  0  0  0
  7 10  1  0  0  0  0
 10 11  1  0  0  0  0
 10 12  1  0  0  0  0
 10 13  1  0  0  0  0
 13 14  1  0  0  0  0
 13 15  1  0  0  0  0
 13 16  1  0  0  0  0
 16 17  1  0  0  0  0
 16 18  1  0  0  0  0
 16 19  1  0  0  0  0
 19 20  1  0  0  0  0
 19 21  1  0  0  0  0
 19 22  1  0  0  0  0
 22 23  1  0  0  0  0
 22 24  1  0  0  0  0
 22 25  1  0  0  0  0
M  END
> <VM2 Rank>
4

> <Conf_Id>
484

> <Probability>
5.13

> <Sum Probability>
39.97

> <Delta G>
0.908

> <G>
-7.055

> <E>
-31.563

> <-TS>
24.508

> <U+W>
-52.130

> <U>
6.630

> <W>
-58.760

> <W(PB)>
-61.281

> <W(SA)>
2.521

> <Valence>
8.032

> <Coulomb>
-2.441

> <VdW>
1.039

> <VdW6>
-8.257

> <VdW12>
9.295

> <Bond>
0.146

> <Angle>
2.498

> <Pdih>
5.387

> <Idih>
0.001

> <Tether>
0.000

$$$$
VeraChem MOL file


 25 24  0  0  0  0  0  0  0  0999 V2000     
   20.0214   19.1706   27.6698 C   0  0  0  0  0  0  0  0  0  0  0  0
   21.0603   19.2686   28.2925 O   0  5  0  0  0  0  0  0  0  0  0  0
   18.9408   19.5177   28.1039 O   0  0  0  0  0  0  0  0  0  0  0  0
   20.0802   18.6011   26.2569 C   0  0  0  0  0  0  0  0  0  0  0  0
   19.1420   18.0665   26.0659 H   0  0  0  0  0  0  0  0  0  0  0  0
   20.8884   17.8607   26.2214 H   0  0  0  0  0  0  0  0  0  0  0  0
   20.3046   19.6897   25.1786 C   0  0  0  0  0  0  0  0  0  0  0  0
   19.4943   20.4298   25.2358 H   0  0  0  0  0  0  0  0  0  0  0  0
   21.2406   20.2242   25.3923 H   0  0  0  0  0  0  0  0  0  0  0  0
   20.3602   19.0883   23.7574 C   0  0  0  0  0  0  0  0  0  0  0  0
   19.4241   18.5507   23.5583 H   0  0  0  0  0  0  0  0  0  0  0  0
   21.1726   18.3509   23.7025 H   0  0  0  0  0  0  0  0  0  0  0  0
   20.5801   20.1797   22.6845 C   0  0  0  0  0  0  0  0  0  0  0  0
   19.7414   20.8891   22.7001 H   0  0  0  0  0  0  0  0  0  0  0  0
   21.4793   20.7562   22.9412 H   0  0  0  0  0  0  0  0  0  0  0  0
   20.7531   19.6138   21.2548 C   0  0  0  0  0  0  0  0  0  0  0  0
   21.5945   18.9077   21.2378 H   0  0  0  0  0  0  0  0  0  0  0  0
   21.0278   20.4399   20.5847 H   0  0  0  0  0  0  0  0  0  0  0  0
   19.4832   18.9246   20.7062 C   0  0  0  0  0  0  0  0  0  0  0  0
   19.2355   18.0465   21.3169 H   0  0  0  0  0  0  0  0  0  0  0  0
   18.6296   19.6131   20.7730 H   0  0  0  0  0  0  0  0  0  0  0  0
   19.6691   18.4800   19.2414 C   0  0  0  0  0  0  0  0  0  0  0  0
   20.5003   17.7686   19.1497 H   0  0  0  0  0  0  0  0  0  0  0  0
   18.7607   17.9898   18.8678 H   0  0  0  0  0  0  0  0  0  0  0  0
   19.8807   19.3403   18.5930 H   0  0  0  0  0  0  0  0  0  0  0  0
  1  2  1  0  0  0  0
  1  3  2  0  0  0  0
  1  4  1  0  0  0  0
  4  5  1  0  0  0  0
  4  6  1  0  0  0  0
  4  7  1  0  0  0  0
  7  8  1  0  0  0  0
  7  9  1  0  0  0  0
  7 10  1  0  0  0  0
 10 11  1  0  0  0  0
 10 12  1  0  0  0  0
 10 13  1  0  0  0  0
 13 14  1  0  0  0  0
 13 15  1  0  0  0  0
 13 16  1  0  0  0  0
 16 17  1  0  0  0  0
 16 18  1  0  0  0  0
 16 19  1  0  0  0  0
 19 20  1  0  0  0  0
 19 21  1  0  0  0  0
 19 22  1  0  0  0  0
 22 23  1  0  0  0  0
 22 24  1  0  0  0  0
 22 25  1  0  0  0  0
M  END
> <VM2 Rank>
5

> <Conf_Id>
1009

> <Probability>
5.04

> <Sum Probability>
45.01

> <Delta G>
0.918

> <G>
-7.044

> <E>
-31.544

> <-TS>
24.499

> <U+W>
-52.111

> <U>
6.583

> <W>
-58.695

> <W(PB)>
-61.197

> <W(SA)>
2.502

> <Valence>
8.068

> <Coulomb>
-2.516

> <VdW>
1.031

> <VdW6>
-8.305

> <VdW12>
9.335

> <Bond>
0.150

> <Angle>
2.522

> <Pdih>
5.396

> <Idih>
0.001

> <Tether>
0.000

$$$$
VeraChem MOL file


 25 24  0  0  0  0  0  0  0  0999 V2000     
   20.3738   19.6427   27.4433 C   0  0  0  0  0  0  0  0  0  0  0  0
   21.5153   20.0321   27.5913 O   0  5  0  0  0  0  0  0  0  0  0  0
   19.4211   20.1083   28.0370 O   0  0  0  0  0  0  0  0  0  0  0  0
   20.1198   18.5218   26.4417 C   0  0  0  0  0  0  0  0  0  0  0  0
   19.2737   17.9262   26.8047 H   0  0  0  0  0  0  0  0  0  0  0  0
   20.9987   17.8661   26.4341 H   0  0  0  0  0  0  0  0  0  0  0  0
   19.8321   19.0459   25.0131 C   0  0  0  0  0  0  0  0  0  0  0  0
   18.9554   19.7078   25.0393 H   0  0  0  0  0  0  0  0  0  0  0  0
   20.6833   19.6547   24.6808 H   0  0  0  0  0  0  0  0  0  0  0  0
   19.5831   17.8893   24.0174 C   0  0  0  0  0  0  0  0  0  0  0  0
   18.7802   17.2489   24.4076 H   0  0  0  0  0  0  0  0  0  0  0  0
   20.4796   17.2579   23.9508 H   0  0  0  0  0  0  0  0  0  0  0  0
   19.1820   18.3697   22.6024 C   0  0  0  0  0  0  0  0  0  0  0  0
   18.9052   17.4919   22.0027 H   0  0  0  0  0  0  0  0  0  0  0  0
   18.2826   18.9971   22.6681 H   0  0  0  0  0  0  0  0  0  0  0  0
   20.3046   19.1428   21.8721 C   0  0  0  0  0  0  0  0  0  0  0  0
   21.2192   18.5344   21.8562 H   0  0  0  0  0  0  0  0  0  0  0  0
   20.5418   20.0648   22.4186 H   0  0  0  0  0  0  0  0  0  0  0  0
   19.9012   19.5035   20.4268 C   0  0  0  0  0  0  0  0  0  0  0  0
   19.6694   18.5871   19.8666 H   0  0  0  0  0  0  0  0  0  0  0  0
   18.9855   20.1108   20.4388 H   0  0  0  0  0  0  0  0  0  0  0  0
   21.0200   20.2777   19.7010 C   0  0  0  0  0  0  0  0  0  0  0  0
   21.9397   19.6806   19.6474 H   0  0  0  0  0  0  0  0  0  0  0  0
   20.7165   20.5255   18.6755 H   0  0  0  0  0  0  0  0  0  0  0  0
   21.2504   21.2160   20.2224 H   0  0  0  0  0  0  0  0  0  0  0  0
  1  2  1  0  0  0  0
  1  3  2  0  0  0  0
  1  4  1  0  0  0  0
  4  5  1  0  0  0  0
  4  6  1  0  0  0  0
  4  7  1  0  0  0  0
  7  8  1  0  0  0  0
  7  9  1  0  0  0  0
  7 10  1  0  0  0  0
 10 11  1  0  0  0  0
 10 12  1  0  0  0  0
 10 13  1  0  0  0  0
 13 14  1  0  0  0  0
 13 15  1  0  0  0  0
 13 16  1  0  0  0  0
 16 17  1  0  0  0  0
 16 18  1  0  0  0  0
 16 19  1  0  0  0  0
 19 20  1  0  0  0  0
 19 21  1  0  0  0  0
 19 22  1  0  0  0  0
 22 23  1  0  0  0  0
 22 24  1  0  0  0  0
 22 25  1  0  0  0  0
M  END
> <VM2 Rank>
6

> <Conf_Id>
1085

> <Probability>
4.98

> <Sum Probability>
49.99

> <Delta G>
0.926

> <G>
-7.037

> <E>
-31.542

> <-TS>
24.506

> <U+W>
-52.110

> <U>
7.044

> <W>
-59.154

> <W(PB)>
-61.665

> <W(SA)>
2.511

> <Valence>
8.064

> <Coulomb>
-2.027

> <VdW>
1.007

> <VdW6>
-8.345

> <VdW12>
9.352

> <Bond>
0.151

> <Angle>
2.518

> <Pdih>
5.395

> <Idih>
0.001

> <Tether>
0.000

$$$$
VeraChem MOL file


 25 24  0  0  0  0  0  0  0  0999 V2000     
   20.3158   19.1892   27.6664 C   0  0  0  0  0  0  0  0  0  0  0  0
   21.3534   19.6711   28.0763 O   0  5  0  0  0  0  0  0  0  0  0  0
   19.2874   19.1556   28.3129 O   0  0  0  0  0  0  0  0  0  0  0  0
   20.2974   18.6149   26.2544 C   0  0  0  0  0  0  0  0  0  0  0  0
   19.5889   17.7781   26.2361 H   0  0  0  0  0  0  0  0  0  0  0  0
   21.2912   18.2032   26.0412 H   0  0  0  0  0  0  0  0  0  0  0  0
   19.9125   19.6648   25.1831 C   0  0  0  0  0  0  0  0  0  0  0  0
   18.9215   20.0769   25.4190 H   0  0  0  0  0  0  0  0  0  0  0  0
   20.6237   20.5016   25.2229 H   0  0  0  0  0  0  0  0  0  0  0  0
   19.9008   19.0593   23.7627 C   0  0  0  0  0  0  0  0  0  0  0  0
   19.1871   18.2249   23.7254 H   0  0  0  0  0  0  0  0  0  0  0  0
   20.8926   18.6441   23.5413 H   0  0  0  0  0  0  0  0  0  0  0  0
   19.5199   20.1125   22.6967 C   0  0  0  0  0  0  0  0  0  0  0  0
   18.5612   20.5711   22.9751 H   0  0  0  0  0  0  0  0  0  0  0  0
   20.2624   20.9223   22.6940 H   0  0  0  0  0  0  0  0  0  0  0  0
   19.3868   19.5272   21.2706 C   0  0  0  0  0  0  0  0  0  0  0  0
   18.9946   20.3110   20.6082 H   0  0  0  0  0  0  0  0  0  0  0  0
   18.6412   18.7204   21.2721 H   0  0  0  0  0  0  0  0  0  0  0  0
   20.7205   19.0030   20.6919 C   0  0  0  0  0  0  0  0  0  0  0  0
   21.4817   19.7940   20.7399 H   0  0  0  0  0  0  0  0  0  0  0  0
   21.0912   18.1642   21.2954 H   0  0  0  0  0  0  0  0  0  0  0  0
   20.5585   18.5363   19.2311 C   0  0  0  0  0  0  0  0  0  0  0  0
   20.2249   19.3620   18.5890 H   0  0  0  0  0  0  0  0  0  0  0  0
   21.5127   18.1642   18.8359 H   0  0  0  0  0  0  0  0  0  0  0  0
   19.8219   17.7255   19.1576 H   0  0  0  0  0  0  0  0  0  0  0  0
  1  2  1  0  0  0  0
  1  3  2  0  0  0  0
  1  4  1  0  0  0  0
  4  5  1  0  0  0  0
  4  6  1  0  0  0  0
  4  7  1  0  0  0  0
  7  8  1  0  0  0  0
  7  9  1  0  0  0  0
  7 10  1  0  0  0  0
 10 11  1  0  0  0  0
 10 12  1  0  0  0  0
 10 13  1  0  0  0  0
 13 14  1  0  0  0  0
 13 15  1  0  0  0  0
 13 16  1  0  0  0  0
 16 17  1  0  0  0  0
 16 18  1  0  0  0  0
 16 19  1  0  0  0  0
 19 20  1  0  0  0  0
 19 21  1  0  0  0  0
 19 22  1  0  0  0  0
 22 23  1  0  0  0  0
 22 24  1  0  0  0  0
 22 25  1  0  0  0  0
M  END
> <VM2 Rank>
7

> <Conf_Id>
738

> <Probability>
4.77

> <Sum Probability>
54.77

> <Delta G>
0.951

> <G>
-7.012

> <E>
-31.511

> <-TS>
24.499

> <U+W>
-52.078

> <U>
6.583

> <W>
-58.662

> <W(PB)>
-61.145

> <W(SA)>
2.483

> <Valence>
8.068

> <Coulomb>
-2.516

> <VdW>
1.031

> <VdW6>
-8.305

> <VdW12>
9.336

> <Bond>
0.150

> <Angle>
2.522

> <Pdih>
5.396

> <Idih>
0.001

> <Tether>
0.000

$$$$
VeraChem MOL file


 25 24  0  0  0  0  0  0  0  0999 V2000     
   20.0591   19.4466   27.7000 C   0  0  0  0  0  0  0  0  0  0  0  0
   21.0532   19.9252   28.2092 O   0  5  0  0  0  0  0  0  0  0  0  0
   18.9333   19.6288   28.1195 O   0  0  0  0  0  0  0  0  0  0  0  0
   20.2320   18.5882   26.4520 C   0  0  0  0  0  0  0  0  0  0  0  0
   19.4469   17.8225   26.4538 H   0  0  0  0  0  0  0  0  0  0  0  0
   21.1937   18.0667   26.5278 H   0  0  0  0  0  0  0  0  0  0  0  0
   20.1722   19.4122   25.1423 C   0  0  0  0  0  0  0  0  0  0  0  0
   19.2090   19.9384   25.0883 H   0  0  0  0  0  0  0  0  0  0  0  0
   20.9557   20.1825   25.1620 H   0  0  0  0  0  0  0  0  0  0  0  0
   20.3494   18.5212   23.8938 C   0  0  0  0  0  0  0  0  0  0  0  0
   19.5652   17.7520   23.8771 H   0  0  0  0  0  0  0  0  0  0  0  0
   21.3124   17.9955   23.9520 H   0  0  0  0  0  0  0  0  0  0  0  0
   20.2896   19.3455   22.5896 C   0  0  0  0  0  0  0  0  0  0  0  0
   19.3277   19.8723   22.5410 H   0  0  0  0  0  0  0  0  0  0  0  0
   21.0757   20.1127   22.6041 H   0  0  0  0  0  0  0  0  0  0  0  0
   20.4636   18.4515   21.3401 C   0  0  0  0  0  0  0  0  0  0  0  0
   19.6494   17.7153   21.2954 H   0  0  0  0  0  0  0  0  0  0  0  0
   21.3959   17.8786   21.4376 H   0  0  0  0  0  0  0  0  0  0  0  0
   20.5135   19.2484   20.0157 C   0  0  0  0  0  0  0  0  0  0  0  0
   21.3310   19.9815   20.0543 H   0  0  0  0  0  0  0  0  0  0  0  0
   20.7555   18.5567   19.1971 H   0  0  0  0  0  0  0  0  0  0  0  0
   19.1873   19.9664   19.6838 C   0  0  0  0  0  0  0  0  0  0  0  0
   19.2449   20.4417   18.6961 H   0  0  0  0  0  0  0  0  0  0  0  0
   18.3494   19.2572   19.6692 H   0  0  0  0  0  0  0  0  0  0  0  0
   18.9619   20.7510   20.4169 H   0  0  0  0  0  0  0  0  0  0  0  0
  1  2  1  0  0  0  0
  1  3  2  0  0  0  0
  1  4  1  0  0  0  0
  4  5  1  0  0  0  0
  4  6  1  0  0  0  0
  4  7  1  0  0  0  0
  7  8  1  0  0  0  0
  7  9  1  0  0  0  0
  7 10  1  0  0  0  0
 10 11  1  0  0  0  0
 10 12  1  0  0  0  0
 10 13  1  0  0  0  0
 13 14  1  0  0  0  0
 13 15  1  0  0  0  0
 13 16  1  0  0  0  0
 16 17  1  0  0  0  0
 16 18  1  0  0  0  0
 16 19  1  0  0  0  0
 19 20  1  0  0  0  0
 19 21  1  0  0  0  0
 19 22  1  0  0  0  0
 22 23  1  0  0  0  0
 22 24  1  0  0  0  0
 22 25  1  0  0  0  0
M  END
> <VM2 Rank>
8

> <Conf_Id>
939

> <Probability>
4.77

> <Sum Probability>
59.53

> <Delta G>
0.951

> <G>
-7.011

> <E>
-31.519

> <-TS>
24.508

> <U+W>
-52.086

> <U>
6.630

> <W>
-58.716

> <W(PB)>
-61.242

> <W(SA)>
2.525

> <Valence>
8.032

> <Coulomb>
-2.441

> <VdW>
1.039

> <VdW6>
-8.256

> <VdW12>
9.295

> <Bond>
0.146

> <Angle>
2.498

> <Pdih>
5.387

> <Idih>
0.001

> <Tether>
0.000

$$$$
