@<TRIPOS>MOLECULE
guest-s11_vm2.mol2 : vm2 ligand conformer 1
          20          19           1
SMALL
USER_CHARGES
 
@<TRIPOS>ATOM
       1    N1      19.735797   18.939072   25.647864 N.4        1 MOL1        -0.5919
       2    H1      19.533204   17.936093   25.705962 H          1 MOL1         0.3682
       3    H2      20.263143   19.185090   26.492247 H          1 MOL1         0.3682
       4    H3      18.838634   19.431337   25.704094 H          1 MOL1         0.3682
       5    C1      20.497257   19.291210   24.385853 C.3        1 MOL1         0.0252
       6    H4      21.451121   18.757160   24.407079 H          1 MOL1         0.0971
       7    H5      20.704438   20.364626   24.405086 H          1 MOL1         0.0971
       8    C2      19.732586   18.934414   23.098513 C.3        1 MOL1        -0.1369
       9    H6      19.512772   17.858454   23.090956 H          1 MOL1         0.0997
      10    H7      18.768535   19.460325   23.089050 H          1 MOL1         0.0997
      11    C3      20.542081   19.309013   21.837114 C.3        1 MOL1        -0.1329
      12    H8      21.508067   18.785155   21.852445 H          1 MOL1         0.0997
      13    H9      20.764695   20.385142   21.850534 H          1 MOL1         0.0997
      14    C4      19.783857   18.955187   20.538098 C.3        1 MOL1        -0.1305
      15    H10     19.560949   17.879075   20.519609 H          1 MOL1         0.0997
      16    H11     18.817762   19.478916   20.517636 H          1 MOL1         0.0997
      17    C5      20.596422   19.331103   19.280559 C.3        1 MOL1        -0.2320
      18    H12     20.042081   19.072390   18.369067 H          1 MOL1         0.1008
      19    H13     20.805617   20.408453   19.252852 H          1 MOL1         0.1008
      20    H14     21.554721   18.796108   19.254909 H          1 MOL1         0.1008
@<TRIPOS>BOND
    1     1     2    1
    2     1     3    1
    3     1     4    1
    4     1     5    1
    5     5     6    1
    6     5     7    1
    7     5     8    1
    8     8     9    1
    9     8    10    1
   10     8    11    1
   11    11    12    1
   12    11    13    1
   13    11    14    1
   14    14    15    1
   15    14    16    1
   16    14    17    1
   17    17    18    1
   18    17    19    1
   19    17    20    1
@<TRIPOS>SUBSTRUCTURE
       1 MOL1            1 RESIDUE      1      MOL     
@<SCITEGIC>MOL_PROPERTY
VM2 Rank
SciTegic.value.IntegerValue
1

@<SCITEGIC>MOL_PROPERTY
Conf_Id
SciTegic.value.IntegerValue
275

@<SCITEGIC>MOL_PROPERTY
Probability
SciTegic.value.DoubleValue
18.27

@<SCITEGIC>MOL_PROPERTY
Sum Probability
SciTegic.value.DoubleValue
18.27

@<SCITEGIC>MOL_PROPERTY
Delta G
SciTegic.value.DoubleValue
0.000

@<SCITEGIC>MOL_PROPERTY
G
SciTegic.value.DoubleValue
27.007

@<SCITEGIC>MOL_PROPERTY
E
SciTegic.value.DoubleValue
4.319

@<SCITEGIC>MOL_PROPERTY
-TS
SciTegic.value.DoubleValue
22.689

@<SCITEGIC>MOL_PROPERTY
U+W
SciTegic.value.DoubleValue
-11.778

@<SCITEGIC>MOL_PROPERTY
U
SciTegic.value.DoubleValue
45.772

@<SCITEGIC>MOL_PROPERTY
W
SciTegic.value.DoubleValue
-57.550

@<SCITEGIC>MOL_PROPERTY
W(PB)
SciTegic.value.DoubleValue
-59.511

@<SCITEGIC>MOL_PROPERTY
W(SA)
SciTegic.value.DoubleValue
1.961

@<SCITEGIC>MOL_PROPERTY
Valence
SciTegic.value.DoubleValue
1.299

@<SCITEGIC>MOL_PROPERTY
Coulomb
SciTegic.value.DoubleValue
44.177

@<SCITEGIC>MOL_PROPERTY
VdW
SciTegic.value.DoubleValue
0.297

@<SCITEGIC>MOL_PROPERTY
VdW6
SciTegic.value.DoubleValue
-3.490

@<SCITEGIC>MOL_PROPERTY
VdW12
SciTegic.value.DoubleValue
3.786

@<SCITEGIC>MOL_PROPERTY
Bond
SciTegic.value.DoubleValue
0.096

@<SCITEGIC>MOL_PROPERTY
Angle
SciTegic.value.DoubleValue
0.381

@<SCITEGIC>MOL_PROPERTY
Pdih
SciTegic.value.DoubleValue
0.822

@<SCITEGIC>MOL_PROPERTY
Idih
SciTegic.value.DoubleValue
0.000

@<SCITEGIC>MOL_PROPERTY
Tether
SciTegic.value.DoubleValue
0.000

@<TRIPOS>MOLECULE
guest-s11_vm2.mol2 : vm2 ligand conformer 2
          20          19           1
SMALL
USER_CHARGES
 
@<TRIPOS>ATOM
       1    N1      20.606863   18.391955   25.032395 N.4        1 MOL1        -0.5919
       2    H1      20.967735   18.535909   25.981379 H          1 MOL1         0.3682
       3    H2      19.988772   17.575383   25.069615 H          1 MOL1         0.3682
       4    H3      21.406598   18.139848   24.444256 H          1 MOL1         0.3682
       5    C1      19.887950   19.621375   24.511270 C.3        1 MOL1         0.0252
       6    H4      20.593446   20.456625   24.520221 H          1 MOL1         0.0971
       7    H5      19.078580   19.852654   25.209154 H          1 MOL1         0.0971
       8    C2      19.306228   19.449066   23.094430 C.3        1 MOL1        -0.1369
       9    H6      18.602156   18.606342   23.087285 H          1 MOL1         0.0997
      10    H7      18.722983   20.346148   22.847373 H          1 MOL1         0.0997
      11    C3      20.399245   19.236709   22.019995 C.3        1 MOL1        -0.1329
      12    H8      20.964565   18.320710   22.237637 H          1 MOL1         0.0997
      13    H9      21.115495   20.069374   22.056589 H          1 MOL1         0.0997
      14    C4      19.797977   19.136927   20.600150 C.3        1 MOL1        -0.1305
      15    H10     19.079979   18.305777   20.558768 H          1 MOL1         0.0997
      16    H11     19.235682   20.052702   20.369494 H          1 MOL1         0.0997
      17    C5      20.889738   18.923969   19.529760 C.3        1 MOL1        -0.2320
      18    H12     20.443585   18.856319   18.529057 H          1 MOL1         0.1008
      19    H13     21.604867   19.756894   19.523781 H          1 MOL1         0.1008
      20    H14     21.447193   17.996155   19.713061 H          1 MOL1         0.1008
@<TRIPOS>BOND
    1     1     2    1
    2     1     3    1
    3     1     4    1
    4     1     5    1
    5     5     6    1
    6     5     7    1
    7     5     8    1
    8     8     9    1
    9     8    10    1
   10     8    11    1
   11    11    12    1
   12    11    13    1
   13    11    14    1
   14    14    15    1
   15    14    16    1
   16    14    17    1
   17    17    18    1
   18    17    19    1
   19    17    20    1
@<TRIPOS>SUBSTRUCTURE
       1 MOL1            1 RESIDUE      1      MOL     
@<SCITEGIC>MOL_PROPERTY
VM2 Rank
SciTegic.value.IntegerValue
2

@<SCITEGIC>MOL_PROPERTY
Conf_Id
SciTegic.value.IntegerValue
320

@<SCITEGIC>MOL_PROPERTY
Probability
SciTegic.value.DoubleValue
11.03

@<SCITEGIC>MOL_PROPERTY
Sum Probability
SciTegic.value.DoubleValue
29.30

@<SCITEGIC>MOL_PROPERTY
Delta G
SciTegic.value.DoubleValue
0.301

@<SCITEGIC>MOL_PROPERTY
G
SciTegic.value.DoubleValue
27.308

@<SCITEGIC>MOL_PROPERTY
E
SciTegic.value.DoubleValue
4.519

@<SCITEGIC>MOL_PROPERTY
-TS
SciTegic.value.DoubleValue
22.789

@<SCITEGIC>MOL_PROPERTY
U+W
SciTegic.value.DoubleValue
-11.577

@<SCITEGIC>MOL_PROPERTY
U
SciTegic.value.DoubleValue
46.423

@<SCITEGIC>MOL_PROPERTY
W
SciTegic.value.DoubleValue
-58.000

@<SCITEGIC>MOL_PROPERTY
W(PB)
SciTegic.value.DoubleValue
-59.939

@<SCITEGIC>MOL_PROPERTY
W(SA)
SciTegic.value.DoubleValue
1.939

@<SCITEGIC>MOL_PROPERTY
Valence
SciTegic.value.DoubleValue
1.410

@<SCITEGIC>MOL_PROPERTY
Coulomb
SciTegic.value.DoubleValue
44.613

@<SCITEGIC>MOL_PROPERTY
VdW
SciTegic.value.DoubleValue
0.400

@<SCITEGIC>MOL_PROPERTY
VdW6
SciTegic.value.DoubleValue
-4.001

@<SCITEGIC>MOL_PROPERTY
VdW12
SciTegic.value.DoubleValue
4.401

@<SCITEGIC>MOL_PROPERTY
Bond
SciTegic.value.DoubleValue
0.117

@<SCITEGIC>MOL_PROPERTY
Angle
SciTegic.value.DoubleValue
0.430

@<SCITEGIC>MOL_PROPERTY
Pdih
SciTegic.value.DoubleValue
0.863

@<SCITEGIC>MOL_PROPERTY
Idih
SciTegic.value.DoubleValue
0.000

@<SCITEGIC>MOL_PROPERTY
Tether
SciTegic.value.DoubleValue
0.000

@<TRIPOS>MOLECULE
guest-s11_vm2.mol2 : vm2 ligand conformer 3
          20          19           1
SMALL
USER_CHARGES
 
@<TRIPOS>ATOM
       1    N1      19.879824   19.956297   25.030459 N.4        1 MOL1        -0.5919
       2    H1      18.857092   20.010395   25.066553 H          1 MOL1         0.3682
       3    H2      20.221596   20.141239   25.979411 H          1 MOL1         0.3682
       4    H3      20.203331   20.728966   24.441080 H          1 MOL1         0.3682
       5    C1      20.356566   18.613046   24.512504 C.3        1 MOL1         0.0252
       6    H4      20.010855   17.846663   25.211613 H          1 MOL1         0.0971
       7    H5      21.449887   18.613814   24.522481 H          1 MOL1         0.0971
       8    C2      19.851110   18.276630   23.095868 C.3        1 MOL1        -0.1369
       9    H6      20.160889   17.251865   22.851201 H          1 MOL1         0.0997
      10    H7      18.752994   18.281916   23.087666 H          1 MOL1         0.0997
      11    C3      20.394667   19.246771   22.019968 C.3        1 MOL1        -0.1329
      12    H8      21.492926   19.257146   22.057428 H          1 MOL1         0.0997
      13    H9      20.059114   20.270017   22.235331 H          1 MOL1         0.0997
      14    C4      19.931739   18.848862   20.600532 C.3        1 MOL1        -0.1305
      15    H10     20.269022   17.828025   20.372162 H          1 MOL1         0.0997
      16    H11     18.833513   18.836237   20.558288 H          1 MOL1         0.0997
      17    C5      20.474093   19.818394   19.528669 C.3        1 MOL1        -0.2320
      18    H12     20.135282   19.519229   18.528298 H          1 MOL1         0.1008
      19    H13     20.124672   20.843236   19.709767 H          1 MOL1         0.1008
      20    H14     21.571863   19.827455   19.523447 H          1 MOL1         0.1008
@<TRIPOS>BOND
    1     1     2    1
    2     1     3    1
    3     1     4    1
    4     1     5    1
    5     5     6    1
    6     5     7    1
    7     5     8    1
    8     8     9    1
    9     8    10    1
   10     8    11    1
   11    11    12    1
   12    11    13    1
   13    11    14    1
   14    14    15    1
   15    14    16    1
   16    14    17    1
   17    17    18    1
   18    17    19    1
   19    17    20    1
@<TRIPOS>SUBSTRUCTURE
       1 MOL1            1 RESIDUE      1      MOL     
@<SCITEGIC>MOL_PROPERTY
VM2 Rank
SciTegic.value.IntegerValue
3

@<SCITEGIC>MOL_PROPERTY
Conf_Id
SciTegic.value.IntegerValue
117

@<SCITEGIC>MOL_PROPERTY
Probability
SciTegic.value.DoubleValue
10.32

@<SCITEGIC>MOL_PROPERTY
Sum Probability
SciTegic.value.DoubleValue
39.62

@<SCITEGIC>MOL_PROPERTY
Delta G
SciTegic.value.DoubleValue
0.340

@<SCITEGIC>MOL_PROPERTY
G
SciTegic.value.DoubleValue
27.347

@<SCITEGIC>MOL_PROPERTY
E
SciTegic.value.DoubleValue
4.558

@<SCITEGIC>MOL_PROPERTY
-TS
SciTegic.value.DoubleValue
22.789

@<SCITEGIC>MOL_PROPERTY
U+W
SciTegic.value.DoubleValue
-11.538

@<SCITEGIC>MOL_PROPERTY
U
SciTegic.value.DoubleValue
46.423

@<SCITEGIC>MOL_PROPERTY
W
SciTegic.value.DoubleValue
-57.961

@<SCITEGIC>MOL_PROPERTY
W(PB)
SciTegic.value.DoubleValue
-59.893

@<SCITEGIC>MOL_PROPERTY
W(SA)
SciTegic.value.DoubleValue
1.932

@<SCITEGIC>MOL_PROPERTY
Valence
SciTegic.value.DoubleValue
1.410

@<SCITEGIC>MOL_PROPERTY
Coulomb
SciTegic.value.DoubleValue
44.613

@<SCITEGIC>MOL_PROPERTY
VdW
SciTegic.value.DoubleValue
0.400

@<SCITEGIC>MOL_PROPERTY
VdW6
SciTegic.value.DoubleValue
-4.001

@<SCITEGIC>MOL_PROPERTY
VdW12
SciTegic.value.DoubleValue
4.401

@<SCITEGIC>MOL_PROPERTY
Bond
SciTegic.value.DoubleValue
0.117

@<SCITEGIC>MOL_PROPERTY
Angle
SciTegic.value.DoubleValue
0.430

@<SCITEGIC>MOL_PROPERTY
Pdih
SciTegic.value.DoubleValue
0.863

@<SCITEGIC>MOL_PROPERTY
Idih
SciTegic.value.DoubleValue
0.000

@<SCITEGIC>MOL_PROPERTY
Tether
SciTegic.value.DoubleValue
0.000

@<TRIPOS>MOLECULE
guest-s11_vm2.mol2 : vm2 ligand conformer 4
          20          19           1
SMALL
USER_CHARGES
 
@<TRIPOS>ATOM
       1    N1      19.644465   19.320540   25.442542 N.4        1 MOL1        -0.5919
       2    H1      18.698070   18.927569   25.458734 H          1 MOL1         0.3682
       3    H2      20.249860   18.668735   25.951472 H          1 MOL1         0.3682
       4    H3      19.615722   20.187697   25.989138 H          1 MOL1         0.3682
       5    C1      20.133712   19.561724   24.028739 C.3        1 MOL1         0.0252
       6    H4      21.131001   20.005990   24.087769 H          1 MOL1         0.0971
       7    H5      19.461996   20.285834   23.560585 H          1 MOL1         0.0971
       8    C2      20.188602   18.276859   23.180447 C.3        1 MOL1        -0.1369
       9    H6      20.831348   17.542200   23.683514 H          1 MOL1         0.0997
      10    H7      19.187178   17.830012   23.121762 H          1 MOL1         0.0997
      11    C3      20.731754   18.524848   21.753212 C.3        1 MOL1        -0.1329
      12    H8      20.830713   17.557905   21.240684 H          1 MOL1         0.0997
      13    H9      21.744052   18.948106   21.814397 H          1 MOL1         0.0997
      14    C4      19.827281   19.455588   20.910845 C.3        1 MOL1        -0.1305
      15    H10     18.807069   19.048354   20.875004 H          1 MOL1         0.0997
      16    H11     19.757468   20.445237   21.382382 H          1 MOL1         0.0997
      17    C5      20.362186   19.620441   19.472215 C.3        1 MOL1        -0.2320
      18    H12     20.407898   18.653623   18.954160 H          1 MOL1         0.1008
      19    H13     19.709721   20.283646   18.889555 H          1 MOL1         0.1008
      20    H14     21.370052   20.055672   19.473164 H          1 MOL1         0.1008
@<TRIPOS>BOND
    1     1     2    1
    2     1     3    1
    3     1     4    1
    4     1     5    1
    5     5     6    1
    6     5     7    1
    7     5     8    1
    8     8     9    1
    9     8    10    1
   10     8    11    1
   11    11    12    1
   12    11    13    1
   13    11    14    1
   14    14    15    1
   15    14    16    1
   16    14    17    1
   17    17    18    1
   18    17    19    1
   19    17    20    1
@<TRIPOS>SUBSTRUCTURE
       1 MOL1            1 RESIDUE      1      MOL     
@<SCITEGIC>MOL_PROPERTY
VM2 Rank
SciTegic.value.IntegerValue
4

@<SCITEGIC>MOL_PROPERTY
Conf_Id
SciTegic.value.IntegerValue
122

@<SCITEGIC>MOL_PROPERTY
Probability
SciTegic.value.DoubleValue
8.09

@<SCITEGIC>MOL_PROPERTY
Sum Probability
SciTegic.value.DoubleValue
47.72

@<SCITEGIC>MOL_PROPERTY
Delta G
SciTegic.value.DoubleValue
0.485

@<SCITEGIC>MOL_PROPERTY
G
SciTegic.value.DoubleValue
27.493

@<SCITEGIC>MOL_PROPERTY
E
SciTegic.value.DoubleValue
4.709

@<SCITEGIC>MOL_PROPERTY
-TS
SciTegic.value.DoubleValue
22.784

@<SCITEGIC>MOL_PROPERTY
U+W
SciTegic.value.DoubleValue
-11.388

@<SCITEGIC>MOL_PROPERTY
U
SciTegic.value.DoubleValue
46.508

@<SCITEGIC>MOL_PROPERTY
W
SciTegic.value.DoubleValue
-57.896

@<SCITEGIC>MOL_PROPERTY
W(PB)
SciTegic.value.DoubleValue
-59.824

@<SCITEGIC>MOL_PROPERTY
W(SA)
SciTegic.value.DoubleValue
1.928

@<SCITEGIC>MOL_PROPERTY
Valence
SciTegic.value.DoubleValue
1.610

@<SCITEGIC>MOL_PROPERTY
Coulomb
SciTegic.value.DoubleValue
44.536

@<SCITEGIC>MOL_PROPERTY
VdW
SciTegic.value.DoubleValue
0.363

@<SCITEGIC>MOL_PROPERTY
VdW6
SciTegic.value.DoubleValue
-4.057

@<SCITEGIC>MOL_PROPERTY
VdW12
SciTegic.value.DoubleValue
4.419

@<SCITEGIC>MOL_PROPERTY
Bond
SciTegic.value.DoubleValue
0.118

@<SCITEGIC>MOL_PROPERTY
Angle
SciTegic.value.DoubleValue
0.515

@<SCITEGIC>MOL_PROPERTY
Pdih
SciTegic.value.DoubleValue
0.977

@<SCITEGIC>MOL_PROPERTY
Idih
SciTegic.value.DoubleValue
0.000

@<SCITEGIC>MOL_PROPERTY
Tether
SciTegic.value.DoubleValue
0.000

@<TRIPOS>MOLECULE
guest-s11_vm2.mol2 : vm2 ligand conformer 5
          20          19           1
SMALL
USER_CHARGES
 
@<TRIPOS>ATOM
       1    N1      19.968534   18.622742   25.443384 N.4        1 MOL1        -0.5919
       2    H1      19.057879   18.152850   25.459579 H          1 MOL1         0.3682
       3    H2      20.612200   18.042692   25.991825 H          1 MOL1         0.3682
       4    H3      19.860219   19.506799   25.950409 H          1 MOL1         0.3682
       5    C1      20.469827   18.838286   24.029658 C.3        1 MOL1         0.0252
       6    H4      20.590448   17.857007   23.563559 H          1 MOL1         0.0971
       7    H5      21.452494   19.314015   24.088742 H          1 MOL1         0.0971
       8    C2      19.524169   19.707258   23.178715 C.3        1 MOL1        -0.1369
       9    H6      18.536830   19.230094   23.120058 H          1 MOL1         0.0997
      10    H7      19.376862   20.673297   23.679706 H          1 MOL1         0.0997
      11    C3      20.065357   19.959509   21.751480 C.3        1 MOL1        -0.1329
      12    H8      21.041713   20.460139   21.812582 H          1 MOL1         0.0997
      13    H9      19.390791   20.657843   21.236947 H          1 MOL1         0.0997
      14    C4      20.193911   18.666326   20.911785 C.3        1 MOL1        -0.1305
      15    H10     20.904693   17.975553   21.385333 H          1 MOL1         0.0997
      16    H11     19.224679   18.149345   20.876102 H          1 MOL1         0.0997
      17    C5      20.666201   18.965879   19.472977 C.3        1 MOL1        -0.2320
      18    H12     20.752636   18.038349   18.892234 H          1 MOL1         0.1008
      19    H13     19.957356   19.623415   18.952984 H          1 MOL1         0.1008
      20    H14     21.648895   19.455299   19.473826 H          1 MOL1         0.1008
@<TRIPOS>BOND
    1     1     2    1
    2     1     3    1
    3     1     4    1
    4     1     5    1
    5     5     6    1
    6     5     7    1
    7     5     8    1
    8     8     9    1
    9     8    10    1
   10     8    11    1
   11    11    12    1
   12    11    13    1
   13    11    14    1
   14    14    15    1
   15    14    16    1
   16    14    17    1
   17    17    18    1
   18    17    19    1
   19    17    20    1
@<TRIPOS>SUBSTRUCTURE
       1 MOL1            1 RESIDUE      1      MOL     
@<SCITEGIC>MOL_PROPERTY
VM2 Rank
SciTegic.value.IntegerValue
5

@<SCITEGIC>MOL_PROPERTY
Conf_Id
SciTegic.value.IntegerValue
138

@<SCITEGIC>MOL_PROPERTY
Probability
SciTegic.value.DoubleValue
7.92

@<SCITEGIC>MOL_PROPERTY
Sum Probability
SciTegic.value.DoubleValue
55.64

@<SCITEGIC>MOL_PROPERTY
Delta G
SciTegic.value.DoubleValue
0.498

@<SCITEGIC>MOL_PROPERTY
G
SciTegic.value.DoubleValue
27.505

@<SCITEGIC>MOL_PROPERTY
E
SciTegic.value.DoubleValue
4.721

@<SCITEGIC>MOL_PROPERTY
-TS
SciTegic.value.DoubleValue
22.784

@<SCITEGIC>MOL_PROPERTY
U+W
SciTegic.value.DoubleValue
-11.375

@<SCITEGIC>MOL_PROPERTY
U
SciTegic.value.DoubleValue
46.508

@<SCITEGIC>MOL_PROPERTY
W
SciTegic.value.DoubleValue
-57.883

@<SCITEGIC>MOL_PROPERTY
W(PB)
SciTegic.value.DoubleValue
-59.814

@<SCITEGIC>MOL_PROPERTY
W(SA)
SciTegic.value.DoubleValue
1.931

@<SCITEGIC>MOL_PROPERTY
Valence
SciTegic.value.DoubleValue
1.610

@<SCITEGIC>MOL_PROPERTY
Coulomb
SciTegic.value.DoubleValue
44.536

@<SCITEGIC>MOL_PROPERTY
VdW
SciTegic.value.DoubleValue
0.362

@<SCITEGIC>MOL_PROPERTY
VdW6
SciTegic.value.DoubleValue
-4.056

@<SCITEGIC>MOL_PROPERTY
VdW12
SciTegic.value.DoubleValue
4.419

@<SCITEGIC>MOL_PROPERTY
Bond
SciTegic.value.DoubleValue
0.118

@<SCITEGIC>MOL_PROPERTY
Angle
SciTegic.value.DoubleValue
0.515

@<SCITEGIC>MOL_PROPERTY
Pdih
SciTegic.value.DoubleValue
0.977

@<SCITEGIC>MOL_PROPERTY
Idih
SciTegic.value.DoubleValue
0.000

@<SCITEGIC>MOL_PROPERTY
Tether
SciTegic.value.DoubleValue
0.000

@<TRIPOS>MOLECULE
guest-s11_vm2.mol2 : vm2 ligand conformer 6
          20          19           1
SMALL
USER_CHARGES
 
@<TRIPOS>ATOM
       1    N1      19.482301   19.405615   25.413311 N.4        1 MOL1        -0.5919
       2    H1      18.690167   18.755700   25.435691 H          1 MOL1         0.3682
       3    H2      19.909702   19.385349   26.345244 H          1 MOL1         0.3682
       4    H3      19.096718   20.346298   25.283784 H          1 MOL1         0.3682
       5    C1      20.478639   19.047282   24.329115 C.3        1 MOL1         0.0252
       6    H4      20.869624   18.049628   24.546622 H          1 MOL1         0.0971
       7    H5      21.306518   19.759505   24.382626 H          1 MOL1         0.0971
       8    C2      19.868832   19.067699   22.915968 C.3        1 MOL1        -0.1369
       9    H6      19.027919   18.362941   22.871305 H          1 MOL1         0.0997
      10    H7      19.464181   20.067759   22.715466 H          1 MOL1         0.0997
      11    C3      20.918953   18.694157   21.843195 C.3        1 MOL1        -0.1329
      12    H8      21.366882   17.724910   22.103313 H          1 MOL1         0.0997
      13    H9      21.738458   19.426151   21.856729 H          1 MOL1         0.0997
      14    C4      20.334106   18.598349   20.413007 C.3        1 MOL1        -0.1305
      15    H10     21.116959   18.228681   19.735935 H          1 MOL1         0.0997
      16    H11     19.529713   17.849833   20.389508 H          1 MOL1         0.0997
      17    C5      19.805169   19.946898   19.873404 C.3        1 MOL1        -0.2320
      18    H12     20.582895   20.720608   19.912526 H          1 MOL1         0.1008
      19    H13     19.487150   19.844019   18.827827 H          1 MOL1         0.1008
      20    H14     18.939436   20.299714   20.447381 H          1 MOL1         0.1008
@<TRIPOS>BOND
    1     1     2    1
    2     1     3    1
    3     1     4    1
    4     1     5    1
    5     5     6    1
    6     5     7    1
    7     5     8    1
    8     8     9    1
    9     8    10    1
   10     8    11    1
   11    11    12    1
   12    11    13    1
   13    11    14    1
   14    14    15    1
   15    14    16    1
   16    14    17    1
   17    17    18    1
   18    17    19    1
   19    17    20    1
@<TRIPOS>SUBSTRUCTURE
       1 MOL1            1 RESIDUE      1      MOL     
@<SCITEGIC>MOL_PROPERTY
VM2 Rank
SciTegic.value.IntegerValue
6

@<SCITEGIC>MOL_PROPERTY
Conf_Id
SciTegic.value.IntegerValue
202

@<SCITEGIC>MOL_PROPERTY
Probability
SciTegic.value.DoubleValue
6.50

@<SCITEGIC>MOL_PROPERTY
Sum Probability
SciTegic.value.DoubleValue
62.14

@<SCITEGIC>MOL_PROPERTY
Delta G
SciTegic.value.DoubleValue
0.616

@<SCITEGIC>MOL_PROPERTY
G
SciTegic.value.DoubleValue
27.623

@<SCITEGIC>MOL_PROPERTY
E
SciTegic.value.DoubleValue
4.825

@<SCITEGIC>MOL_PROPERTY
-TS
SciTegic.value.DoubleValue
22.798

@<SCITEGIC>MOL_PROPERTY
U+W
SciTegic.value.DoubleValue
-11.272

@<SCITEGIC>MOL_PROPERTY
U
SciTegic.value.DoubleValue
46.486

@<SCITEGIC>MOL_PROPERTY
W
SciTegic.value.DoubleValue
-57.758

@<SCITEGIC>MOL_PROPERTY
W(PB)
SciTegic.value.DoubleValue
-59.705

@<SCITEGIC>MOL_PROPERTY
W(SA)
SciTegic.value.DoubleValue
1.947

@<SCITEGIC>MOL_PROPERTY
Valence
SciTegic.value.DoubleValue
1.806

@<SCITEGIC>MOL_PROPERTY
Coulomb
SciTegic.value.DoubleValue
44.248

@<SCITEGIC>MOL_PROPERTY
VdW
SciTegic.value.DoubleValue
0.433

@<SCITEGIC>MOL_PROPERTY
VdW6
SciTegic.value.DoubleValue
-4.089

@<SCITEGIC>MOL_PROPERTY
VdW12
SciTegic.value.DoubleValue
4.522

@<SCITEGIC>MOL_PROPERTY
Bond
SciTegic.value.DoubleValue
0.131

@<SCITEGIC>MOL_PROPERTY
Angle
SciTegic.value.DoubleValue
0.628

@<SCITEGIC>MOL_PROPERTY
Pdih
SciTegic.value.DoubleValue
1.047

@<SCITEGIC>MOL_PROPERTY
Idih
SciTegic.value.DoubleValue
0.000

@<SCITEGIC>MOL_PROPERTY
Tether
SciTegic.value.DoubleValue
0.000

@<TRIPOS>MOLECULE
guest-s11_vm2.mol2 : vm2 ligand conformer 7
          20          19           1
SMALL
USER_CHARGES
 
@<TRIPOS>ATOM
       1    N1      19.929124   18.443854   25.414447 N.4        1 MOL1        -0.5919
       2    H1      20.188466   18.785369   26.345945 H          1 MOL1         0.3682
       3    H2      18.921539   18.257683   25.436301 H          1 MOL1         0.3682
       4    H3      20.399458   17.542243   25.287086 H          1 MOL1         0.3682
       5    C1      20.298821   19.434278   24.328648 C.3        1 MOL1         0.0252
       6    H4      21.377011   19.607724   24.382780 H          1 MOL1         0.0971
       7    H5      19.788357   20.376934   24.543865 H          1 MOL1         0.0971
       8    C2      19.922393   18.952317   22.916104 C.3        1 MOL1        -0.1369
       9    H6      20.425755   17.997625   22.717977 H          1 MOL1         0.0997
      10    H7      18.841472   18.764252   22.870803 H          1 MOL1         0.0997
      11    C3      20.315341   19.993566   21.841617 C.3        1 MOL1        -0.1329
      12    H8      21.403292   20.147664   21.855890 H          1 MOL1         0.0997
      13    H9      19.863365   20.961567   22.099360 H          1 MOL1         0.0997
      14    C4      19.866269   19.605578   20.411767 C.3        1 MOL1        -0.1305
      15    H10     18.775444   19.473720   20.387466 H          1 MOL1         0.0997
      16    H11     20.089458   20.440865   19.733222 H          1 MOL1         0.0997
      17    C5      20.556051   18.330406   19.875418 C.3        1 MOL1        -0.2320
      18    H12     20.266588   17.442444   20.450879 H          1 MOL1         0.1008
      19    H13     20.273349   18.151674   18.829910 H          1 MOL1         0.1008
      20    H14     21.648911   18.425643   19.915453 H          1 MOL1         0.1008
@<TRIPOS>BOND
    1     1     2    1
    2     1     3    1
    3     1     4    1
    4     1     5    1
    5     5     6    1
    6     5     7    1
    7     5     8    1
    8     8     9    1
    9     8    10    1
   10     8    11    1
   11    11    12    1
   12    11    13    1
   13    11    14    1
   14    14    15    1
   15    14    16    1
   16    14    17    1
   17    17    18    1
   18    17    19    1
   19    17    20    1
@<TRIPOS>SUBSTRUCTURE
       1 MOL1            1 RESIDUE      1      MOL     
@<SCITEGIC>MOL_PROPERTY
VM2 Rank
SciTegic.value.IntegerValue
7

@<SCITEGIC>MOL_PROPERTY
Conf_Id
SciTegic.value.IntegerValue
247

@<SCITEGIC>MOL_PROPERTY
Probability
SciTegic.value.DoubleValue
6.41

@<SCITEGIC>MOL_PROPERTY
Sum Probability
SciTegic.value.DoubleValue
68.55

@<SCITEGIC>MOL_PROPERTY
Delta G
SciTegic.value.DoubleValue
0.624

@<SCITEGIC>MOL_PROPERTY
G
SciTegic.value.DoubleValue
27.631

@<SCITEGIC>MOL_PROPERTY
E
SciTegic.value.DoubleValue
4.833

@<SCITEGIC>MOL_PROPERTY
-TS
SciTegic.value.DoubleValue
22.798

@<SCITEGIC>MOL_PROPERTY
U+W
SciTegic.value.DoubleValue
-11.263

@<SCITEGIC>MOL_PROPERTY
U
SciTegic.value.DoubleValue
46.486

@<SCITEGIC>MOL_PROPERTY
W
SciTegic.value.DoubleValue
-57.750

@<SCITEGIC>MOL_PROPERTY
W(PB)
SciTegic.value.DoubleValue
-59.686

@<SCITEGIC>MOL_PROPERTY
W(SA)
SciTegic.value.DoubleValue
1.936

@<SCITEGIC>MOL_PROPERTY
Valence
SciTegic.value.DoubleValue
1.806

@<SCITEGIC>MOL_PROPERTY
Coulomb
SciTegic.value.DoubleValue
44.248

@<SCITEGIC>MOL_PROPERTY
VdW
SciTegic.value.DoubleValue
0.433

@<SCITEGIC>MOL_PROPERTY
VdW6
SciTegic.value.DoubleValue
-4.089

@<SCITEGIC>MOL_PROPERTY
VdW12
SciTegic.value.DoubleValue
4.522

@<SCITEGIC>MOL_PROPERTY
Bond
SciTegic.value.DoubleValue
0.131

@<SCITEGIC>MOL_PROPERTY
Angle
SciTegic.value.DoubleValue
0.628

@<SCITEGIC>MOL_PROPERTY
Pdih
SciTegic.value.DoubleValue
1.047

@<SCITEGIC>MOL_PROPERTY
Idih
SciTegic.value.DoubleValue
0.000

@<SCITEGIC>MOL_PROPERTY
Tether
SciTegic.value.DoubleValue
0.000

@<TRIPOS>MOLECULE
guest-s11_vm2.mol2 : vm2 ligand conformer 8
          20          19           1
SMALL
USER_CHARGES
 
@<TRIPOS>ATOM
       1    N1      19.480503   19.173335   25.147740 N.4        1 MOL1        -0.5919
       2    H1      19.659018   19.456149   26.117095 H          1 MOL1         0.3682
       3    H2      18.842648   19.867469   24.747416 H          1 MOL1         0.3682
       4    H3      18.974254   18.283133   25.185794 H          1 MOL1         0.3682
       5    C1      20.764912   19.059085   24.349365 C.3        1 MOL1         0.0252
       6    H4      21.408008   18.336883   24.859708 H          1 MOL1         0.0971
       7    H5      21.264556   20.031427   24.368039 H          1 MOL1         0.0971
       8    C2      20.555303   18.611610   22.889331 C.3        1 MOL1        -0.1369
       9    H6      21.542899   18.447232   22.440729 H          1 MOL1         0.0997
      10    H7      20.037839   17.643275   22.873575 H          1 MOL1         0.0997
      11    C3      19.766238   19.649966   22.052486 C.3        1 MOL1        -0.1329
      12    H8      20.301451   20.609660   22.053979 H          1 MOL1         0.0997
      13    H9      18.793612   19.837973   22.526046 H          1 MOL1         0.0997
      14    C4      19.513830   19.201371   20.592338 C.3        1 MOL1        -0.1305
      15    H10     18.966523   18.248338   20.585385 H          1 MOL1         0.0997
      16    H11     18.856123   19.936132   20.107065 H          1 MOL1         0.0997
      17    C5      20.807214   19.064633   19.756741 C.3        1 MOL1        -0.2320
      18    H12     21.444895   18.253289   20.128698 H          1 MOL1         0.1008
      19    H13     20.565801   18.839373   18.709876 H          1 MOL1         0.1008
      20    H14     21.388905   19.995416   19.773522 H          1 MOL1         0.1008
@<TRIPOS>BOND
    1     1     2    1
    2     1     3    1
    3     1     4    1
    4     1     5    1
    5     5     6    1
    6     5     7    1
    7     5     8    1
    8     8     9    1
    9     8    10    1
   10     8    11    1
   11    11    12    1
   12    11    13    1
   13    11    14    1
   14    14    15    1
   15    14    16    1
   16    14    17    1
   17    17    18    1
   18    17    19    1
   19    17    20    1
@<TRIPOS>SUBSTRUCTURE
       1 MOL1            1 RESIDUE      1      MOL     
@<SCITEGIC>MOL_PROPERTY
VM2 Rank
SciTegic.value.IntegerValue
8

@<SCITEGIC>MOL_PROPERTY
Conf_Id
SciTegic.value.IntegerValue
33

@<SCITEGIC>MOL_PROPERTY
Probability
SciTegic.value.DoubleValue
4.06

@<SCITEGIC>MOL_PROPERTY
Sum Probability
SciTegic.value.DoubleValue
72.62

@<SCITEGIC>MOL_PROPERTY
Delta G
SciTegic.value.DoubleValue
0.896

@<SCITEGIC>MOL_PROPERTY
G
SciTegic.value.DoubleValue
27.903

@<SCITEGIC>MOL_PROPERTY
E
SciTegic.value.DoubleValue
5.022

@<SCITEGIC>MOL_PROPERTY
-TS
SciTegic.value.DoubleValue
22.881

@<SCITEGIC>MOL_PROPERTY
U+W
SciTegic.value.DoubleValue
-11.075

@<SCITEGIC>MOL_PROPERTY
U
SciTegic.value.DoubleValue
47.080

@<SCITEGIC>MOL_PROPERTY
W
SciTegic.value.DoubleValue
-58.154

@<SCITEGIC>MOL_PROPERTY
W(PB)
SciTegic.value.DoubleValue
-60.053

@<SCITEGIC>MOL_PROPERTY
W(SA)
SciTegic.value.DoubleValue
1.899

@<SCITEGIC>MOL_PROPERTY
Valence
SciTegic.value.DoubleValue
1.943

@<SCITEGIC>MOL_PROPERTY
Coulomb
SciTegic.value.DoubleValue
44.572

@<SCITEGIC>MOL_PROPERTY
VdW
SciTegic.value.DoubleValue
0.565

@<SCITEGIC>MOL_PROPERTY
VdW6
SciTegic.value.DoubleValue
-4.575

@<SCITEGIC>MOL_PROPERTY
VdW12
SciTegic.value.DoubleValue
5.139

@<SCITEGIC>MOL_PROPERTY
Bond
SciTegic.value.DoubleValue
0.158

@<SCITEGIC>MOL_PROPERTY
Angle
SciTegic.value.DoubleValue
0.700

@<SCITEGIC>MOL_PROPERTY
Pdih
SciTegic.value.DoubleValue
1.085

@<SCITEGIC>MOL_PROPERTY
Idih
SciTegic.value.DoubleValue
0.000

@<SCITEGIC>MOL_PROPERTY
Tether
SciTegic.value.DoubleValue
0.000

