VeraChem MOL file


 22 21  0  0  0  0  0  0  0  0999 V2000     
   19.8314   19.1341   26.1875 C   0  0  0  0  0  0  0  0  0  0  0  0
   20.0587   20.2372   26.6434 O   0  5  0  0  0  0  0  0  0  0  0  0
   20.1745   18.0999   26.7251 O   0  0  0  0  0  0  0  0  0  0  0  0
   19.0946   19.0433   24.8559 C   0  0  0  0  0  0  0  0  0  0  0  0
   18.3980   19.8879   24.7937 H   0  0  0  0  0  0  0  0  0  0  0  0
   18.4929   18.1264   24.8613 H   0  0  0  0  0  0  0  0  0  0  0  0
   20.0506   19.0480   23.6377 C   0  0  0  0  0  0  0  0  0  0  0  0
   20.6548   19.9657   23.6541 H   0  0  0  0  0  0  0  0  0  0  0  0
   20.7496   18.2043   23.7217 H   0  0  0  0  0  0  0  0  0  0  0  0
   19.2808   18.9554   22.3025 C   0  0  0  0  0  0  0  0  0  0  0  0
   18.5821   19.7995   22.2223 H   0  0  0  0  0  0  0  0  0  0  0  0
   18.6768   18.0376   22.2898 H   0  0  0  0  0  0  0  0  0  0  0  0
   20.2363   18.9603   21.0900 C   0  0  0  0  0  0  0  0  0  0  0  0
   20.8405   19.8778   21.1023 H   0  0  0  0  0  0  0  0  0  0  0  0
   20.9351   18.1162   21.1698 H   0  0  0  0  0  0  0  0  0  0  0  0
   19.4677   18.8679   19.7552 C   0  0  0  0  0  0  0  0  0  0  0  0
   18.7690   19.7118   19.6708 H   0  0  0  0  0  0  0  0  0  0  0  0
   18.8635   17.9502   19.7382 H   0  0  0  0  0  0  0  0  0  0  0  0
   20.4254   18.8730   18.5468 C   0  0  0  0  0  0  0  0  0  0  0  0
   21.0205   19.7953   18.5213 H   0  0  0  0  0  0  0  0  0  0  0  0
   19.8624   18.8068   17.6067 H   0  0  0  0  0  0  0  0  0  0  0  0
   21.1158   18.0204   18.5892 H   0  0  0  0  0  0  0  0  0  0  0  0
  1  2  1  0  0  0  0
  1  3  2  0  0  0  0
  1  4  1  0  0  0  0
  4  5  1  0  0  0  0
  4  6  1  0  0  0  0
  4  7  1  0  0  0  0
  7  8  1  0  0  0  0
  7  9  1  0  0  0  0
  7 10  1  0  0  0  0
 10 11  1  0  0  0  0
 10 12  1  0  0  0  0
 10 13  1  0  0  0  0
 13 14  1  0  0  0  0
 13 15  1  0  0  0  0
 13 16  1  0  0  0  0
 16 17  1  0  0  0  0
 16 18  1  0  0  0  0
 16 19  1  0  0  0  0
 19 20  1  0  0  0  0
 19 21  1  0  0  0  0
 19 22  1  0  0  0  0
M  END
> <VM2 Rank>
1

> <Conf_Id>
394

> <Probability>
32.47

> <Sum Probability>
32.47

> <Delta G>
0.000

> <G>
-16.998

> <E>
-36.566

> <-TS>
19.568

> <U+W>
-54.451

> <U>
5.779

> <W>
-60.230

> <W(PB)>
-62.557

> <W(SA)>
2.328

> <Valence>
7.101

> <Coulomb>
-2.079

> <VdW>
0.757

> <VdW6>
-6.496

> <VdW12>
7.253

> <Bond>
0.100

> <Angle>
2.262

> <Pdih>
4.739

> <Idih>
0.001

> <Tether>
0.000

$$$$
VeraChem MOL file


 22 21  0  0  0  0  0  0  0  0999 V2000     
   19.7290   18.8549   25.9656 C   0  0  0  0  0  0  0  0  0  0  0  0
   19.2129   19.6430   26.7331 O   0  5  0  0  0  0  0  0  0  0  0  0
   20.5231   18.0022   26.3100 O   0  0  0  0  0  0  0  0  0  0  0  0
   19.3783   18.9570   24.4854 C   0  0  0  0  0  0  0  0  0  0  0  0
   18.3435   19.3105   24.4045 H   0  0  0  0  0  0  0  0  0  0  0  0
   19.4107   17.9456   24.0650 H   0  0  0  0  0  0  0  0  0  0  0  0
   20.3295   19.9033   23.7076 C   0  0  0  0  0  0  0  0  0  0  0  0
   20.3434   20.8802   24.2104 H   0  0  0  0  0  0  0  0  0  0  0  0
   21.3558   19.5141   23.7577 H   0  0  0  0  0  0  0  0  0  0  0  0
   19.9209   20.1122   22.2300 C   0  0  0  0  0  0  0  0  0  0  0  0
   20.5739   20.8802   21.7933 H   0  0  0  0  0  0  0  0  0  0  0  0
   18.8982   20.5108   22.1839 H   0  0  0  0  0  0  0  0  0  0  0  0
   20.0179   18.8259   21.3776 C   0  0  0  0  0  0  0  0  0  0  0  0
   21.0267   18.4004   21.4682 H   0  0  0  0  0  0  0  0  0  0  0  0
   19.3160   18.0714   21.7558 H   0  0  0  0  0  0  0  0  0  0  0  0
   19.7077   19.1024   19.8914 C   0  0  0  0  0  0  0  0  0  0  0  0
   20.4102   19.8505   19.4987 H   0  0  0  0  0  0  0  0  0  0  0  0
   18.6999   19.5301   19.7970 H   0  0  0  0  0  0  0  0  0  0  0  0
   19.8008   17.8181   19.0433 C   0  0  0  0  0  0  0  0  0  0  0  0
   20.8085   17.3855   19.0950 H   0  0  0  0  0  0  0  0  0  0  0  0
   19.5779   18.0331   17.9901 H   0  0  0  0  0  0  0  0  0  0  0  0
   19.0851   17.0630   19.3939 H   0  0  0  0  0  0  0  0  0  0  0  0
  1  2  1  0  0  0  0
  1  3  2  0  0  0  0
  1  4  1  0  0  0  0
  4  5  1  0  0  0  0
  4  6  1  0  0  0  0
  4  7  1  0  0  0  0
  7  8  1  0  0  0  0
  7  9  1  0  0  0  0
  7 10  1  0  0  0  0
 10 11  1  0  0  0  0
 10 12  1  0  0  0  0
 10 13  1  0  0  0  0
 13 14  1  0  0  0  0
 13 15  1  0  0  0  0
 13 16  1  0  0  0  0
 16 17  1  0  0  0  0
 16 18  1  0  0  0  0
 16 19  1  0  0  0  0
 19 20  1  0  0  0  0
 19 21  1  0  0  0  0
 19 22  1  0  0  0  0
M  END
> <VM2 Rank>
2

> <Conf_Id>
718

> <Probability>
8.37

> <Sum Probability>
40.84

> <Delta G>
0.808

> <G>
-16.190

> <E>
-35.868

> <-TS>
19.677

> <U+W>
-53.752

> <U>
6.782

> <W>
-60.535

> <W(PB)>
-62.847

> <W(SA)>
2.313

> <Valence>
7.621

> <Coulomb>
-1.711

> <VdW>
0.872

> <VdW6>
-7.188

> <VdW12>
8.060

> <Bond>
0.142

> <Angle>
2.504

> <Pdih>
4.974

> <Idih>
0.001

> <Tether>
0.000

$$$$
VeraChem MOL file


 22 21  0  0  0  0  0  0  0  0999 V2000     
   20.1334   19.1303   25.9560 C   0  0  0  0  0  0  0  0  0  0  0  0
   19.6139   19.9159   26.7237 O   0  5  0  0  0  0  0  0  0  0  0  0
   20.6479   18.0869   26.3070 O   0  0  0  0  0  0  0  0  0  0  0  0
   20.1189   19.4613   24.4679 C   0  0  0  0  0  0  0  0  0  0  0  0
   21.0341   19.0511   24.0264 H   0  0  0  0  0  0  0  0  0  0  0  0
   20.1661   20.5517   24.3615 H   0  0  0  0  0  0  0  0  0  0  0  0
   18.8654   18.9067   23.7423 C   0  0  0  0  0  0  0  0  0  0  0  0
   18.8533   17.8106   23.8170 H   0  0  0  0  0  0  0  0  0  0  0  0
   17.9680   19.2632   24.2667 H   0  0  0  0  0  0  0  0  0  0  0  0
   18.7730   19.3307   22.2572 C   0  0  0  0  0  0  0  0  0  0  0  0
   18.7753   20.4271   22.1868 H   0  0  0  0  0  0  0  0  0  0  0  0
   17.8054   18.9957   21.8589 H   0  0  0  0  0  0  0  0  0  0  0  0
   19.9060   18.7497   21.3803 C   0  0  0  0  0  0  0  0  0  0  0  0
   20.8770   19.1338   21.7189 H   0  0  0  0  0  0  0  0  0  0  0  0
   19.9351   17.6574   21.4940 H   0  0  0  0  0  0  0  0  0  0  0  0
   19.7144   19.1070   19.8913 C   0  0  0  0  0  0  0  0  0  0  0  0
   19.6828   20.1991   19.7738 H   0  0  0  0  0  0  0  0  0  0  0  0
   18.7487   18.7197   19.5381 H   0  0  0  0  0  0  0  0  0  0  0  0
   20.8471   18.5303   19.0184 C   0  0  0  0  0  0  0  0  0  0  0  0
   21.8229   18.9263   19.3290 H   0  0  0  0  0  0  0  0  0  0  0  0
   20.6948   18.7934   17.9636 H   0  0  0  0  0  0  0  0  0  0  0  0
   20.8819   17.4355   19.0932 H   0  0  0  0  0  0  0  0  0  0  0  0
  1  2  1  0  0  0  0
  1  3  2  0  0  0  0
  1  4  1  0  0  0  0
  4  5  1  0  0  0  0
  4  6  1  0  0  0  0
  4  7  1  0  0  0  0
  7  8  1  0  0  0  0
  7  9  1  0  0  0  0
  7 10  1  0  0  0  0
 10 11  1  0  0  0  0
 10 12  1  0  0  0  0
 10 13  1  0  0  0  0
 13 14  1  0  0  0  0
 13 15  1  0  0  0  0
 13 16  1  0  0  0  0
 16 17  1  0  0  0  0
 16 18  1  0  0  0  0
 16 19  1  0  0  0  0
 19 20  1  0  0  0  0
 19 21  1  0  0  0  0
 19 22  1  0  0  0  0
M  END
> <VM2 Rank>
3

> <Conf_Id>
752

> <Probability>
7.51

> <Sum Probability>
48.36

> <Delta G>
0.872

> <G>
-16.126

> <E>
-35.803

> <-TS>
19.677

> <U+W>
-53.688

> <U>
6.782

> <W>
-60.470

> <W(PB)>
-62.790

> <W(SA)>
2.320

> <Valence>
7.621

> <Coulomb>
-1.711

> <VdW>
0.872

> <VdW6>
-7.188

> <VdW12>
8.060

> <Bond>
0.142

> <Angle>
2.504

> <Pdih>
4.974

> <Idih>
0.001

> <Tether>
0.000

$$$$
VeraChem MOL file


 22 21  0  0  0  0  0  0  0  0999 V2000     
   19.9961   19.0328   25.9874 C   0  0  0  0  0  0  0  0  0  0  0  0
   20.3224   20.0800   26.5104 O   0  5  0  0  0  0  0  0  0  0  0  0
   20.4207   17.9476   26.3318 O   0  0  0  0  0  0  0  0  0  0  0  0
   19.0155   19.0853   24.8213 C   0  0  0  0  0  0  0  0  0  0  0  0
   18.3318   19.9261   24.9890 H   0  0  0  0  0  0  0  0  0  0  0  0
   18.4134   18.1688   24.8408 H   0  0  0  0  0  0  0  0  0  0  0  0
   19.7191   19.2327   23.4497 C   0  0  0  0  0  0  0  0  0  0  0  0
   20.3245   20.1497   23.4494 H   0  0  0  0  0  0  0  0  0  0  0  0
   20.4116   18.3916   23.3142 H   0  0  0  0  0  0  0  0  0  0  0  0
   18.7022   19.2787   22.2857 C   0  0  0  0  0  0  0  0  0  0  0  0
   17.9736   20.0777   22.4798 H   0  0  0  0  0  0  0  0  0  0  0  0
   18.1327   18.3397   22.2536 H   0  0  0  0  0  0  0  0  0  0  0  0
   19.3550   19.5357   20.9068 C   0  0  0  0  0  0  0  0  0  0  0  0
   18.5570   19.6777   20.1652 H   0  0  0  0  0  0  0  0  0  0  0  0
   19.9215   20.4764   20.9373 H   0  0  0  0  0  0  0  0  0  0  0  0
   20.2767   18.3875   20.4374 C   0  0  0  0  0  0  0  0  0  0  0  0
   19.7250   17.4375   20.4573 H   0  0  0  0  0  0  0  0  0  0  0  0
   21.1264   18.2793   21.1242 H   0  0  0  0  0  0  0  0  0  0  0  0
   20.8123   18.6387   19.0134 C   0  0  0  0  0  0  0  0  0  0  0  0
   21.4672   17.8169   18.6960 H   0  0  0  0  0  0  0  0  0  0  0  0
   21.3921   19.5701   18.9710 H   0  0  0  0  0  0  0  0  0  0  0  0
   19.9889   18.7140   18.2911 H   0  0  0  0  0  0  0  0  0  0  0  0
  1  2  1  0  0  0  0
  1  3  2  0  0  0  0
  1  4  1  0  0  0  0
  4  5  1  0  0  0  0
  4  6  1  0  0  0  0
  4  7  1  0  0  0  0
  7  8  1  0  0  0  0
  7  9  1  0  0  0  0
  7 10  1  0  0  0  0
 10 11  1  0  0  0  0
 10 12  1  0  0  0  0
 10 13  1  0  0  0  0
 13 14  1  0  0  0  0
 13 15  1  0  0  0  0
 13 16  1  0  0  0  0
 16 17  1  0  0  0  0
 16 18  1  0  0  0  0
 16 19  1  0  0  0  0
 19 20  1  0  0  0  0
 19 21  1  0  0  0  0
 19 22  1  0  0  0  0
M  END
> <VM2 Rank>
4

> <Conf_Id>
132

> <Probability>
7.45

> <Sum Probability>
55.80

> <Delta G>
0.878

> <G>
-16.120

> <E>
-35.794

> <-TS>
19.673

> <U+W>
-53.679

> <U>
7.026

> <W>
-60.705

> <W(PB)>
-63.009

> <W(SA)>
2.304

> <Valence>
7.638

> <Coulomb>
-1.488

> <VdW>
0.877

> <VdW6>
-7.165

> <VdW12>
8.042

> <Bond>
0.134

> <Angle>
2.513

> <Pdih>
4.990

> <Idih>
0.001

> <Tether>
0.000

$$$$
VeraChem MOL file


 22 21  0  0  0  0  0  0  0  0999 V2000     
   19.6005   19.0272   25.9803 C   0  0  0  0  0  0  0  0  0  0  0  0
   19.2261   20.0644   26.4906 O   0  5  0  0  0  0  0  0  0  0  0  0
   19.1951   17.9302   26.3099 O   0  0  0  0  0  0  0  0  0  0  0  0
   20.6206   19.1081   24.8502 C   0  0  0  0  0  0  0  0  0  0  0  0
   21.2473   18.2091   24.8918 H   0  0  0  0  0  0  0  0  0  0  0  0
   21.2737   19.9679   25.0419 H   0  0  0  0  0  0  0  0  0  0  0  0
   19.9629   19.2362   23.4540 C   0  0  0  0  0  0  0  0  0  0  0  0
   19.3000   18.3757   23.2942 H   0  0  0  0  0  0  0  0  0  0  0  0
   19.3321   20.1356   23.4315 H   0  0  0  0  0  0  0  0  0  0  0  0
   21.0194   19.3116   22.3274 C   0  0  0  0  0  0  0  0  0  0  0  0
   21.6162   18.3892   22.3163 H   0  0  0  0  0  0  0  0  0  0  0  0
   21.7176   20.1309   22.5472 H   0  0  0  0  0  0  0  0  0  0  0  0
   20.4097   19.5506   20.9257 C   0  0  0  0  0  0  0  0  0  0  0  0
   19.8161   20.4750   20.9353 H   0  0  0  0  0  0  0  0  0  0  0  0
   21.2295   19.7156   20.2132 H   0  0  0  0  0  0  0  0  0  0  0  0
   19.5383   18.3770   20.4242 C   0  0  0  0  0  0  0  0  0  0  0  0
   18.6678   18.2446   21.0800 H   0  0  0  0  0  0  0  0  0  0  0  0
   20.1155   17.4430   20.4644 H   0  0  0  0  0  0  0  0  0  0  0  0
   19.0474   18.6137   18.9817 C   0  0  0  0  0  0  0  0  0  0  0  0
   18.4278   17.7738   18.6413 H   0  0  0  0  0  0  0  0  0  0  0  0
   19.8938   18.7125   18.2894 H   0  0  0  0  0  0  0  0  0  0  0  0
   18.4434   19.5283   18.9178 H   0  0  0  0  0  0  0  0  0  0  0  0
  1  2  1  0  0  0  0
  1  3  2  0  0  0  0
  1  4  1  0  0  0  0
  4  5  1  0  0  0  0
  4  6  1  0  0  0  0
  4  7  1  0  0  0  0
  7  8  1  0  0  0  0
  7  9  1  0  0  0  0
  7 10  1  0  0  0  0
 10 11  1  0  0  0  0
 10 12  1  0  0  0  0
 10 13  1  0  0  0  0
 13 14  1  0  0  0  0
 13 15  1  0  0  0  0
 13 16  1  0  0  0  0
 16 17  1  0  0  0  0
 16 18  1  0  0  0  0
 16 19  1  0  0  0  0
 19 20  1  0  0  0  0
 19 21  1  0  0  0  0
 19 22  1  0  0  0  0
M  END
> <VM2 Rank>
5

> <Conf_Id>
345

> <Probability>
7.03

> <Sum Probability>
62.83

> <Delta G>
0.913

> <G>
-16.086

> <E>
-35.759

> <-TS>
19.673

> <U+W>
-53.644

> <U>
7.026

> <W>
-60.670

> <W(PB)>
-62.962

> <W(SA)>
2.292

> <Valence>
7.638

> <Coulomb>
-1.489

> <VdW>
0.877

> <VdW6>
-7.165

> <VdW12>
8.042

> <Bond>
0.134

> <Angle>
2.513

> <Pdih>
4.990

> <Idih>
0.001

> <Tether>
0.000

$$$$
VeraChem MOL file


 22 21  0  0  0  0  0  0  0  0999 V2000     
   19.7329   19.2233   26.0947 C   0  0  0  0  0  0  0  0  0  0  0  0
   20.1388   20.2915   26.5079 O   0  5  0  0  0  0  0  0  0  0  0  0
   19.7907   18.1897   26.7309 O   0  0  0  0  0  0  0  0  0  0  0  0
   19.1379   19.1730   24.6920 C   0  0  0  0  0  0  0  0  0  0  0  0
   18.6464   20.1335   24.4957 H   0  0  0  0  0  0  0  0  0  0  0  0
   18.3585   18.4016   24.6799 H   0  0  0  0  0  0  0  0  0  0  0  0
   20.1959   18.8809   23.5996 C   0  0  0  0  0  0  0  0  0  0  0  0
   20.9754   19.6548   23.6330 H   0  0  0  0  0  0  0  0  0  0  0  0
   20.6878   17.9229   23.8182 H   0  0  0  0  0  0  0  0  0  0  0  0
   19.5687   18.8351   22.1893 C   0  0  0  0  0  0  0  0  0  0  0  0
   19.0742   19.7935   21.9843 H   0  0  0  0  0  0  0  0  0  0  0  0
   18.7916   18.0592   22.1583 H   0  0  0  0  0  0  0  0  0  0  0  0
   20.6295   18.5471   21.1021 C   0  0  0  0  0  0  0  0  0  0  0  0
   21.3809   19.3486   21.0965 H   0  0  0  0  0  0  0  0  0  0  0  0
   21.1632   17.6221   21.3596 H   0  0  0  0  0  0  0  0  0  0  0  0
   20.0306   18.3900   19.6851 C   0  0  0  0  0  0  0  0  0  0  0  0
   19.2831   17.5847   19.6853 H   0  0  0  0  0  0  0  0  0  0  0  0
   20.8278   18.0729   18.9987 H   0  0  0  0  0  0  0  0  0  0  0  0
   19.3951   19.6884   19.1424 C   0  0  0  0  0  0  0  0  0  0  0  0
   18.5178   19.9821   19.7322 H   0  0  0  0  0  0  0  0  0  0  0  0
   19.0661   19.5499   18.1044 H   0  0  0  0  0  0  0  0  0  0  0  0
   20.1160   20.5161   19.1608 H   0  0  0  0  0  0  0  0  0  0  0  0
  1  2  1  0  0  0  0
  1  3  2  0  0  0  0
  1  4  1  0  0  0  0
  4  5  1  0  0  0  0
  4  6  1  0  0  0  0
  4  7  1  0  0  0  0
  7  8  1  0  0  0  0
  7  9  1  0  0  0  0
  7 10  1  0  0  0  0
 10 11  1  0  0  0  0
 10 12  1  0  0  0  0
 10 13  1  0  0  0  0
 13 14  1  0  0  0  0
 13 15  1  0  0  0  0
 13 16  1  0  0  0  0
 16 17  1  0  0  0  0
 16 18  1  0  0  0  0
 16 19  1  0  0  0  0
 19 20  1  0  0  0  0
 19 21  1  0  0  0  0
 19 22  1  0  0  0  0
M  END
> <VM2 Rank>
6

> <Conf_Id>
711

> <Probability>
6.48

> <Sum Probability>
69.31

> <Delta G>
0.961

> <G>
-16.038

> <E>
-35.715

> <-TS>
19.677

> <U+W>
-53.599

> <U>
6.751

> <W>
-60.351

> <W(PB)>
-62.660

> <W(SA)>
2.309

> <Valence>
7.602

> <Coulomb>
-1.744

> <VdW>
0.894

> <VdW6>
-7.110

> <VdW12>
8.004

> <Bond>
0.131

> <Angle>
2.489

> <Pdih>
4.981

> <Idih>
0.001

> <Tether>
0.000

$$$$
VeraChem MOL file


 22 21  0  0  0  0  0  0  0  0999 V2000     
   19.7434   19.0279   26.1022 C   0  0  0  0  0  0  0  0  0  0  0  0
   19.6870   20.1073   26.6574 O   0  5  0  0  0  0  0  0  0  0  0  0
   20.2602   18.0443   26.5941 O   0  0  0  0  0  0  0  0  0  0  0  0
   19.1523   18.9066   24.7022 C   0  0  0  0  0  0  0  0  0  0  0  0
   18.2945   19.5866   24.6344 H   0  0  0  0  0  0  0  0  0  0  0  0
   18.7678   17.8867   24.5819 H   0  0  0  0  0  0  0  0  0  0  0  0
   20.1773   19.2265   23.5863 C   0  0  0  0  0  0  0  0  0  0  0  0
   20.5624   20.2457   23.7291 H   0  0  0  0  0  0  0  0  0  0  0  0
   21.0352   18.5457   23.6755 H   0  0  0  0  0  0  0  0  0  0  0  0
   19.5545   19.0968   22.1793 C   0  0  0  0  0  0  0  0  0  0  0  0
   18.6986   19.7800   22.0923 H   0  0  0  0  0  0  0  0  0  0  0  0
   19.1668   18.0779   22.0500 H   0  0  0  0  0  0  0  0  0  0  0  0
   20.5827   19.4133   21.0689 C   0  0  0  0  0  0  0  0  0  0  0  0
   21.0128   20.4074   21.2528 H   0  0  0  0  0  0  0  0  0  0  0  0
   21.4159   18.6993   21.1213 H   0  0  0  0  0  0  0  0  0  0  0  0
   19.9761   19.3966   19.6465 C   0  0  0  0  0  0  0  0  0  0  0  0
   20.7374   19.7443   18.9347 H   0  0  0  0  0  0  0  0  0  0  0  0
   19.1462   20.1143   19.5884 H   0  0  0  0  0  0  0  0  0  0  0  0
   19.4864   17.9996   19.2072 C   0  0  0  0  0  0  0  0  0  0  0  0
   20.2922   17.2582   19.2856 H   0  0  0  0  0  0  0  0  0  0  0  0
   19.1486   18.0223   18.1630 H   0  0  0  0  0  0  0  0  0  0  0  0
   18.6435   17.6590   19.8213 H   0  0  0  0  0  0  0  0  0  0  0  0
  1  2  1  0  0  0  0
  1  3  2  0  0  0  0
  1  4  1  0  0  0  0
  4  5  1  0  0  0  0
  4  6  1  0  0  0  0
  4  7  1  0  0  0  0
  7  8  1  0  0  0  0
  7  9  1  0  0  0  0
  7 10  1  0  0  0  0
 10 11  1  0  0  0  0
 10 12  1  0  0  0  0
 10 13  1  0  0  0  0
 13 14  1  0  0  0  0
 13 15  1  0  0  0  0
 13 16  1  0  0  0  0
 16 17  1  0  0  0  0
 16 18  1  0  0  0  0
 16 19  1  0  0  0  0
 19 20  1  0  0  0  0
 19 21  1  0  0  0  0
 19 22  1  0  0  0  0
M  END
> <VM2 Rank>
7

> <Conf_Id>
695

> <Probability>
6.16

> <Sum Probability>
75.47

> <Delta G>
0.991

> <G>
-16.007

> <E>
-35.684

> <-TS>
19.677

> <U+W>
-53.569

> <U>
6.751

> <W>
-60.321

> <W(PB)>
-62.642

> <W(SA)>
2.321

> <Valence>
7.602

> <Coulomb>
-1.744

> <VdW>
0.894

> <VdW6>
-7.111

> <VdW12>
8.004

> <Bond>
0.131

> <Angle>
2.489

> <Pdih>
4.982

> <Idih>
0.001

> <Tether>
0.000

$$$$
VeraChem MOL file


 22 21  0  0  0  0  0  0  0  0999 V2000     
   19.9960   19.0181   25.8023 C   0  0  0  0  0  0  0  0  0  0  0  0
   20.5946   19.9818   26.2379 O   0  5  0  0  0  0  0  0  0  0  0  0
   20.3757   17.8720   25.9402 O   0  0  0  0  0  0  0  0  0  0  0  0
   18.6863   19.2617   25.0576 C   0  0  0  0  0  0  0  0  0  0  0  0
   18.1021   19.9780   25.6473 H   0  0  0  0  0  0  0  0  0  0  0  0
   18.1150   18.3257   25.0383 H   0  0  0  0  0  0  0  0  0  0  0  0
   18.8715   19.8058   23.6172 C   0  0  0  0  0  0  0  0  0  0  0  0
   17.8887   20.0805   23.2109 H   0  0  0  0  0  0  0  0  0  0  0  0
   19.4689   20.7275   23.6504 H   0  0  0  0  0  0  0  0  0  0  0  0
   19.5431   18.7803   22.6764 C   0  0  0  0  0  0  0  0  0  0  0  0
   18.9492   17.8562   22.6571 H   0  0  0  0  0  0  0  0  0  0  0  0
   20.5347   18.5134   23.0674 H   0  0  0  0  0  0  0  0  0  0  0  0
   19.6887   19.3308   21.2414 C   0  0  0  0  0  0  0  0  0  0  0  0
   18.6981   19.5958   20.8472 H   0  0  0  0  0  0  0  0  0  0  0  0
   20.2827   20.2549   21.2616 H   0  0  0  0  0  0  0  0  0  0  0  0
   20.3600   18.3076   20.3015 C   0  0  0  0  0  0  0  0  0  0  0  0
   19.7678   17.3823   20.2775 H   0  0  0  0  0  0  0  0  0  0  0  0
   21.3522   18.0416   20.6917 H   0  0  0  0  0  0  0  0  0  0  0  0
   20.5041   18.8610   18.8695 C   0  0  0  0  0  0  0  0  0  0  0  0
   19.5227   19.1061   18.4426 H   0  0  0  0  0  0  0  0  0  0  0  0
   20.9830   18.1210   18.2152 H   0  0  0  0  0  0  0  0  0  0  0  0
   21.1191   19.7704   18.8599 H   0  0  0  0  0  0  0  0  0  0  0  0
  1  2  1  0  0  0  0
  1  3  2  0  0  0  0
  1  4  1  0  0  0  0
  4  5  1  0  0  0  0
  4  6  1  0  0  0  0
  4  7  1  0  0  0  0
  7  8  1  0  0  0  0
  7  9  1  0  0  0  0
  7 10  1  0  0  0  0
 10 11  1  0  0  0  0
 10 12  1  0  0  0  0
 10 13  1  0  0  0  0
 13 14  1  0  0  0  0
 13 15  1  0  0  0  0
 13 16  1  0  0  0  0
 16 17  1  0  0  0  0
 16 18  1  0  0  0  0
 16 19  1  0  0  0  0
 19 20  1  0  0  0  0
 19 21  1  0  0  0  0
 19 22  1  0  0  0  0
M  END
> <VM2 Rank>
8

> <Conf_Id>
134

> <Probability>
2.88

> <Sum Probability>
78.36

> <Delta G>
1.444

> <G>
-15.555

> <E>
-35.435

> <-TS>
19.880

> <U+W>
-53.320

> <U>
7.937

> <W>
-61.257

> <W(PB)>
-63.561

> <W(SA)>
2.304

> <Valence>
7.358

> <Coulomb>
-0.021

> <VdW>
0.600

> <VdW6>
-7.363

> <VdW12>
7.964

> <Bond>
0.121

> <Angle>
2.425

> <Pdih>
4.811

> <Idih>
0.001

> <Tether>
0.000

$$$$
