@<TRIPOS>MOLECULE
guest-4_vm2.mol2 : vm2 ligand conformer 1
          16          16           1
SMALL
USER_CHARGES
 
@<TRIPOS>ATOM
       1    C1      19.697141   19.016387   20.939083 C.3        1 MOL1        -0.1689
       2    H1      19.678536   19.933287   20.334379 H          1 MOL1         0.0830
       3    H2      20.131321   18.211845   20.329353 H          1 MOL1         0.0830
       4    C2      18.298131   18.603752   21.416782 C.3        1 MOL1        -0.1689
       5    H3      17.727975   19.498412   21.703537 H          1 MOL1         0.0830
       6    H4      17.731782   18.067622   20.643167 H          1 MOL1         0.0830
       7    C3      18.558560   17.736611   22.661715 C.3        1 MOL1        -0.1765
       8    H5      18.689016   16.689678   22.357776 H          1 MOL1         0.0830
       9    H6      17.716431   17.777460   23.365187 H          1 MOL1         0.0830
      10    C4      19.875576   18.247640   23.281489 C.3        1 MOL1         0.1214
      11    H7      20.543329   17.396508   23.479444 H          1 MOL1         0.0787
      12    C5      20.512966   19.185700   22.234473 C.3        1 MOL1        -0.1765
      13    H8      20.451149   20.228598   22.574002 H          1 MOL1         0.0830
      14    H9      21.572447   18.947766   22.075086 H          1 MOL1         0.0830
      15    O1      19.606625   18.964910   24.480457 O.3        1 MOL1        -0.5512
      16    H10     19.194358   18.329162   25.102639 H          1 MOL1         0.3776
@<TRIPOS>BOND
    1     1     2    1
    2     1     3    1
    3     1     4    1
    4     4     5    1
    5     4     6    1
    6     4     7    1
    7     7     8    1
    8     7     9    1
    9     7    10    1
   10    10    11    1
   11     1    12    1
   12    10    12    1
   13    12    13    1
   14    12    14    1
   15    10    15    1
   16    15    16    1
@<TRIPOS>SUBSTRUCTURE
       1 MOL1            1 RESIDUE      1      MOL     
@<SCITEGIC>MOL_PROPERTY
VM2 Rank
SciTegic.value.IntegerValue
1

@<SCITEGIC>MOL_PROPERTY
Conf_Id
SciTegic.value.IntegerValue
134

@<SCITEGIC>MOL_PROPERTY
Probability
SciTegic.value.DoubleValue
36.24

@<SCITEGIC>MOL_PROPERTY
Sum Probability
SciTegic.value.DoubleValue
36.24

@<SCITEGIC>MOL_PROPERTY
Delta G
SciTegic.value.DoubleValue
0.000

@<SCITEGIC>MOL_PROPERTY
G
SciTegic.value.DoubleValue
30.218

@<SCITEGIC>MOL_PROPERTY
E
SciTegic.value.DoubleValue
15.547

@<SCITEGIC>MOL_PROPERTY
-TS
SciTegic.value.DoubleValue
14.671

@<SCITEGIC>MOL_PROPERTY
U+W
SciTegic.value.DoubleValue
3.028

@<SCITEGIC>MOL_PROPERTY
U
SciTegic.value.DoubleValue
5.894

@<SCITEGIC>MOL_PROPERTY
W
SciTegic.value.DoubleValue
-2.866

@<SCITEGIC>MOL_PROPERTY
W(PB)
SciTegic.value.DoubleValue
-4.607

@<SCITEGIC>MOL_PROPERTY
W(SA)
SciTegic.value.DoubleValue
1.741

@<SCITEGIC>MOL_PROPERTY
Valence
SciTegic.value.DoubleValue
13.780

@<SCITEGIC>MOL_PROPERTY
Coulomb
SciTegic.value.DoubleValue
-8.518

@<SCITEGIC>MOL_PROPERTY
VdW
SciTegic.value.DoubleValue
0.632

@<SCITEGIC>MOL_PROPERTY
VdW6
SciTegic.value.DoubleValue
-3.302

@<SCITEGIC>MOL_PROPERTY
VdW12
SciTegic.value.DoubleValue
3.934

@<SCITEGIC>MOL_PROPERTY
Bond
SciTegic.value.DoubleValue
0.054

@<SCITEGIC>MOL_PROPERTY
Angle
SciTegic.value.DoubleValue
4.030

@<SCITEGIC>MOL_PROPERTY
Pdih
SciTegic.value.DoubleValue
9.696

@<SCITEGIC>MOL_PROPERTY
Idih
SciTegic.value.DoubleValue
0.000

@<SCITEGIC>MOL_PROPERTY
Tether
SciTegic.value.DoubleValue
0.000

@<TRIPOS>MOLECULE
guest-4_vm2.mol2 : vm2 ligand conformer 2
          16          16           1
SMALL
USER_CHARGES
 
@<TRIPOS>ATOM
       1    C1      19.532191   19.369308   21.129702 C.3        1 MOL1        -0.1689
       2    H1      19.075774   20.334535   21.389977 H          1 MOL1         0.0830
       3    H2      19.965168   19.453109   20.123632 H          1 MOL1         0.0830
       4    C2      18.476507   18.259121   21.223018 C.3        1 MOL1        -0.1689
       5    H3      17.497669   18.580303   20.841657 H          1 MOL1         0.0830
       6    H4      18.803818   17.388257   20.638182 H          1 MOL1         0.0830
       7    C3      18.431232   17.894296   22.718720 C.3        1 MOL1        -0.1765
       8    H5      18.171749   16.838151   22.866170 H          1 MOL1         0.0830
       9    H6      17.665894   18.500780   23.221882 H          1 MOL1         0.0830
      10    C4      19.827092   18.217572   23.292764 C.3        1 MOL1         0.1214
      11    H7      20.364620   17.285646   23.520979 H          1 MOL1         0.0787
      12    C5      20.580829   18.991184   22.191304 C.3        1 MOL1        -0.1765
      13    H8      21.101353   19.877411   22.577797 H          1 MOL1         0.0830
      14    H9      21.334429   18.330830   21.742433 H          1 MOL1         0.0830
      15    O1      19.701150   19.023519   24.458493 O.3        1 MOL1        -0.5512
      16    H10     20.611217   19.208082   24.773075 H          1 MOL1         0.3776
@<TRIPOS>BOND
    1     1     2    1
    2     1     3    1
    3     1     4    1
    4     4     5    1
    5     4     6    1
    6     4     7    1
    7     7     8    1
    8     7     9    1
    9     7    10    1
   10    10    11    1
   11     1    12    1
   12    10    12    1
   13    12    13    1
   14    12    14    1
   15    10    15    1
   16    15    16    1
@<TRIPOS>SUBSTRUCTURE
       1 MOL1            1 RESIDUE      1      MOL     
@<SCITEGIC>MOL_PROPERTY
VM2 Rank
SciTegic.value.IntegerValue
2

@<SCITEGIC>MOL_PROPERTY
Conf_Id
SciTegic.value.IntegerValue
58

@<SCITEGIC>MOL_PROPERTY
Probability
SciTegic.value.DoubleValue
35.21

@<SCITEGIC>MOL_PROPERTY
Sum Probability
SciTegic.value.DoubleValue
71.44

@<SCITEGIC>MOL_PROPERTY
Delta G
SciTegic.value.DoubleValue
0.017

@<SCITEGIC>MOL_PROPERTY
G
SciTegic.value.DoubleValue
30.235

@<SCITEGIC>MOL_PROPERTY
E
SciTegic.value.DoubleValue
15.564

@<SCITEGIC>MOL_PROPERTY
-TS
SciTegic.value.DoubleValue
14.671

@<SCITEGIC>MOL_PROPERTY
U+W
SciTegic.value.DoubleValue
3.044

@<SCITEGIC>MOL_PROPERTY
U
SciTegic.value.DoubleValue
5.894

@<SCITEGIC>MOL_PROPERTY
W
SciTegic.value.DoubleValue
-2.849

@<SCITEGIC>MOL_PROPERTY
W(PB)
SciTegic.value.DoubleValue
-4.592

@<SCITEGIC>MOL_PROPERTY
W(SA)
SciTegic.value.DoubleValue
1.743

@<SCITEGIC>MOL_PROPERTY
Valence
SciTegic.value.DoubleValue
13.780

@<SCITEGIC>MOL_PROPERTY
Coulomb
SciTegic.value.DoubleValue
-8.518

@<SCITEGIC>MOL_PROPERTY
VdW
SciTegic.value.DoubleValue
0.632

@<SCITEGIC>MOL_PROPERTY
VdW6
SciTegic.value.DoubleValue
-3.302

@<SCITEGIC>MOL_PROPERTY
VdW12
SciTegic.value.DoubleValue
3.934

@<SCITEGIC>MOL_PROPERTY
Bond
SciTegic.value.DoubleValue
0.054

@<SCITEGIC>MOL_PROPERTY
Angle
SciTegic.value.DoubleValue
4.031

@<SCITEGIC>MOL_PROPERTY
Pdih
SciTegic.value.DoubleValue
9.696

@<SCITEGIC>MOL_PROPERTY
Idih
SciTegic.value.DoubleValue
0.000

@<SCITEGIC>MOL_PROPERTY
Tether
SciTegic.value.DoubleValue
0.000

@<TRIPOS>MOLECULE
guest-4_vm2.mol2 : vm2 ligand conformer 3
          16          16           1
SMALL
USER_CHARGES
 
@<TRIPOS>ATOM
       1    C1      19.585107   19.356242   21.169900 C.3        1 MOL1        -0.1689
       2    H1      19.399997   20.429419   21.315682 H          1 MOL1         0.0830
       3    H2      19.916243   19.213090   20.132184 H          1 MOL1         0.0830
       4    C2      18.299227   18.555776   21.471212 C.3        1 MOL1        -0.1689
       5    H3      17.491509   19.241621   21.761789 H          1 MOL1         0.0830
       6    H4      17.958276   17.993074   20.591372 H          1 MOL1         0.0830
       7    C3      18.638557   17.606160   22.639767 C.3        1 MOL1        -0.1765
       8    H5      18.881892   16.610928   22.244899 H          1 MOL1         0.0830
       9    H6      17.800449   17.491979   23.340156 H          1 MOL1         0.0830
      10    C4      19.885230   18.192512   23.315777 C.3        1 MOL1         0.1214
      11    H7      20.485586   17.411639   23.804440 H          1 MOL1         0.0787
      12    C5      20.653525   18.859391   22.166885 C.3        1 MOL1        -0.1765
      13    H8      21.304796   19.670977   22.517855 H          1 MOL1         0.0830
      14    H9      21.288944   18.108166   21.679521 H          1 MOL1         0.0830
      15    O1      19.487354   19.184918   24.250459 O.3        1 MOL1        -0.5512
      16    H10     18.964455   19.829498   23.730599 H          1 MOL1         0.3776
@<TRIPOS>BOND
    1     1     2    1
    2     1     3    1
    3     1     4    1
    4     4     5    1
    5     4     6    1
    6     4     7    1
    7     7     8    1
    8     7     9    1
    9     7    10    1
   10    10    11    1
   11     1    12    1
   12    10    12    1
   13    12    13    1
   14    12    14    1
   15    10    15    1
   16    15    16    1
@<TRIPOS>SUBSTRUCTURE
       1 MOL1            1 RESIDUE      1      MOL     
@<SCITEGIC>MOL_PROPERTY
VM2 Rank
SciTegic.value.IntegerValue
3

@<SCITEGIC>MOL_PROPERTY
Conf_Id
SciTegic.value.IntegerValue
20

@<SCITEGIC>MOL_PROPERTY
Probability
SciTegic.value.DoubleValue
28.56

@<SCITEGIC>MOL_PROPERTY
Sum Probability
SciTegic.value.DoubleValue
100.00

@<SCITEGIC>MOL_PROPERTY
Delta G
SciTegic.value.DoubleValue
0.142

@<SCITEGIC>MOL_PROPERTY
G
SciTegic.value.DoubleValue
30.360

@<SCITEGIC>MOL_PROPERTY
E
SciTegic.value.DoubleValue
15.047

@<SCITEGIC>MOL_PROPERTY
-TS
SciTegic.value.DoubleValue
15.313

@<SCITEGIC>MOL_PROPERTY
U+W
SciTegic.value.DoubleValue
2.527

@<SCITEGIC>MOL_PROPERTY
U
SciTegic.value.DoubleValue
4.508

@<SCITEGIC>MOL_PROPERTY
W
SciTegic.value.DoubleValue
-1.981

@<SCITEGIC>MOL_PROPERTY
W(PB)
SciTegic.value.DoubleValue
-3.712

@<SCITEGIC>MOL_PROPERTY
W(SA)
SciTegic.value.DoubleValue
1.732

@<SCITEGIC>MOL_PROPERTY
Valence
SciTegic.value.DoubleValue
14.705

@<SCITEGIC>MOL_PROPERTY
Coulomb
SciTegic.value.DoubleValue
-10.687

@<SCITEGIC>MOL_PROPERTY
VdW
SciTegic.value.DoubleValue
0.490

@<SCITEGIC>MOL_PROPERTY
VdW6
SciTegic.value.DoubleValue
-3.745

@<SCITEGIC>MOL_PROPERTY
VdW12
SciTegic.value.DoubleValue
4.235

@<SCITEGIC>MOL_PROPERTY
Bond
SciTegic.value.DoubleValue
0.068

@<SCITEGIC>MOL_PROPERTY
Angle
SciTegic.value.DoubleValue
3.901

@<SCITEGIC>MOL_PROPERTY
Pdih
SciTegic.value.DoubleValue
10.737

@<SCITEGIC>MOL_PROPERTY
Idih
SciTegic.value.DoubleValue
0.000

@<SCITEGIC>MOL_PROPERTY
Tether
SciTegic.value.DoubleValue
0.000

