VeraChem MOL file


 29 28  0  0  0  0  0  0  0  0999 V2000     
   19.5305   19.9313   18.7440 C   0  0  0  0  0  0  0  0  0  0  0  0
   18.5905   20.4925   18.8260 H   0  0  0  0  0  0  0  0  0  0  0  0
   20.3584   20.6520   18.7240 H   0  0  0  0  0  0  0  0  0  0  0  0
   19.5231   19.3998   17.7835 H   0  0  0  0  0  0  0  0  0  0  0  0
   19.6877   18.9385   19.9150 C   0  0  0  0  0  0  0  0  0  0  0  0
   20.6190   18.3689   19.7876 H   0  0  0  0  0  0  0  0  0  0  0  0
   18.8647   18.2105   19.8888 H   0  0  0  0  0  0  0  0  0  0  0  0
   19.7011   19.6615   21.2799 C   0  0  0  0  0  0  0  0  0  0  0  0
   20.5239   20.3896   21.3005 H   0  0  0  0  0  0  0  0  0  0  0  0
   18.7694   20.2312   21.4016 H   0  0  0  0  0  0  0  0  0  0  0  0
   19.8585   18.6704   22.4551 C   0  0  0  0  0  0  0  0  0  0  0  0
   20.7899   18.1006   22.3314 H   0  0  0  0  0  0  0  0  0  0  0  0
   19.0353   17.9428   22.4339 H   0  0  0  0  0  0  0  0  0  0  0  0
   19.8725   19.3943   23.8204 C   0  0  0  0  0  0  0  0  0  0  0  0
   20.6981   20.1192   23.8421 H   0  0  0  0  0  0  0  0  0  0  0  0
   18.9419   19.9661   23.9337 H   0  0  0  0  0  0  0  0  0  0  0  0
   20.0289   18.3991   24.9958 C   0  0  0  0  0  0  0  0  0  0  0  0
   20.9355   17.8003   24.8354 H   0  0  0  0  0  0  0  0  0  0  0  0
   19.1856   17.6956   25.0018 H   0  0  0  0  0  0  0  0  0  0  0  0
   20.1314   19.0990   26.3682 C   0  0  2  0  0  0  0  0  0  0  0  0
   20.9619   19.8106   26.3293 H   0  0  0  0  0  0  0  0  0  0  0  0
   20.4280   18.0709   27.4716 C   0  0  0  0  0  0  0  0  0  0  0  0
   20.5382   18.5660   28.4442 H   0  0  0  0  0  0  0  0  0  0  0  0
   19.6207   17.3322   27.5534 H   0  0  0  0  0  0  0  0  0  0  0  0
   21.3622   17.5344   27.2637 H   0  0  0  0  0  0  0  0  0  0  0  0
   18.8975   19.8911   26.7041 N   0  3  0  0  0  0  0  0  0  0  0  0
   18.9908   20.3638   27.6077 H   0  0  0  0  0  0  0  0  0  0  0  0
   18.0710   19.2897   26.7565 H   0  0  0  0  0  0  0  0  0  0  0  0
   18.7119   20.6103   25.9998 H   0  0  0  0  0  0  0  0  0  0  0  0
  1  2  1  0  0  0  0
  1  3  1  0  0  0  0
  1  4  1  0  0  0  0
  1  5  1  0  0  0  0
  5  6  1  0  0  0  0
  5  7  1  0  0  0  0
  5  8  1  0  0  0  0
  8  9  1  0  0  0  0
  8 10  1  0  0  0  0
  8 11  1  0  0  0  0
 11 12  1  0  0  0  0
 11 13  1  0  0  0  0
 11 14  1  0  0  0  0
 14 15  1  0  0  0  0
 14 16  1  0  0  0  0
 14 17  1  0  0  0  0
 17 18  1  0  0  0  0
 17 19  1  0  0  0  0
 17 20  1  0  0  0  0
 20 21  1  0  0  0  0
 20 22  1  0  0  0  0
 22 23  1  0  0  0  0
 22 24  1  0  0  0  0
 22 25  1  0  0  0  0
 20 26  1  0  0  0  0
 26 27  1  0  0  0  0
 26 28  1  0  0  0  0
 26 29  1  0  0  0  0
M  END
> <VM2 Rank>
1

> <Conf_Id>
402

> <Probability>
10.66

> <Sum Probability>
10.66

> <Delta G>
0.000

> <G>
33.702

> <E>
-3.682

> <-TS>
37.384

> <U+W>
-27.827

> <U>
23.963

> <W>
-51.788

> <W(PB)>
-54.342

> <W(SA)>
2.554

> <Valence>
3.166

> <Coulomb>
19.734

> <VdW>
1.063

> <VdW6>
-7.938

> <VdW12>
9.001

> <Bond>
0.188

> <Angle>
0.880

> <Pdih>
2.098

> <Idih>
0.000

> <Tether>
0.000

$$$$
VeraChem MOL file


 29 28  0  0  0  0  0  0  0  0999 V2000     
   19.0308   19.3523   18.8498 C   0  0  0  0  0  0  0  0  0  0  0  0
   18.5002   18.3915   18.8268 H   0  0  0  0  0  0  0  0  0  0  0  0
   18.2859   20.1519   18.9554 H   0  0  0  0  0  0  0  0  0  0  0  0
   19.5318   19.4840   17.8820 H   0  0  0  0  0  0  0  0  0  0  0  0
   20.0549   19.3927   20.0036 C   0  0  0  0  0  0  0  0  0  0  0  0
   20.5928   20.3509   19.9804 H   0  0  0  0  0  0  0  0  0  0  0  0
   20.8054   18.6040   19.8528 H   0  0  0  0  0  0  0  0  0  0  0  0
   19.3751   19.2095   21.3785 C   0  0  0  0  0  0  0  0  0  0  0  0
   18.6245   19.9987   21.5237 H   0  0  0  0  0  0  0  0  0  0  0  0
   18.8368   18.2517   21.3960 H   0  0  0  0  0  0  0  0  0  0  0  0
   20.3977   19.2492   22.5364 C   0  0  0  0  0  0  0  0  0  0  0  0
   20.9356   20.2072   22.5173 H   0  0  0  0  0  0  0  0  0  0  0  0
   21.1481   18.4600   22.3898 H   0  0  0  0  0  0  0  0  0  0  0  0
   19.7173   19.0657   23.9118 C   0  0  0  0  0  0  0  0  0  0  0  0
   18.9680   19.8561   24.0512 H   0  0  0  0  0  0  0  0  0  0  0  0
   19.1790   18.1088   23.9191 H   0  0  0  0  0  0  0  0  0  0  0  0
   20.7490   19.1031   25.0692 C   0  0  0  0  0  0  0  0  0  0  0  0
   21.3132   20.0437   25.0189 H   0  0  0  0  0  0  0  0  0  0  0  0
   21.4853   18.3013   24.9249 H   0  0  0  0  0  0  0  0  0  0  0  0
   20.1434   18.9722   26.4866 C   0  0  2  0  0  0  0  0  0  0  0  0
   20.9693   19.0447   27.2010 H   0  0  0  0  0  0  0  0  0  0  0  0
   19.4612   17.6099   26.7012 C   0  0  0  0  0  0  0  0  0  0  0  0
   19.1633   17.4915   27.7502 H   0  0  0  0  0  0  0  0  0  0  0  0
   18.5611   17.5050   26.0840 H   0  0  0  0  0  0  0  0  0  0  0  0
   20.1453   16.7882   26.4551 H   0  0  0  0  0  0  0  0  0  0  0  0
   19.2066   20.1014   26.8169 N   0  3  0  0  0  0  0  0  0  0  0  0
   18.8633   20.0333   27.7793 H   0  0  0  0  0  0  0  0  0  0  0  0
   18.3913   20.1000   26.1991 H   0  0  0  0  0  0  0  0  0  0  0  0
   19.6664   21.0113   26.7196 H   0  0  0  0  0  0  0  0  0  0  0  0
  1  2  1  0  0  0  0
  1  3  1  0  0  0  0
  1  4  1  0  0  0  0
  1  5  1  0  0  0  0
  5  6  1  0  0  0  0
  5  7  1  0  0  0  0
  5  8  1  0  0  0  0
  8  9  1  0  0  0  0
  8 10  1  0  0  0  0
  8 11  1  0  0  0  0
 11 12  1  0  0  0  0
 11 13  1  0  0  0  0
 11 14  1  0  0  0  0
 14 15  1  0  0  0  0
 14 16  1  0  0  0  0
 14 17  1  0  0  0  0
 17 18  1  0  0  0  0
 17 19  1  0  0  0  0
 17 20  1  0  0  0  0
 20 21  1  0  0  0  0
 20 22  1  0  0  0  0
 22 23  1  0  0  0  0
 22 24  1  0  0  0  0
 22 25  1  0  0  0  0
 20 26  1  0  0  0  0
 26 27  1  0  0  0  0
 26 28  1  0  0  0  0
 26 29  1  0  0  0  0
M  END
> <VM2 Rank>
2

> <Conf_Id>
399

> <Probability>
5.23

> <Sum Probability>
15.89

> <Delta G>
0.425

> <G>
34.127

> <E>
-3.403

> <-TS>
37.530

> <U+W>
-27.548

> <U>
24.513

> <W>
-52.061

> <W(PB)>
-54.558

> <W(SA)>
2.497

> <Valence>
3.678

> <Coulomb>
19.662

> <VdW>
1.174

> <VdW6>
-8.569

> <VdW12>
9.743

> <Bond>
0.224

> <Angle>
1.211

> <Pdih>
2.243

> <Idih>
0.000

> <Tether>
0.000

$$$$
VeraChem MOL file


 29 28  0  0  0  0  0  0  0  0999 V2000     
   20.2031   19.4674   18.6904 C   0  0  0  0  0  0  0  0  0  0  0  0
   20.5985   20.4914   18.7045 H   0  0  0  0  0  0  0  0  0  0  0  0
   21.0525   18.7734   18.6438 H   0  0  0  0  0  0  0  0  0  0  0  0
   19.6169   19.3449   17.7704 H   0  0  0  0  0  0  0  0  0  0  0  0
   19.3302   19.1928   19.9333 C   0  0  0  0  0  0  0  0  0  0  0  0
   18.9221   18.1741   19.8744 H   0  0  0  0  0  0  0  0  0  0  0  0
   18.4716   19.8789   19.9345 H   0  0  0  0  0  0  0  0  0  0  0  0
   20.1320   19.3585   21.2431 C   0  0  0  0  0  0  0  0  0  0  0  0
   20.9904   18.6726   21.2361 H   0  0  0  0  0  0  0  0  0  0  0  0
   20.5398   20.3775   21.2964 H   0  0  0  0  0  0  0  0  0  0  0  0
   19.2613   19.0843   22.4899 C   0  0  0  0  0  0  0  0  0  0  0  0
   18.8542   18.0651   22.4360 H   0  0  0  0  0  0  0  0  0  0  0  0
   18.4026   19.7700   22.4947 H   0  0  0  0  0  0  0  0  0  0  0  0
   20.0638   19.2507   23.8002 C   0  0  0  0  0  0  0  0  0  0  0  0
   20.9233   18.5679   23.7813 H   0  0  0  0  0  0  0  0  0  0  0  0
   20.4665   20.2716   23.8563 H   0  0  0  0  0  0  0  0  0  0  0  0
   19.1902   18.9708   25.0478 C   0  0  0  0  0  0  0  0  0  0  0  0
   18.8392   17.9305   25.0284 H   0  0  0  0  0  0  0  0  0  0  0  0
   18.2937   19.6027   24.9953 H   0  0  0  0  0  0  0  0  0  0  0  0
   19.9086   19.2524   26.3872 C   0  0  2  0  0  0  0  0  0  0  0  0
   20.2850   20.2797   26.3655 H   0  0  0  0  0  0  0  0  0  0  0  0
   21.0972   18.3024   26.6195 C   0  0  0  0  0  0  0  0  0  0  0  0
   20.7790   17.2530   26.5862 H   0  0  0  0  0  0  0  0  0  0  0  0
   21.8787   18.4492   25.8651 H   0  0  0  0  0  0  0  0  0  0  0  0
   21.5542   18.4882   27.5994 H   0  0  0  0  0  0  0  0  0  0  0  0
   18.9495   19.1766   27.5426 N   0  3  0  0  0  0  0  0  0  0  0  0
   19.4123   19.4013   28.4281 H   0  0  0  0  0  0  0  0  0  0  0  0
   18.5499   18.2389   27.6361 H   0  0  0  0  0  0  0  0  0  0  0  0
   18.1715   19.8332   27.4306 H   0  0  0  0  0  0  0  0  0  0  0  0
  1  2  1  0  0  0  0
  1  3  1  0  0  0  0
  1  4  1  0  0  0  0
  1  5  1  0  0  0  0
  5  6  1  0  0  0  0
  5  7  1  0  0  0  0
  5  8  1  0  0  0  0
  8  9  1  0  0  0  0
  8 10  1  0  0  0  0
  8 11  1  0  0  0  0
 11 12  1  0  0  0  0
 11 13  1  0  0  0  0
 11 14  1  0  0  0  0
 14 15  1  0  0  0  0
 14 16  1  0  0  0  0
 14 17  1  0  0  0  0
 17 18  1  0  0  0  0
 17 19  1  0  0  0  0
 17 20  1  0  0  0  0
 20 21  1  0  0  0  0
 20 22  1  0  0  0  0
 22 23  1  0  0  0  0
 22 24  1  0  0  0  0
 22 25  1  0  0  0  0
 20 26  1  0  0  0  0
 26 27  1  0  0  0  0
 26 28  1  0  0  0  0
 26 29  1  0  0  0  0
M  END
> <VM2 Rank>
3

> <Conf_Id>
58

> <Probability>
5.21

> <Sum Probability>
21.10

> <Delta G>
0.427

> <G>
34.129

> <E>
-3.270

> <-TS>
37.399

> <U+W>
-27.414

> <U>
24.279

> <W>
-51.694

> <W(PB)>
-54.271

> <W(SA)>
2.577

> <Valence>
3.709

> <Coulomb>
19.380

> <VdW>
1.191

> <VdW6>
-8.093

> <VdW12>
9.284

> <Bond>
0.200

> <Angle>
1.161

> <Pdih>
2.348

> <Idih>
0.000

> <Tether>
0.000

$$$$
VeraChem MOL file


 29 28  0  0  0  0  0  0  0  0999 V2000     
   18.8289   18.7942   19.4037 C   0  0  0  0  0  0  0  0  0  0  0  0
   18.6832   17.8741   19.9831 H   0  0  0  0  0  0  0  0  0  0  0  0
   17.9439   19.4297   19.5381 H   0  0  0  0  0  0  0  0  0  0  0  0
   18.8818   18.5118   18.3443 H   0  0  0  0  0  0  0  0  0  0  0  0
   20.1157   19.5362   19.8305 C   0  0  0  0  0  0  0  0  0  0  0  0
   20.2824   20.3786   19.1448 H   0  0  0  0  0  0  0  0  0  0  0  0
   20.9820   18.8698   19.7152 H   0  0  0  0  0  0  0  0  0  0  0  0
   20.0614   20.0784   21.2791 C   0  0  0  0  0  0  0  0  0  0  0  0
   20.9615   20.6823   21.4591 H   0  0  0  0  0  0  0  0  0  0  0  0
   19.2058   20.7597   21.3837 H   0  0  0  0  0  0  0  0  0  0  0  0
   19.9769   18.9655   22.3510 C   0  0  0  0  0  0  0  0  0  0  0  0
   20.8047   18.2570   22.2094 H   0  0  0  0  0  0  0  0  0  0  0  0
   19.0455   18.3976   22.2275 H   0  0  0  0  0  0  0  0  0  0  0  0
   20.0307   19.5438   23.7832 C   0  0  0  0  0  0  0  0  0  0  0  0
   20.9656   20.1057   23.9169 H   0  0  0  0  0  0  0  0  0  0  0  0
   19.2068   20.2582   23.9131 H   0  0  0  0  0  0  0  0  0  0  0  0
   19.9407   18.4306   24.8551 C   0  0  0  0  0  0  0  0  0  0  0  0
   20.7388   17.6983   24.6738 H   0  0  0  0  0  0  0  0  0  0  0  0
   18.9902   17.8906   24.7512 H   0  0  0  0  0  0  0  0  0  0  0  0
   20.0775   18.9690   26.2957 C   0  0  2  0  0  0  0  0  0  0  0  0
   21.0191   19.5222   26.3672 H   0  0  0  0  0  0  0  0  0  0  0  0
   20.1238   17.8055   27.2990 C   0  0  0  0  0  0  0  0  0  0  0  0
   19.1977   17.2178   27.2683 H   0  0  0  0  0  0  0  0  0  0  0  0
   20.9625   17.1335   27.0782 H   0  0  0  0  0  0  0  0  0  0  0  0
   20.2576   18.1796   28.3215 H   0  0  0  0  0  0  0  0  0  0  0  0
   18.9804   19.9328   26.6567 N   0  3  0  0  0  0  0  0  0  0  0  0
   18.0610   19.4857   26.6101 H   0  0  0  0  0  0  0  0  0  0  0  0
   18.9656   20.7364   26.0229 H   0  0  0  0  0  0  0  0  0  0  0  0
   19.0981   20.2945   27.6075 H   0  0  0  0  0  0  0  0  0  0  0  0
  1  2  1  0  0  0  0
  1  3  1  0  0  0  0
  1  4  1  0  0  0  0
  1  5  1  0  0  0  0
  5  6  1  0  0  0  0
  5  7  1  0  0  0  0
  5  8  1  0  0  0  0
  8  9  1  0  0  0  0
  8 10  1  0  0  0  0
  8 11  1  0  0  0  0
 11 12  1  0  0  0  0
 11 13  1  0  0  0  0
 11 14  1  0  0  0  0
 14 15  1  0  0  0  0
 14 16  1  0  0  0  0
 14 17  1  0  0  0  0
 17 18  1  0  0  0  0
 17 19  1  0  0  0  0
 17 20  1  0  0  0  0
 20 21  1  0  0  0  0
 20 22  1  0  0  0  0
 22 23  1  0  0  0  0
 22 24  1  0  0  0  0
 22 25  1  0  0  0  0
 20 26  1  0  0  0  0
 26 27  1  0  0  0  0
 26 28  1  0  0  0  0
 26 29  1  0  0  0  0
M  END
> <VM2 Rank>
4

> <Conf_Id>
1220

> <Probability>
4.02

> <Sum Probability>
25.12

> <Delta G>
0.582

> <G>
34.284

> <E>
-3.211

> <-TS>
37.495

> <U+W>
-27.356

> <U>
24.589

> <W>
-51.945

> <W(PB)>
-54.480

> <W(SA)>
2.535

> <Valence>
3.670

> <Coulomb>
19.723

> <VdW>
1.196

> <VdW6>
-8.561

> <VdW12>
9.756

> <Bond>
0.223

> <Angle>
1.119

> <Pdih>
2.329

> <Idih>
0.000

> <Tether>
0.000

$$$$
VeraChem MOL file


 29 28  0  0  0  0  0  0  0  0999 V2000     
   20.4862   18.8981   19.3012 C   0  0  0  0  0  0  0  0  0  0  0  0
   20.3549   18.5912   18.2555 H   0  0  0  0  0  0  0  0  0  0  0  0
   21.2781   19.6576   19.3314 H   0  0  0  0  0  0  0  0  0  0  0  0
   20.8298   18.0199   19.8618 H   0  0  0  0  0  0  0  0  0  0  0  0
   19.1617   19.4534   19.8720 C   0  0  0  0  0  0  0  0  0  0  0  0
   18.3947   18.6664   19.8590 H   0  0  0  0  0  0  0  0  0  0  0  0
   18.7965   20.2496   19.2083 H   0  0  0  0  0  0  0  0  0  0  0  0
   19.3005   20.0253   21.3035 C   0  0  0  0  0  0  0  0  0  0  0  0
   20.0539   20.8251   21.3075 H   0  0  0  0  0  0  0  0  0  0  0  0
   18.3483   20.4960   21.5845 H   0  0  0  0  0  0  0  0  0  0  0  0
   19.6677   18.9570   22.3612 C   0  0  0  0  0  0  0  0  0  0  0  0
   20.6511   18.5266   22.1311 H   0  0  0  0  0  0  0  0  0  0  0  0
   18.9407   18.1342   22.3190 H   0  0  0  0  0  0  0  0  0  0  0  0
   19.6948   19.5490   23.7885 C   0  0  0  0  0  0  0  0  0  0  0  0
   20.4222   20.3718   23.8294 H   0  0  0  0  0  0  0  0  0  0  0  0
   18.7113   19.9799   24.0182 H   0  0  0  0  0  0  0  0  0  0  0  0
   20.0645   18.4805   24.8459 C   0  0  0  0  0  0  0  0  0  0  0  0
   21.0242   18.0242   24.5688 H   0  0  0  0  0  0  0  0  0  0  0  0
   19.3192   17.6741   24.8354 H   0  0  0  0  0  0  0  0  0  0  0  0
   20.1828   19.0601   26.2721 C   0  0  2  0  0  0  0  0  0  0  0  0
   20.9120   19.8758   26.2515 H   0  0  0  0  0  0  0  0  0  0  0  0
   20.6894   17.9842   27.2458 C   0  0  0  0  0  0  0  0  0  0  0  0
   19.9898   17.1410   27.3048 H   0  0  0  0  0  0  0  0  0  0  0  0
   21.6649   17.5971   26.9260 H   0  0  0  0  0  0  0  0  0  0  0  0
   20.8106   18.3991   28.2541 H   0  0  0  0  0  0  0  0  0  0  0  0
   18.8885   19.6483   26.7637 N   0  3  0  0  0  0  0  0  0  0  0  0
   18.9905   20.0452   27.7022 H   0  0  0  0  0  0  0  0  0  0  0  0
   18.1504   18.9407   26.8084 H   0  0  0  0  0  0  0  0  0  0  0  0
   18.5610   20.3977   26.1481 H   0  0  0  0  0  0  0  0  0  0  0  0
  1  2  1  0  0  0  0
  1  3  1  0  0  0  0
  1  4  1  0  0  0  0
  1  5  1  0  0  0  0
  5  6  1  0  0  0  0
  5  7  1  0  0  0  0
  5  8  1  0  0  0  0
  8  9  1  0  0  0  0
  8 10  1  0  0  0  0
  8 11  1  0  0  0  0
 11 12  1  0  0  0  0
 11 13  1  0  0  0  0
 11 14  1  0  0  0  0
 14 15  1  0  0  0  0
 14 16  1  0  0  0  0
 14 17  1  0  0  0  0
 17 18  1  0  0  0  0
 17 19  1  0  0  0  0
 17 20  1  0  0  0  0
 20 21  1  0  0  0  0
 20 22  1  0  0  0  0
 22 23  1  0  0  0  0
 22 24  1  0  0  0  0
 22 25  1  0  0  0  0
 20 26  1  0  0  0  0
 26 27  1  0  0  0  0
 26 28  1  0  0  0  0
 26 29  1  0  0  0  0
M  END
> <VM2 Rank>
5

> <Conf_Id>
1039

> <Probability>
3.90

> <Sum Probability>
29.02

> <Delta G>
0.600

> <G>
34.302

> <E>
-3.193

> <-TS>
37.495

> <U+W>
-27.338

> <U>
24.574

> <W>
-51.911

> <W(PB)>
-54.448

> <W(SA)>
2.537

> <Valence>
3.669

> <Coulomb>
19.705

> <VdW>
1.200

> <VdW6>
-8.560

> <VdW12>
9.760

> <Bond>
0.223

> <Angle>
1.118

> <Pdih>
2.328

> <Idih>
0.000

> <Tether>
0.000

$$$$
VeraChem MOL file


 29 28  0  0  0  0  0  0  0  0999 V2000     
   20.6746   18.9864   19.1354 C   0  0  0  0  0  0  0  0  0  0  0  0
   21.3268   19.8694   19.1534 H   0  0  0  0  0  0  0  0  0  0  0  0
   21.2744   18.1124   19.4209 H   0  0  0  0  0  0  0  0  0  0  0  0
   20.3351   18.8392   18.1019 H   0  0  0  0  0  0  0  0  0  0  0  0
   19.4706   19.1669   20.0840 C   0  0  0  0  0  0  0  0  0  0  0  0
   18.8201   18.2834   20.0198 H   0  0  0  0  0  0  0  0  0  0  0  0
   18.8716   20.0266   19.7525 H   0  0  0  0  0  0  0  0  0  0  0  0
   19.9212   19.3771   21.5465 C   0  0  0  0  0  0  0  0  0  0  0  0
   20.5261   18.5167   21.8604 H   0  0  0  0  0  0  0  0  0  0  0  0
   20.5688   20.2627   21.6058 H   0  0  0  0  0  0  0  0  0  0  0  0
   18.7140   19.5534   22.4990 C   0  0  0  0  0  0  0  0  0  0  0  0
   18.0959   18.6450   22.4867 H   0  0  0  0  0  0  0  0  0  0  0  0
   18.0770   20.3644   22.1198 H   0  0  0  0  0  0  0  0  0  0  0  0
   19.1150   19.8887   23.9568 C   0  0  0  0  0  0  0  0  0  0  0  0
   19.7307   20.7988   23.9682 H   0  0  0  0  0  0  0  0  0  0  0  0
   18.1994   20.1279   24.5133 H   0  0  0  0  0  0  0  0  0  0  0  0
   19.8699   18.7382   24.6715 C   0  0  0  0  0  0  0  0  0  0  0  0
   20.7968   18.5193   24.1273 H   0  0  0  0  0  0  0  0  0  0  0  0
   19.2644   17.8225   24.6436 H   0  0  0  0  0  0  0  0  0  0  0  0
   20.2342   19.0748   26.1339 C   0  0  2  0  0  0  0  0  0  0  0  0
   20.8048   20.0086   26.1391 H   0  0  0  0  0  0  0  0  0  0  0  0
   21.1156   17.9674   26.7333 C   0  0  0  0  0  0  0  0  0  0  0  0
   20.5874   17.0058   26.7514 H   0  0  0  0  0  0  0  0  0  0  0  0
   22.0352   17.8412   26.1484 H   0  0  0  0  0  0  0  0  0  0  0  0
   21.4071   18.2167   27.7611 H   0  0  0  0  0  0  0  0  0  0  0  0
   19.0209   19.3032   26.9936 N   0  3  0  0  0  0  0  0  0  0  0  0
   19.2828   19.5420   27.9543 H   0  0  0  0  0  0  0  0  0  0  0  0
   18.4308   18.4679   27.0352 H   0  0  0  0  0  0  0  0  0  0  0  0
   18.4462   20.0697   26.6336 H   0  0  0  0  0  0  0  0  0  0  0  0
  1  2  1  0  0  0  0
  1  3  1  0  0  0  0
  1  4  1  0  0  0  0
  1  5  1  0  0  0  0
  5  6  1  0  0  0  0
  5  7  1  0  0  0  0
  5  8  1  0  0  0  0
  8  9  1  0  0  0  0
  8 10  1  0  0  0  0
  8 11  1  0  0  0  0
 11 12  1  0  0  0  0
 11 13  1  0  0  0  0
 11 14  1  0  0  0  0
 14 15  1  0  0  0  0
 14 16  1  0  0  0  0
 14 17  1  0  0  0  0
 17 18  1  0  0  0  0
 17 19  1  0  0  0  0
 17 20  1  0  0  0  0
 20 21  1  0  0  0  0
 20 22  1  0  0  0  0
 22 23  1  0  0  0  0
 22 24  1  0  0  0  0
 22 25  1  0  0  0  0
 20 26  1  0  0  0  0
 26 27  1  0  0  0  0
 26 28  1  0  0  0  0
 26 29  1  0  0  0  0
M  END
> <VM2 Rank>
6

> <Conf_Id>
1238

> <Probability>
3.58

> <Sum Probability>
32.60

> <Delta G>
0.651

> <G>
34.353

> <E>
-3.103

> <-TS>
37.455

> <U+W>
-27.247

> <U>
24.710

> <W>
-51.958

> <W(PB)>
-54.513

> <W(SA)>
2.555

> <Valence>
3.735

> <Coulomb>
19.760

> <VdW>
1.216

> <VdW6>
-8.624

> <VdW12>
9.840

> <Bond>
0.236

> <Angle>
1.168

> <Pdih>
2.330

> <Idih>
0.000

> <Tether>
0.000

$$$$
VeraChem MOL file


 29 28  0  0  0  0  0  0  0  0999 V2000     
   19.7045   20.0256   19.0213 C   0  0  0  0  0  0  0  0  0  0  0  0
   20.4610   20.3918   18.3153 H   0  0  0  0  0  0  0  0  0  0  0  0
   19.2424   19.1300   18.5858 H   0  0  0  0  0  0  0  0  0  0  0  0
   18.9301   20.7980   19.1165 H   0  0  0  0  0  0  0  0  0  0  0  0
   20.3439   19.7099   20.3900 C   0  0  0  0  0  0  0  0  0  0  0  0
   20.8266   20.6151   20.7843 H   0  0  0  0  0  0  0  0  0  0  0  0
   21.1364   18.9599   20.2579 H   0  0  0  0  0  0  0  0  0  0  0  0
   19.2995   19.1920   21.4033 C   0  0  0  0  0  0  0  0  0  0  0  0
   18.5085   19.9440   21.5305 H   0  0  0  0  0  0  0  0  0  0  0  0
   18.8181   18.2889   21.0032 H   0  0  0  0  0  0  0  0  0  0  0  0
   19.9363   18.8742   22.7749 C   0  0  0  0  0  0  0  0  0  0  0  0
   20.4223   19.7790   23.1636 H   0  0  0  0  0  0  0  0  0  0  0  0
   20.7243   18.1193   22.6463 H   0  0  0  0  0  0  0  0  0  0  0  0
   18.8872   18.3576   23.7884 C   0  0  0  0  0  0  0  0  0  0  0  0
   18.1090   19.1178   23.9388 H   0  0  0  0  0  0  0  0  0  0  0  0
   18.3774   17.4824   23.3625 H   0  0  0  0  0  0  0  0  0  0  0  0
   19.5033   17.9514   25.1516 C   0  0  0  0  0  0  0  0  0  0  0  0
   20.2037   17.1214   24.9891 H   0  0  0  0  0  0  0  0  0  0  0  0
   18.7090   17.5593   25.8006 H   0  0  0  0  0  0  0  0  0  0  0  0
   20.2407   19.0965   25.8814 C   0  0  2  0  0  0  0  0  0  0  0  0
   21.0408   19.4615   25.2307 H   0  0  0  0  0  0  0  0  0  0  0  0
   20.8786   18.5796   27.1805 C   0  0  0  0  0  0  0  0  0  0  0  0
   20.1166   18.2049   27.8755 H   0  0  0  0  0  0  0  0  0  0  0  0
   21.5813   17.7633   26.9714 H   0  0  0  0  0  0  0  0  0  0  0  0
   21.4368   19.3787   27.6836 H   0  0  0  0  0  0  0  0  0  0  0  0
   19.3421   20.2693   26.1626 N   0  3  0  0  0  0  0  0  0  0  0  0
   18.9409   20.6447   25.2989 H   0  0  0  0  0  0  0  0  0  0  0  0
   19.8510   21.0297   26.6223 H   0  0  0  0  0  0  0  0  0  0  0  0
   18.5656   20.0052   26.7748 H   0  0  0  0  0  0  0  0  0  0  0  0
  1  2  1  0  0  0  0
  1  3  1  0  0  0  0
  1  4  1  0  0  0  0
  1  5  1  0  0  0  0
  5  6  1  0  0  0  0
  5  7  1  0  0  0  0
  5  8  1  0  0  0  0
  8  9  1  0  0  0  0
  8 10  1  0  0  0  0
  8 11  1  0  0  0  0
 11 12  1  0  0  0  0
 11 13  1  0  0  0  0
 11 14  1  0  0  0  0
 14 15  1  0  0  0  0
 14 16  1  0  0  0  0
 14 17  1  0  0  0  0
 17 18  1  0  0  0  0
 17 19  1  0  0  0  0
 17 20  1  0  0  0  0
 20 21  1  0  0  0  0
 20 22  1  0  0  0  0
 22 23  1  0  0  0  0
 22 24  1  0  0  0  0
 22 25  1  0  0  0  0
 20 26  1  0  0  0  0
 26 27  1  0  0  0  0
 26 28  1  0  0  0  0
 26 29  1  0  0  0  0
M  END
> <VM2 Rank>
7

> <Conf_Id>
933

> <Probability>
3.51

> <Sum Probability>
36.11

> <Delta G>
0.662

> <G>
34.364

> <E>
-3.215

> <-TS>
37.579

> <U+W>
-27.360

> <U>
24.672

> <W>
-52.032

> <W(PB)>
-54.582

> <W(SA)>
2.550

> <Valence>
3.465

> <Coulomb>
20.280

> <VdW>
0.927

> <VdW6>
-8.843

> <VdW12>
9.770

> <Bond>
0.217

> <Angle>
1.094

> <Pdih>
2.153

> <Idih>
0.000

> <Tether>
0.000

$$$$
VeraChem MOL file


 29 28  0  0  0  0  0  0  0  0999 V2000     
   18.6214   18.9170   19.2920 C   0  0  0  0  0  0  0  0  0  0  0  0
   18.1665   17.9711   19.6136 H   0  0  0  0  0  0  0  0  0  0  0  0
   17.8748   19.7131   19.4099 H   0  0  0  0  0  0  0  0  0  0  0  0
   18.8571   18.8316   18.2233 H   0  0  0  0  0  0  0  0  0  0  0  0
   19.8947   19.2258   20.1077 C   0  0  0  0  0  0  0  0  0  0  0  0
   20.3454   20.1584   19.7402 H   0  0  0  0  0  0  0  0  0  0  0  0
   20.6347   18.4299   19.9440 H   0  0  0  0  0  0  0  0  0  0  0  0
   19.5905   19.3521   21.6168 C   0  0  0  0  0  0  0  0  0  0  0  0
   18.8521   20.1501   21.7755 H   0  0  0  0  0  0  0  0  0  0  0  0
   19.1329   18.4184   21.9688 H   0  0  0  0  0  0  0  0  0  0  0  0
   20.8674   19.6576   22.4361 C   0  0  0  0  0  0  0  0  0  0  0  0
   21.3527   20.5523   22.0221 H   0  0  0  0  0  0  0  0  0  0  0  0
   21.5872   18.8355   22.3210 H   0  0  0  0  0  0  0  0  0  0  0  0
   20.5929   19.9006   23.9405 C   0  0  0  0  0  0  0  0  0  0  0  0
   21.5314   20.2132   24.4191 H   0  0  0  0  0  0  0  0  0  0  0  0
   19.8943   20.7410   24.0481 H   0  0  0  0  0  0  0  0  0  0  0  0
   20.0438   18.6516   24.6762 C   0  0  0  0  0  0  0  0  0  0  0  0
   20.7004   17.7972   24.4648 H   0  0  0  0  0  0  0  0  0  0  0  0
   19.0508   18.3900   24.2893 H   0  0  0  0  0  0  0  0  0  0  0  0
   19.9584   18.8475   26.2052 C   0  0  2  0  0  0  0  0  0  0  0  0
   20.9520   19.1232   26.5717 H   0  0  0  0  0  0  0  0  0  0  0  0
   19.5376   17.5373   26.8897 C   0  0  0  0  0  0  0  0  0  0  0  0
   18.5421   17.2174   26.5571 H   0  0  0  0  0  0  0  0  0  0  0  0
   20.2485   16.7331   26.6626 H   0  0  0  0  0  0  0  0  0  0  0  0
   19.5109   17.6598   27.9795 H   0  0  0  0  0  0  0  0  0  0  0  0
   19.0293   19.9662   26.5898 N   0  3  0  0  0  0  0  0  0  0  0  0
   18.0724   19.7803   26.2779 H   0  0  0  0  0  0  0  0  0  0  0  0
   19.3225   20.8545   26.1743 H   0  0  0  0  0  0  0  0  0  0  0  0
   19.0013   20.0970   27.6051 H   0  0  0  0  0  0  0  0  0  0  0  0
  1  2  1  0  0  0  0
  1  3  1  0  0  0  0
  1  4  1  0  0  0  0
  1  5  1  0  0  0  0
  5  6  1  0  0  0  0
  5  7  1  0  0  0  0
  5  8  1  0  0  0  0
  8  9  1  0  0  0  0
  8 10  1  0  0  0  0
  8 11  1  0  0  0  0
 11 12  1  0  0  0  0
 11 13  1  0  0  0  0
 11 14  1  0  0  0  0
 14 15  1  0  0  0  0
 14 16  1  0  0  0  0
 14 17  1  0  0  0  0
 17 18  1  0  0  0  0
 17 19  1  0  0  0  0
 17 20  1  0  0  0  0
 20 21  1  0  0  0  0
 20 22  1  0  0  0  0
 22 23  1  0  0  0  0
 22 24  1  0  0  0  0
 22 25  1  0  0  0  0
 20 26  1  0  0  0  0
 26 27  1  0  0  0  0
 26 28  1  0  0  0  0
 26 29  1  0  0  0  0
M  END
> <VM2 Rank>
8

> <Conf_Id>
1224

> <Probability>
3.51

> <Sum Probability>
39.62

> <Delta G>
0.663

> <G>
34.365

> <E>
-3.138

> <-TS>
37.502

> <U+W>
-27.282

> <U>
24.741

> <W>
-52.023

> <W(PB)>
-54.548

> <W(SA)>
2.525

> <Valence>
3.693

> <Coulomb>
19.919

> <VdW>
1.129

> <VdW6>
-8.666

> <VdW12>
9.795

> <Bond>
0.229

> <Angle>
1.104

> <Pdih>
2.360

> <Idih>
0.000

> <Tether>
0.000

$$$$
