VeraChem MOL file


 20 19  0  0  0  0  0  0  0  0999 V2000     
   20.4454   18.0660   18.7399 C   0  0  0  0  0  0  0  0  0  0  0  0
   20.6596   17.7974   17.7068 H   0  0  0  0  0  0  0  0  0  0  0  0
   20.5833   17.2883   19.4880 H   0  0  0  0  0  0  0  0  0  0  0  0
   20.0331   19.2995   19.0536 C   0  0  0  0  0  0  0  0  0  0  0  0
   19.9134   20.0362   18.2595 H   0  0  0  0  0  0  0  0  0  0  0  0
   19.6973   19.8197   20.4413 C   0  0  0  0  0  0  0  0  0  0  0  0
   18.6645   20.1929   20.4378 H   0  0  0  0  0  0  0  0  0  0  0  0
   20.3274   20.6941   20.6523 H   0  0  0  0  0  0  0  0  0  0  0  0
   19.8605   18.7897   21.5834 C   0  0  0  0  0  0  0  0  0  0  0  0
   19.2166   17.9210   21.3889 H   0  0  0  0  0  0  0  0  0  0  0  0
   20.8975   18.4276   21.6057 H   0  0  0  0  0  0  0  0  0  0  0  0
   19.5004   19.3966   22.9571 C   0  0  0  0  0  0  0  0  0  0  0  0
   18.4637   19.7608   22.9413 H   0  0  0  0  0  0  0  0  0  0  0  0
   20.1412   20.2665   23.1577 H   0  0  0  0  0  0  0  0  0  0  0  0
   19.6629   18.3671   24.1025 C   0  0  0  0  0  0  0  0  0  0  0  0
   19.0192   17.4974   23.9243 H   0  0  0  0  0  0  0  0  0  0  0  0
   20.6967   18.0031   24.1407 H   0  0  0  0  0  0  0  0  0  0  0  0
   19.3129   18.9430   25.4699 C   0  0  0  0  0  0  0  0  0  0  0  0
   20.1971   19.4750   26.1116 O   0  5  0  0  0  0  0  0  0  0  0  0
   18.1613   18.8614   25.8489 O   0  0  0  0  0  0  0  0  0  0  0  0
  1  2  1  0  0  0  0
  1  3  1  0  0  0  0
  1  4  2  0  0  0  0
  4  5  1  0  0  0  0
  4  6  1  0  0  0  0
  6  7  1  0  0  0  0
  6  8  1  0  0  0  0
  6  9  1  0  0  0  0
  9 10  1  0  0  0  0
  9 11  1  0  0  0  0
  9 12  1  0  0  0  0
 12 13  1  0  0  0  0
 12 14  1  0  0  0  0
 12 15  1  0  0  0  0
 15 16  1  0  0  0  0
 15 17  1  0  0  0  0
 15 18  1  0  0  0  0
 18 19  1  0  0  0  0
 18 20  2  0  0  0  0
M  END
> <VM2 Rank>
1

> <Conf_Id>
204

> <Probability>
13.63

> <Sum Probability>
13.63

> <Delta G>
0.000

> <G>
-21.889

> <E>
-37.137

> <-TS>
15.248

> <U+W>
-53.233

> <U>
6.572

> <W>
-59.803

> <W(PB)>
-62.037

> <W(SA)>
2.234

> <Valence>
7.989

> <Coulomb>
-2.698

> <VdW>
1.281

> <VdW6>
-6.467

> <VdW12>
7.748

> <Bond>
0.136

> <Angle>
2.854

> <Pdih>
4.998

> <Idih>
0.001

> <Tether>
0.000

$$$$
VeraChem MOL file


 20 19  0  0  0  0  0  0  0  0999 V2000     
   19.7354   18.4519   18.2413 C   0  0  0  0  0  0  0  0  0  0  0  0
   18.6526   18.3592   18.3078 H   0  0  0  0  0  0  0  0  0  0  0  0
   20.2194   18.0462   17.3544 H   0  0  0  0  0  0  0  0  0  0  0  0
   20.4463   19.0372   19.2086 C   0  0  0  0  0  0  0  0  0  0  0  0
   21.5296   19.1191   19.1229 H   0  0  0  0  0  0  0  0  0  0  0  0
   19.8446   19.6233   20.4664 C   0  0  0  0  0  0  0  0  0  0  0  0
   18.7575   19.7332   20.3525 H   0  0  0  0  0  0  0  0  0  0  0  0
   20.2484   20.6312   20.6317 H   0  0  0  0  0  0  0  0  0  0  0  0
   20.1458   18.7373   21.6932 C   0  0  0  0  0  0  0  0  0  0  0  0
   19.7434   17.7294   21.5212 H   0  0  0  0  0  0  0  0  0  0  0  0
   21.2332   18.6313   21.8094 H   0  0  0  0  0  0  0  0  0  0  0  0
   19.5410   19.3233   22.9876 C   0  0  0  0  0  0  0  0  0  0  0  0
   18.4531   19.4285   22.8737 H   0  0  0  0  0  0  0  0  0  0  0  0
   19.9426   20.3314   23.1611 H   0  0  0  0  0  0  0  0  0  0  0  0
   19.8425   18.4339   24.2189 C   0  0  0  0  0  0  0  0  0  0  0  0
   19.4361   17.4267   24.0671 H   0  0  0  0  0  0  0  0  0  0  0  0
   20.9257   18.3296   24.3547 H   0  0  0  0  0  0  0  0  0  0  0  0
   19.2549   18.9920   25.5101 C   0  0  0  0  0  0  0  0  0  0  0  0
   19.9341   19.7574   26.1654 O   0  5  0  0  0  0  0  0  0  0  0  0
   18.1264   18.6617   25.8165 O   0  0  0  0  0  0  0  0  0  0  0  0
  1  2  1  0  0  0  0
  1  3  1  0  0  0  0
  1  4  2  0  0  0  0
  4  5  1  0  0  0  0
  4  6  1  0  0  0  0
  6  7  1  0  0  0  0
  6  8  1  0  0  0  0
  6  9  1  0  0  0  0
  9 10  1  0  0  0  0
  9 11  1  0  0  0  0
  9 12  1  0  0  0  0
 12 13  1  0  0  0  0
 12 14  1  0  0  0  0
 12 15  1  0  0  0  0
 15 16  1  0  0  0  0
 15 17  1  0  0  0  0
 15 18  1  0  0  0  0
 18 19  1  0  0  0  0
 18 20  2  0  0  0  0
M  END
> <VM2 Rank>
2

> <Conf_Id>
322

> <Probability>
13.47

> <Sum Probability>
27.11

> <Delta G>
0.007

> <G>
-21.882

> <E>
-36.774

> <-TS>
14.892

> <U+W>
-52.870

> <U>
6.632

> <W>
-59.503

> <W(PB)>
-61.758

> <W(SA)>
2.255

> <Valence>
9.076

> <Coulomb>
-3.008

> <VdW>
0.564

> <VdW6>
-5.773

> <VdW12>
6.337

> <Bond>
0.084

> <Angle>
2.239

> <Pdih>
6.752

> <Idih>
0.001

> <Tether>
0.000

$$$$
VeraChem MOL file


 20 19  0  0  0  0  0  0  0  0999 V2000     
   20.9236   18.8104   18.3944 C   0  0  0  0  0  0  0  0  0  0  0  0
   20.9612   18.2700   17.4500 H   0  0  0  0  0  0  0  0  0  0  0  0
   21.8310   19.3182   18.7175 H   0  0  0  0  0  0  0  0  0  0  0  0
   19.8069   18.8443   19.1262 C   0  0  0  0  0  0  0  0  0  0  0  0
   18.9095   18.3285   18.7851 H   0  0  0  0  0  0  0  0  0  0  0  0
   19.6795   19.5735   20.4451 C   0  0  0  0  0  0  0  0  0  0  0  0
   18.7668   20.1843   20.4406 H   0  0  0  0  0  0  0  0  0  0  0  0
   20.5221   20.2653   20.5801 H   0  0  0  0  0  0  0  0  0  0  0  0
   19.6336   18.5828   21.6272 C   0  0  0  0  0  0  0  0  0  0  0  0
   18.7882   17.8938   21.4941 H   0  0  0  0  0  0  0  0  0  0  0  0
   20.5468   17.9717   21.6248 H   0  0  0  0  0  0  0  0  0  0  0  0
   19.5003   19.3110   22.9823 C   0  0  0  0  0  0  0  0  0  0  0  0
   18.5874   19.9227   22.9862 H   0  0  0  0  0  0  0  0  0  0  0  0
   20.3461   19.9994   23.1179 H   0  0  0  0  0  0  0  0  0  0  0  0
   19.4549   18.3170   24.1689 C   0  0  0  0  0  0  0  0  0  0  0  0
   18.6074   17.6304   24.0557 H   0  0  0  0  0  0  0  0  0  0  0  0
   20.3662   17.7072   24.1871 H   0  0  0  0  0  0  0  0  0  0  0  0
   19.3237   19.0127   25.5190 C   0  0  0  0  0  0  0  0  0  0  0  0
   20.3415   19.3292   26.1025 O   0  5  0  0  0  0  0  0  0  0  0  0
   18.2069   19.2371   25.9424 O   0  0  0  0  0  0  0  0  0  0  0  0
  1  2  1  0  0  0  0
  1  3  1  0  0  0  0
  1  4  2  0  0  0  0
  4  5  1  0  0  0  0
  4  6  1  0  0  0  0
  6  7  1  0  0  0  0
  6  8  1  0  0  0  0
  6  9  1  0  0  0  0
  9 10  1  0  0  0  0
  9 11  1  0  0  0  0
  9 12  1  0  0  0  0
 12 13  1  0  0  0  0
 12 14  1  0  0  0  0
 12 15  1  0  0  0  0
 15 16  1  0  0  0  0
 15 17  1  0  0  0  0
 15 18  1  0  0  0  0
 18 19  1  0  0  0  0
 18 20  2  0  0  0  0
M  END
> <VM2 Rank>
3

> <Conf_Id>
710

> <Probability>
12.22

> <Sum Probability>
39.32

> <Delta G>
0.065

> <G>
-21.824

> <E>
-36.715

> <-TS>
14.892

> <U+W>
-52.812

> <U>
6.632

> <W>
-59.444

> <W(PB)>
-61.727

> <W(SA)>
2.283

> <Valence>
9.076

> <Coulomb>
-3.008

> <VdW>
0.564

> <VdW6>
-5.773

> <VdW12>
6.337

> <Bond>
0.084

> <Angle>
2.239

> <Pdih>
6.752

> <Idih>
0.001

> <Tether>
0.000

$$$$
VeraChem MOL file


 20 19  0  0  0  0  0  0  0  0999 V2000     
   19.2310   18.4038   18.7285 C   0  0  0  0  0  0  0  0  0  0  0  0
   18.2506   18.2556   18.2789 H   0  0  0  0  0  0  0  0  0  0  0  0
   20.0633   17.8372   18.3140 H   0  0  0  0  0  0  0  0  0  0  0  0
   19.4013   19.2463   19.7507 C   0  0  0  0  0  0  0  0  0  0  0  0
   18.5551   19.8059   20.1483 H   0  0  0  0  0  0  0  0  0  0  0  0
   20.7334   19.5075   20.4208 C   0  0  0  0  0  0  0  0  0  0  0  0
   20.8635   20.5852   20.5874 H   0  0  0  0  0  0  0  0  0  0  0  0
   21.5500   19.1989   19.7542 H   0  0  0  0  0  0  0  0  0  0  0  0
   20.8758   18.7515   21.7610 C   0  0  0  0  0  0  0  0  0  0  0  0
   20.7291   17.6760   21.5905 H   0  0  0  0  0  0  0  0  0  0  0  0
   21.9037   18.8743   22.1288 H   0  0  0  0  0  0  0  0  0  0  0  0
   19.8878   19.2504   22.8405 C   0  0  0  0  0  0  0  0  0  0  0  0
   18.8540   19.0972   22.5022 H   0  0  0  0  0  0  0  0  0  0  0  0
   20.0180   20.3310   22.9911 H   0  0  0  0  0  0  0  0  0  0  0  0
   20.0917   18.5178   24.1895 C   0  0  0  0  0  0  0  0  0  0  0  0
   19.9532   17.4379   24.0582 H   0  0  0  0  0  0  0  0  0  0  0  0
   21.1144   18.6719   24.5539 H   0  0  0  0  0  0  0  0  0  0  0  0
   19.1276   18.9910   25.2714 C   0  0  0  0  0  0  0  0  0  0  0  0
   19.4623   19.9294   25.9672 O   0  5  0  0  0  0  0  0  0  0  0  0
   18.0601   18.4202   25.3784 O   0  0  0  0  0  0  0  0  0  0  0  0
  1  2  1  0  0  0  0
  1  3  1  0  0  0  0
  1  4  2  0  0  0  0
  4  5  1  0  0  0  0
  4  6  1  0  0  0  0
  6  7  1  0  0  0  0
  6  8  1  0  0  0  0
  6  9  1  0  0  0  0
  9 10  1  0  0  0  0
  9 11  1  0  0  0  0
  9 12  1  0  0  0  0
 12 13  1  0  0  0  0
 12 14  1  0  0  0  0
 12 15  1  0  0  0  0
 15 16  1  0  0  0  0
 15 17  1  0  0  0  0
 15 18  1  0  0  0  0
 18 19  1  0  0  0  0
 18 20  2  0  0  0  0
M  END
> <VM2 Rank>
4

> <Conf_Id>
708

> <Probability>
4.87

> <Sum Probability>
44.19

> <Delta G>
0.614

> <G>
-21.276

> <E>
-36.308

> <-TS>
15.033

> <U+W>
-52.405

> <U>
7.828

> <W>
-60.233

> <W(PB)>
-62.486

> <W(SA)>
2.254

> <Valence>
9.300

> <Coulomb>
-2.080

> <VdW>
0.608

> <VdW6>
-6.341

> <VdW12>
6.949

> <Bond>
0.103

> <Angle>
2.334

> <Pdih>
6.862

> <Idih>
0.001

> <Tether>
0.000

$$$$
VeraChem MOL file


 20 19  0  0  0  0  0  0  0  0999 V2000     
   21.2428   19.0105   18.9880 C   0  0  0  0  0  0  0  0  0  0  0  0
   20.9773   18.1128   18.4319 H   0  0  0  0  0  0  0  0  0  0  0  0
   22.2182   19.4520   18.7906 H   0  0  0  0  0  0  0  0  0  0  0  0
   20.4088   19.5501   19.8806 C   0  0  0  0  0  0  0  0  0  0  0  0
   20.6933   20.4507   20.4241 H   0  0  0  0  0  0  0  0  0  0  0  0
   19.0371   18.9960   20.2020 C   0  0  0  0  0  0  0  0  0  0  0  0
   18.7024   18.3402   19.3869 H   0  0  0  0  0  0  0  0  0  0  0  0
   18.3067   19.8142   20.2576 H   0  0  0  0  0  0  0  0  0  0  0  0
   19.0218   18.1925   21.5219 C   0  0  0  0  0  0  0  0  0  0  0  0
   18.0410   17.7096   21.6305 H   0  0  0  0  0  0  0  0  0  0  0  0
   19.7653   17.3854   21.4662 H   0  0  0  0  0  0  0  0  0  0  0  0
   19.2948   19.0715   22.7640 C   0  0  0  0  0  0  0  0  0  0  0  0
   18.5665   19.8933   22.8039 H   0  0  0  0  0  0  0  0  0  0  0  0
   20.2900   19.5302   22.6875 H   0  0  0  0  0  0  0  0  0  0  0  0
   19.2152   18.2535   24.0764 C   0  0  0  0  0  0  0  0  0  0  0  0
   18.2223   17.7999   24.1808 H   0  0  0  0  0  0  0  0  0  0  0  0
   19.9453   17.4355   24.0572 H   0  0  0  0  0  0  0  0  0  0  0  0
   19.4824   19.0980   25.3172 C   0  0  0  0  0  0  0  0  0  0  0  0
   20.6283   19.1944   25.7098 O   0  5  0  0  0  0  0  0  0  0  0  0
   18.5398   19.6515   25.8480 O   0  0  0  0  0  0  0  0  0  0  0  0
  1  2  1  0  0  0  0
  1  3  1  0  0  0  0
  1  4  2  0  0  0  0
  4  5  1  0  0  0  0
  4  6  1  0  0  0  0
  6  7  1  0  0  0  0
  6  8  1  0  0  0  0
  6  9  1  0  0  0  0
  9 10  1  0  0  0  0
  9 11  1  0  0  0  0
  9 12  1  0  0  0  0
 12 13  1  0  0  0  0
 12 14  1  0  0  0  0
 12 15  1  0  0  0  0
 15 16  1  0  0  0  0
 15 17  1  0  0  0  0
 15 18  1  0  0  0  0
 18 19  1  0  0  0  0
 18 20  2  0  0  0  0
M  END
> <VM2 Rank>
5

> <Conf_Id>
132

> <Probability>
4.68

> <Sum Probability>
48.88

> <Delta G>
0.637

> <G>
-21.252

> <E>
-36.284

> <-TS>
15.032

> <U+W>
-52.381

> <U>
7.828

> <W>
-60.209

> <W(PB)>
-62.451

> <W(SA)>
2.242

> <Valence>
9.300

> <Coulomb>
-2.080

> <VdW>
0.608

> <VdW6>
-6.341

> <VdW12>
6.949

> <Bond>
0.103

> <Angle>
2.334

> <Pdih>
6.862

> <Idih>
0.001

> <Tether>
0.000

$$$$
VeraChem MOL file


 20 19  0  0  0  0  0  0  0  0999 V2000     
   19.7219   18.9160   18.3063 C   0  0  0  0  0  0  0  0  0  0  0  0
   20.2157   18.8210   17.3407 H   0  0  0  0  0  0  0  0  0  0  0  0
   18.7434   19.3934   18.3238 H   0  0  0  0  0  0  0  0  0  0  0  0
   20.2984   18.4655   19.4235 C   0  0  0  0  0  0  0  0  0  0  0  0
   21.2789   17.9914   19.3844 H   0  0  0  0  0  0  0  0  0  0  0  0
   19.6742   18.5615   20.7979 C   0  0  0  0  0  0  0  0  0  0  0  0
   19.7368   17.5831   21.2907 H   0  0  0  0  0  0  0  0  0  0  0  0
   18.6070   18.8074   20.7138 H   0  0  0  0  0  0  0  0  0  0  0  0
   20.3832   19.6338   21.6555 C   0  0  0  0  0  0  0  0  0  0  0  0
   21.4373   19.3577   21.7953 H   0  0  0  0  0  0  0  0  0  0  0  0
   20.3822   20.5845   21.1045 H   0  0  0  0  0  0  0  0  0  0  0  0
   19.7173   19.8615   23.0335 C   0  0  0  0  0  0  0  0  0  0  0  0
   18.6663   20.1507   22.8948 H   0  0  0  0  0  0  0  0  0  0  0  0
   20.2100   20.7110   23.5266 H   0  0  0  0  0  0  0  0  0  0  0  0
   19.7958   18.6281   23.9702 C   0  0  0  0  0  0  0  0  0  0  0  0
   19.2358   17.7860   23.5484 H   0  0  0  0  0  0  0  0  0  0  0  0
   20.8372   18.3036   24.0824 H   0  0  0  0  0  0  0  0  0  0  0  0
   19.2353   18.9075   25.3601 C   0  0  0  0  0  0  0  0  0  0  0  0
   19.9948   19.3259   26.2114 O   0  5  0  0  0  0  0  0  0  0  0  0
   18.0500   18.7181   25.5495 O   0  0  0  0  0  0  0  0  0  0  0  0
  1  2  1  0  0  0  0
  1  3  1  0  0  0  0
  1  4  2  0  0  0  0
  4  5  1  0  0  0  0
  4  6  1  0  0  0  0
  6  7  1  0  0  0  0
  6  8  1  0  0  0  0
  6  9  1  0  0  0  0
  9 10  1  0  0  0  0
  9 11  1  0  0  0  0
  9 12  1  0  0  0  0
 12 13  1  0  0  0  0
 12 14  1  0  0  0  0
 12 15  1  0  0  0  0
 15 16  1  0  0  0  0
 15 17  1  0  0  0  0
 15 18  1  0  0  0  0
 18 19  1  0  0  0  0
 18 20  2  0  0  0  0
M  END
> <VM2 Rank>
6

> <Conf_Id>
217

> <Probability>
3.97

> <Sum Probability>
52.84

> <Delta G>
0.736

> <G>
-21.153

> <E>
-36.159

> <-TS>
15.006

> <U+W>
-52.256

> <U>
7.491

> <W>
-59.747

> <W(PB)>
-61.973

> <W(SA)>
2.226

> <Valence>
9.604

> <Coulomb>
-2.799

> <VdW>
0.686

> <VdW6>
-6.435

> <VdW12>
7.121

> <Bond>
0.124

> <Angle>
2.493

> <Pdih>
6.986

> <Idih>
0.001

> <Tether>
0.000

$$$$
VeraChem MOL file


 20 19  0  0  0  0  0  0  0  0999 V2000     
   18.6393   19.5604   19.3943 C   0  0  0  0  0  0  0  0  0  0  0  0
   18.7039   20.6145   19.6592 H   0  0  0  0  0  0  0  0  0  0  0  0
   17.7307   19.2230   18.8985 H   0  0  0  0  0  0  0  0  0  0  0  0
   19.6322   18.7103   19.6689 C   0  0  0  0  0  0  0  0  0  0  0  0
   19.5465   17.6584   19.3975 H   0  0  0  0  0  0  0  0  0  0  0  0
   20.9227   19.1047   20.3552 C   0  0  0  0  0  0  0  0  0  0  0  0
   21.0140   20.1981   20.4080 H   0  0  0  0  0  0  0  0  0  0  0  0
   21.7711   18.7519   19.7539 H   0  0  0  0  0  0  0  0  0  0  0  0
   21.0365   18.5083   21.7762 C   0  0  0  0  0  0  0  0  0  0  0  0
   20.9444   17.4148   21.7233 H   0  0  0  0  0  0  0  0  0  0  0  0
   22.0395   18.7209   22.1708 H   0  0  0  0  0  0  0  0  0  0  0  0
   19.9773   19.0767   22.7481 C   0  0  0  0  0  0  0  0  0  0  0  0
   18.9686   18.8471   22.3780 H   0  0  0  0  0  0  0  0  0  0  0  0
   20.0600   20.1717   22.7864 H   0  0  0  0  0  0  0  0  0  0  0  0
   20.1376   18.5005   24.1765 C   0  0  0  0  0  0  0  0  0  0  0  0
   20.0449   17.4080   24.1563 H   0  0  0  0  0  0  0  0  0  0  0  0
   21.1342   18.7344   24.5699 H   0  0  0  0  0  0  0  0  0  0  0  0
   19.1032   19.0462   25.1544 C   0  0  0  0  0  0  0  0  0  0  0  0
   19.3629   20.0730   25.7501 O   0  5  0  0  0  0  0  0  0  0  0  0
   18.0593   18.4379   25.2844 O   0  0  0  0  0  0  0  0  0  0  0  0
  1  2  1  0  0  0  0
  1  3  1  0  0  0  0
  1  4  2  0  0  0  0
  4  5  1  0  0  0  0
  4  6  1  0  0  0  0
  6  7  1  0  0  0  0
  6  8  1  0  0  0  0
  6  9  1  0  0  0  0
  9 10  1  0  0  0  0
  9 11  1  0  0  0  0
  9 12  1  0  0  0  0
 12 13  1  0  0  0  0
 12 14  1  0  0  0  0
 12 15  1  0  0  0  0
 15 16  1  0  0  0  0
 15 17  1  0  0  0  0
 15 18  1  0  0  0  0
 18 19  1  0  0  0  0
 18 20  2  0  0  0  0
M  END
> <VM2 Rank>
7

> <Conf_Id>
519

> <Probability>
3.88

> <Sum Probability>
56.72

> <Delta G>
0.749

> <G>
-21.140

> <E>
-36.252

> <-TS>
15.112

> <U+W>
-52.348

> <U>
8.428

> <W>
-60.776

> <W(PB)>
-62.984

> <W(SA)>
2.208

> <Valence>
9.231

> <Coulomb>
-1.304

> <VdW>
0.502

> <VdW6>
-6.515

> <VdW12>
7.017

> <Bond>
0.103

> <Angle>
2.328

> <Pdih>
6.799

> <Idih>
0.000

> <Tether>
0.000

$$$$
VeraChem MOL file


 20 19  0  0  0  0  0  0  0  0999 V2000     
   20.3965   17.5036   19.6232 C   0  0  0  0  0  0  0  0  0  0  0  0
   19.9724   16.5991   19.1906 H   0  0  0  0  0  0  0  0  0  0  0  0
   21.4119   17.4449   20.0117 H   0  0  0  0  0  0  0  0  0  0  0  0
   19.6938   18.6382   19.6769 C   0  0  0  0  0  0  0  0  0  0  0  0
   18.6779   18.6750   19.2846 H   0  0  0  0  0  0  0  0  0  0  0  0
   20.2150   19.9331   20.2631 C   0  0  0  0  0  0  0  0  0  0  0  0
   20.0721   20.7406   19.5327 H   0  0  0  0  0  0  0  0  0  0  0  0
   21.2963   19.8677   20.4448 H   0  0  0  0  0  0  0  0  0  0  0  0
   19.4934   20.3144   21.5753 C   0  0  0  0  0  0  0  0  0  0  0  0
   19.8215   21.3170   21.8820 H   0  0  0  0  0  0  0  0  0  0  0  0
   18.4118   20.3792   21.3936 H   0  0  0  0  0  0  0  0  0  0  0  0
   19.7731   19.3157   22.7215 C   0  0  0  0  0  0  0  0  0  0  0  0
   20.8562   19.2397   22.8901 H   0  0  0  0  0  0  0  0  0  0  0  0
   19.4247   18.3131   22.4374 H   0  0  0  0  0  0  0  0  0  0  0  0
   19.0781   19.7406   24.0386 C   0  0  0  0  0  0  0  0  0  0  0  0
   19.4262   20.7336   24.3475 H   0  0  0  0  0  0  0  0  0  0  0  0
   17.9939   19.8087   23.8892 H   0  0  0  0  0  0  0  0  0  0  0  0
   19.3389   18.7703   25.1851 C   0  0  0  0  0  0  0  0  0  0  0  0
   20.3232   18.9491   25.8750 O   0  5  0  0  0  0  0  0  0  0  0  0
   18.5590   17.8530   25.3493 O   0  0  0  0  0  0  0  0  0  0  0  0
  1  2  1  0  0  0  0
  1  3  1  0  0  0  0
  1  4  2  0  0  0  0
  4  5  1  0  0  0  0
  4  6  1  0  0  0  0
  6  7  1  0  0  0  0
  6  8  1  0  0  0  0
  6  9  1  0  0  0  0
  9 10  1  0  0  0  0
  9 11  1  0  0  0  0
  9 12  1  0  0  0  0
 12 13  1  0  0  0  0
 12 14  1  0  0  0  0
 12 15  1  0  0  0  0
 15 16  1  0  0  0  0
 15 17  1  0  0  0  0
 15 18  1  0  0  0  0
 18 19  1  0  0  0  0
 18 20  2  0  0  0  0
M  END
> <VM2 Rank>
8

> <Conf_Id>
556

> <Probability>
3.81

> <Sum Probability>
60.53

> <Delta G>
0.761

> <G>
-21.129

> <E>
-36.240

> <-TS>
15.112

> <U+W>
-52.336

> <U>
8.428

> <W>
-60.765

> <W(PB)>
-62.976

> <W(SA)>
2.211

> <Valence>
9.230

> <Coulomb>
-1.304

> <VdW>
0.501

> <VdW6>
-6.515

> <VdW12>
7.017

> <Bond>
0.103

> <Angle>
2.328

> <Pdih>
6.799

> <Idih>
0.000

> <Tether>
0.000

$$$$
