VeraChem MOL file


 20 19  0  0  0  0  0  0  0  0999 V2000     
   19.7358   18.9391   25.6479 N   0  3  0  0  0  0  0  0  0  0  0  0
   19.5332   17.9361   25.7060 H   0  0  0  0  0  0  0  0  0  0  0  0
   20.2631   19.1851   26.4922 H   0  0  0  0  0  0  0  0  0  0  0  0
   18.8386   19.4313   25.7041 H   0  0  0  0  0  0  0  0  0  0  0  0
   20.4973   19.2912   24.3859 C   0  0  0  0  0  0  0  0  0  0  0  0
   21.4511   18.7572   24.4071 H   0  0  0  0  0  0  0  0  0  0  0  0
   20.7044   20.3646   24.4051 H   0  0  0  0  0  0  0  0  0  0  0  0
   19.7326   18.9344   23.0985 C   0  0  0  0  0  0  0  0  0  0  0  0
   19.5128   17.8585   23.0910 H   0  0  0  0  0  0  0  0  0  0  0  0
   18.7685   19.4603   23.0891 H   0  0  0  0  0  0  0  0  0  0  0  0
   20.5421   19.3090   21.8371 C   0  0  0  0  0  0  0  0  0  0  0  0
   21.5081   18.7852   21.8524 H   0  0  0  0  0  0  0  0  0  0  0  0
   20.7647   20.3851   21.8505 H   0  0  0  0  0  0  0  0  0  0  0  0
   19.7839   18.9552   20.5381 C   0  0  0  0  0  0  0  0  0  0  0  0
   19.5609   17.8791   20.5196 H   0  0  0  0  0  0  0  0  0  0  0  0
   18.8178   19.4789   20.5176 H   0  0  0  0  0  0  0  0  0  0  0  0
   20.5964   19.3311   19.2806 C   0  0  0  0  0  0  0  0  0  0  0  0
   20.0421   19.0724   18.3691 H   0  0  0  0  0  0  0  0  0  0  0  0
   20.8056   20.4085   19.2529 H   0  0  0  0  0  0  0  0  0  0  0  0
   21.5547   18.7961   19.2549 H   0  0  0  0  0  0  0  0  0  0  0  0
  1  2  1  0  0  0  0
  1  3  1  0  0  0  0
  1  4  1  0  0  0  0
  1  5  1  0  0  0  0
  5  6  1  0  0  0  0
  5  7  1  0  0  0  0
  5  8  1  0  0  0  0
  8  9  1  0  0  0  0
  8 10  1  0  0  0  0
  8 11  1  0  0  0  0
 11 12  1  0  0  0  0
 11 13  1  0  0  0  0
 11 14  1  0  0  0  0
 14 15  1  0  0  0  0
 14 16  1  0  0  0  0
 14 17  1  0  0  0  0
 17 18  1  0  0  0  0
 17 19  1  0  0  0  0
 17 20  1  0  0  0  0
M  END
> <VM2 Rank>
1

> <Conf_Id>
275

> <Probability>
18.27

> <Sum Probability>
18.27

> <Delta G>
0.000

> <G>
27.007

> <E>
4.319

> <-TS>
22.689

> <U+W>
-11.778

> <U>
45.772

> <W>
-57.550

> <W(PB)>
-59.511

> <W(SA)>
1.961

> <Valence>
1.299

> <Coulomb>
44.177

> <VdW>
0.297

> <VdW6>
-3.490

> <VdW12>
3.786

> <Bond>
0.096

> <Angle>
0.381

> <Pdih>
0.822

> <Idih>
0.000

> <Tether>
0.000

$$$$
VeraChem MOL file


 20 19  0  0  0  0  0  0  0  0999 V2000     
   20.6069   18.3920   25.0324 N   0  3  0  0  0  0  0  0  0  0  0  0
   20.9677   18.5359   25.9814 H   0  0  0  0  0  0  0  0  0  0  0  0
   19.9888   17.5754   25.0696 H   0  0  0  0  0  0  0  0  0  0  0  0
   21.4066   18.1398   24.4443 H   0  0  0  0  0  0  0  0  0  0  0  0
   19.8879   19.6214   24.5113 C   0  0  0  0  0  0  0  0  0  0  0  0
   20.5934   20.4566   24.5202 H   0  0  0  0  0  0  0  0  0  0  0  0
   19.0786   19.8527   25.2092 H   0  0  0  0  0  0  0  0  0  0  0  0
   19.3062   19.4491   23.0944 C   0  0  0  0  0  0  0  0  0  0  0  0
   18.6022   18.6063   23.0873 H   0  0  0  0  0  0  0  0  0  0  0  0
   18.7230   20.3461   22.8474 H   0  0  0  0  0  0  0  0  0  0  0  0
   20.3992   19.2367   22.0200 C   0  0  0  0  0  0  0  0  0  0  0  0
   20.9646   18.3207   22.2376 H   0  0  0  0  0  0  0  0  0  0  0  0
   21.1155   20.0694   22.0566 H   0  0  0  0  0  0  0  0  0  0  0  0
   19.7980   19.1369   20.6002 C   0  0  0  0  0  0  0  0  0  0  0  0
   19.0800   18.3058   20.5588 H   0  0  0  0  0  0  0  0  0  0  0  0
   19.2357   20.0527   20.3695 H   0  0  0  0  0  0  0  0  0  0  0  0
   20.8897   18.9240   19.5298 C   0  0  0  0  0  0  0  0  0  0  0  0
   20.4436   18.8563   18.5291 H   0  0  0  0  0  0  0  0  0  0  0  0
   21.6049   19.7569   19.5238 H   0  0  0  0  0  0  0  0  0  0  0  0
   21.4472   17.9962   19.7131 H   0  0  0  0  0  0  0  0  0  0  0  0
  1  2  1  0  0  0  0
  1  3  1  0  0  0  0
  1  4  1  0  0  0  0
  1  5  1  0  0  0  0
  5  6  1  0  0  0  0
  5  7  1  0  0  0  0
  5  8  1  0  0  0  0
  8  9  1  0  0  0  0
  8 10  1  0  0  0  0
  8 11  1  0  0  0  0
 11 12  1  0  0  0  0
 11 13  1  0  0  0  0
 11 14  1  0  0  0  0
 14 15  1  0  0  0  0
 14 16  1  0  0  0  0
 14 17  1  0  0  0  0
 17 18  1  0  0  0  0
 17 19  1  0  0  0  0
 17 20  1  0  0  0  0
M  END
> <VM2 Rank>
2

> <Conf_Id>
320

> <Probability>
11.03

> <Sum Probability>
29.30

> <Delta G>
0.301

> <G>
27.308

> <E>
4.519

> <-TS>
22.789

> <U+W>
-11.577

> <U>
46.423

> <W>
-58.000

> <W(PB)>
-59.939

> <W(SA)>
1.939

> <Valence>
1.410

> <Coulomb>
44.613

> <VdW>
0.400

> <VdW6>
-4.001

> <VdW12>
4.401

> <Bond>
0.117

> <Angle>
0.430

> <Pdih>
0.863

> <Idih>
0.000

> <Tether>
0.000

$$$$
VeraChem MOL file


 20 19  0  0  0  0  0  0  0  0999 V2000     
   19.8798   19.9563   25.0305 N   0  3  0  0  0  0  0  0  0  0  0  0
   18.8571   20.0104   25.0666 H   0  0  0  0  0  0  0  0  0  0  0  0
   20.2216   20.1412   25.9794 H   0  0  0  0  0  0  0  0  0  0  0  0
   20.2033   20.7290   24.4411 H   0  0  0  0  0  0  0  0  0  0  0  0
   20.3566   18.6130   24.5125 C   0  0  0  0  0  0  0  0  0  0  0  0
   20.0109   17.8467   25.2116 H   0  0  0  0  0  0  0  0  0  0  0  0
   21.4499   18.6138   24.5225 H   0  0  0  0  0  0  0  0  0  0  0  0
   19.8511   18.2766   23.0959 C   0  0  0  0  0  0  0  0  0  0  0  0
   20.1609   17.2519   22.8512 H   0  0  0  0  0  0  0  0  0  0  0  0
   18.7530   18.2819   23.0877 H   0  0  0  0  0  0  0  0  0  0  0  0
   20.3947   19.2468   22.0200 C   0  0  0  0  0  0  0  0  0  0  0  0
   21.4929   19.2571   22.0574 H   0  0  0  0  0  0  0  0  0  0  0  0
   20.0591   20.2700   22.2353 H   0  0  0  0  0  0  0  0  0  0  0  0
   19.9317   18.8489   20.6005 C   0  0  0  0  0  0  0  0  0  0  0  0
   20.2690   17.8280   20.3722 H   0  0  0  0  0  0  0  0  0  0  0  0
   18.8335   18.8362   20.5583 H   0  0  0  0  0  0  0  0  0  0  0  0
   20.4741   19.8184   19.5287 C   0  0  0  0  0  0  0  0  0  0  0  0
   20.1353   19.5192   18.5283 H   0  0  0  0  0  0  0  0  0  0  0  0
   20.1247   20.8432   19.7098 H   0  0  0  0  0  0  0  0  0  0  0  0
   21.5719   19.8275   19.5234 H   0  0  0  0  0  0  0  0  0  0  0  0
  1  2  1  0  0  0  0
  1  3  1  0  0  0  0
  1  4  1  0  0  0  0
  1  5  1  0  0  0  0
  5  6  1  0  0  0  0
  5  7  1  0  0  0  0
  5  8  1  0  0  0  0
  8  9  1  0  0  0  0
  8 10  1  0  0  0  0
  8 11  1  0  0  0  0
 11 12  1  0  0  0  0
 11 13  1  0  0  0  0
 11 14  1  0  0  0  0
 14 15  1  0  0  0  0
 14 16  1  0  0  0  0
 14 17  1  0  0  0  0
 17 18  1  0  0  0  0
 17 19  1  0  0  0  0
 17 20  1  0  0  0  0
M  END
> <VM2 Rank>
3

> <Conf_Id>
117

> <Probability>
10.32

> <Sum Probability>
39.62

> <Delta G>
0.340

> <G>
27.347

> <E>
4.558

> <-TS>
22.789

> <U+W>
-11.538

> <U>
46.423

> <W>
-57.961

> <W(PB)>
-59.893

> <W(SA)>
1.932

> <Valence>
1.410

> <Coulomb>
44.613

> <VdW>
0.400

> <VdW6>
-4.001

> <VdW12>
4.401

> <Bond>
0.117

> <Angle>
0.430

> <Pdih>
0.863

> <Idih>
0.000

> <Tether>
0.000

$$$$
VeraChem MOL file


 20 19  0  0  0  0  0  0  0  0999 V2000     
   19.6445   19.3205   25.4425 N   0  3  0  0  0  0  0  0  0  0  0  0
   18.6981   18.9276   25.4587 H   0  0  0  0  0  0  0  0  0  0  0  0
   20.2499   18.6687   25.9515 H   0  0  0  0  0  0  0  0  0  0  0  0
   19.6157   20.1877   25.9891 H   0  0  0  0  0  0  0  0  0  0  0  0
   20.1337   19.5617   24.0287 C   0  0  0  0  0  0  0  0  0  0  0  0
   21.1310   20.0060   24.0878 H   0  0  0  0  0  0  0  0  0  0  0  0
   19.4620   20.2858   23.5606 H   0  0  0  0  0  0  0  0  0  0  0  0
   20.1886   18.2769   23.1804 C   0  0  0  0  0  0  0  0  0  0  0  0
   20.8313   17.5422   23.6835 H   0  0  0  0  0  0  0  0  0  0  0  0
   19.1872   17.8300   23.1218 H   0  0  0  0  0  0  0  0  0  0  0  0
   20.7318   18.5248   21.7532 C   0  0  0  0  0  0  0  0  0  0  0  0
   20.8307   17.5579   21.2407 H   0  0  0  0  0  0  0  0  0  0  0  0
   21.7441   18.9481   21.8144 H   0  0  0  0  0  0  0  0  0  0  0  0
   19.8273   19.4556   20.9108 C   0  0  0  0  0  0  0  0  0  0  0  0
   18.8071   19.0484   20.8750 H   0  0  0  0  0  0  0  0  0  0  0  0
   19.7575   20.4452   21.3824 H   0  0  0  0  0  0  0  0  0  0  0  0
   20.3622   19.6204   19.4722 C   0  0  0  0  0  0  0  0  0  0  0  0
   20.4079   18.6536   18.9542 H   0  0  0  0  0  0  0  0  0  0  0  0
   19.7097   20.2836   18.8896 H   0  0  0  0  0  0  0  0  0  0  0  0
   21.3701   20.0557   19.4732 H   0  0  0  0  0  0  0  0  0  0  0  0
  1  2  1  0  0  0  0
  1  3  1  0  0  0  0
  1  4  1  0  0  0  0
  1  5  1  0  0  0  0
  5  6  1  0  0  0  0
  5  7  1  0  0  0  0
  5  8  1  0  0  0  0
  8  9  1  0  0  0  0
  8 10  1  0  0  0  0
  8 11  1  0  0  0  0
 11 12  1  0  0  0  0
 11 13  1  0  0  0  0
 11 14  1  0  0  0  0
 14 15  1  0  0  0  0
 14 16  1  0  0  0  0
 14 17  1  0  0  0  0
 17 18  1  0  0  0  0
 17 19  1  0  0  0  0
 17 20  1  0  0  0  0
M  END
> <VM2 Rank>
4

> <Conf_Id>
122

> <Probability>
8.09

> <Sum Probability>
47.72

> <Delta G>
0.485

> <G>
27.493

> <E>
4.709

> <-TS>
22.784

> <U+W>
-11.388

> <U>
46.508

> <W>
-57.896

> <W(PB)>
-59.824

> <W(SA)>
1.928

> <Valence>
1.610

> <Coulomb>
44.536

> <VdW>
0.363

> <VdW6>
-4.057

> <VdW12>
4.419

> <Bond>
0.118

> <Angle>
0.515

> <Pdih>
0.977

> <Idih>
0.000

> <Tether>
0.000

$$$$
VeraChem MOL file


 20 19  0  0  0  0  0  0  0  0999 V2000     
   19.9685   18.6227   25.4434 N   0  3  0  0  0  0  0  0  0  0  0  0
   19.0579   18.1528   25.4596 H   0  0  0  0  0  0  0  0  0  0  0  0
   20.6122   18.0427   25.9918 H   0  0  0  0  0  0  0  0  0  0  0  0
   19.8602   19.5068   25.9504 H   0  0  0  0  0  0  0  0  0  0  0  0
   20.4698   18.8383   24.0297 C   0  0  0  0  0  0  0  0  0  0  0  0
   20.5904   17.8570   23.5636 H   0  0  0  0  0  0  0  0  0  0  0  0
   21.4525   19.3140   24.0887 H   0  0  0  0  0  0  0  0  0  0  0  0
   19.5242   19.7073   23.1787 C   0  0  0  0  0  0  0  0  0  0  0  0
   18.5368   19.2301   23.1201 H   0  0  0  0  0  0  0  0  0  0  0  0
   19.3769   20.6733   23.6797 H   0  0  0  0  0  0  0  0  0  0  0  0
   20.0654   19.9595   21.7515 C   0  0  0  0  0  0  0  0  0  0  0  0
   21.0417   20.4601   21.8126 H   0  0  0  0  0  0  0  0  0  0  0  0
   19.3908   20.6578   21.2369 H   0  0  0  0  0  0  0  0  0  0  0  0
   20.1939   18.6663   20.9118 C   0  0  0  0  0  0  0  0  0  0  0  0
   20.9047   17.9756   21.3853 H   0  0  0  0  0  0  0  0  0  0  0  0
   19.2247   18.1493   20.8761 H   0  0  0  0  0  0  0  0  0  0  0  0
   20.6662   18.9659   19.4730 C   0  0  0  0  0  0  0  0  0  0  0  0
   20.7526   18.0383   18.8922 H   0  0  0  0  0  0  0  0  0  0  0  0
   19.9574   19.6234   18.9530 H   0  0  0  0  0  0  0  0  0  0  0  0
   21.6489   19.4553   19.4738 H   0  0  0  0  0  0  0  0  0  0  0  0
  1  2  1  0  0  0  0
  1  3  1  0  0  0  0
  1  4  1  0  0  0  0
  1  5  1  0  0  0  0
  5  6  1  0  0  0  0
  5  7  1  0  0  0  0
  5  8  1  0  0  0  0
  8  9  1  0  0  0  0
  8 10  1  0  0  0  0
  8 11  1  0  0  0  0
 11 12  1  0  0  0  0
 11 13  1  0  0  0  0
 11 14  1  0  0  0  0
 14 15  1  0  0  0  0
 14 16  1  0  0  0  0
 14 17  1  0  0  0  0
 17 18  1  0  0  0  0
 17 19  1  0  0  0  0
 17 20  1  0  0  0  0
M  END
> <VM2 Rank>
5

> <Conf_Id>
138

> <Probability>
7.92

> <Sum Probability>
55.64

> <Delta G>
0.498

> <G>
27.505

> <E>
4.721

> <-TS>
22.784

> <U+W>
-11.375

> <U>
46.508

> <W>
-57.883

> <W(PB)>
-59.814

> <W(SA)>
1.931

> <Valence>
1.610

> <Coulomb>
44.536

> <VdW>
0.362

> <VdW6>
-4.056

> <VdW12>
4.419

> <Bond>
0.118

> <Angle>
0.515

> <Pdih>
0.977

> <Idih>
0.000

> <Tether>
0.000

$$$$
VeraChem MOL file


 20 19  0  0  0  0  0  0  0  0999 V2000     
   19.4823   19.4056   25.4133 N   0  3  0  0  0  0  0  0  0  0  0  0
   18.6902   18.7557   25.4357 H   0  0  0  0  0  0  0  0  0  0  0  0
   19.9097   19.3853   26.3452 H   0  0  0  0  0  0  0  0  0  0  0  0
   19.0967   20.3463   25.2838 H   0  0  0  0  0  0  0  0  0  0  0  0
   20.4786   19.0473   24.3291 C   0  0  0  0  0  0  0  0  0  0  0  0
   20.8696   18.0496   24.5466 H   0  0  0  0  0  0  0  0  0  0  0  0
   21.3065   19.7595   24.3826 H   0  0  0  0  0  0  0  0  0  0  0  0
   19.8688   19.0677   22.9160 C   0  0  0  0  0  0  0  0  0  0  0  0
   19.0279   18.3629   22.8713 H   0  0  0  0  0  0  0  0  0  0  0  0
   19.4642   20.0678   22.7155 H   0  0  0  0  0  0  0  0  0  0  0  0
   20.9190   18.6942   21.8432 C   0  0  0  0  0  0  0  0  0  0  0  0
   21.3669   17.7249   22.1033 H   0  0  0  0  0  0  0  0  0  0  0  0
   21.7385   19.4262   21.8567 H   0  0  0  0  0  0  0  0  0  0  0  0
   20.3341   18.5983   20.4130 C   0  0  0  0  0  0  0  0  0  0  0  0
   21.1170   18.2287   19.7359 H   0  0  0  0  0  0  0  0  0  0  0  0
   19.5297   17.8498   20.3895 H   0  0  0  0  0  0  0  0  0  0  0  0
   19.8052   19.9469   19.8734 C   0  0  0  0  0  0  0  0  0  0  0  0
   20.5829   20.7206   19.9125 H   0  0  0  0  0  0  0  0  0  0  0  0
   19.4872   19.8440   18.8278 H   0  0  0  0  0  0  0  0  0  0  0  0
   18.9394   20.2997   20.4474 H   0  0  0  0  0  0  0  0  0  0  0  0
  1  2  1  0  0  0  0
  1  3  1  0  0  0  0
  1  4  1  0  0  0  0
  1  5  1  0  0  0  0
  5  6  1  0  0  0  0
  5  7  1  0  0  0  0
  5  8  1  0  0  0  0
  8  9  1  0  0  0  0
  8 10  1  0  0  0  0
  8 11  1  0  0  0  0
 11 12  1  0  0  0  0
 11 13  1  0  0  0  0
 11 14  1  0  0  0  0
 14 15  1  0  0  0  0
 14 16  1  0  0  0  0
 14 17  1  0  0  0  0
 17 18  1  0  0  0  0
 17 19  1  0  0  0  0
 17 20  1  0  0  0  0
M  END
> <VM2 Rank>
6

> <Conf_Id>
202

> <Probability>
6.50

> <Sum Probability>
62.14

> <Delta G>
0.616

> <G>
27.623

> <E>
4.825

> <-TS>
22.798

> <U+W>
-11.272

> <U>
46.486

> <W>
-57.758

> <W(PB)>
-59.705

> <W(SA)>
1.947

> <Valence>
1.806

> <Coulomb>
44.248

> <VdW>
0.433

> <VdW6>
-4.089

> <VdW12>
4.522

> <Bond>
0.131

> <Angle>
0.628

> <Pdih>
1.047

> <Idih>
0.000

> <Tether>
0.000

$$$$
VeraChem MOL file


 20 19  0  0  0  0  0  0  0  0999 V2000     
   19.9291   18.4439   25.4144 N   0  3  0  0  0  0  0  0  0  0  0  0
   20.1885   18.7854   26.3459 H   0  0  0  0  0  0  0  0  0  0  0  0
   18.9215   18.2577   25.4363 H   0  0  0  0  0  0  0  0  0  0  0  0
   20.3995   17.5422   25.2871 H   0  0  0  0  0  0  0  0  0  0  0  0
   20.2988   19.4343   24.3286 C   0  0  0  0  0  0  0  0  0  0  0  0
   21.3770   19.6077   24.3828 H   0  0  0  0  0  0  0  0  0  0  0  0
   19.7884   20.3769   24.5439 H   0  0  0  0  0  0  0  0  0  0  0  0
   19.9224   18.9523   22.9161 C   0  0  0  0  0  0  0  0  0  0  0  0
   20.4258   17.9976   22.7180 H   0  0  0  0  0  0  0  0  0  0  0  0
   18.8415   18.7643   22.8708 H   0  0  0  0  0  0  0  0  0  0  0  0
   20.3153   19.9936   21.8416 C   0  0  0  0  0  0  0  0  0  0  0  0
   21.4033   20.1477   21.8559 H   0  0  0  0  0  0  0  0  0  0  0  0
   19.8634   20.9616   22.0994 H   0  0  0  0  0  0  0  0  0  0  0  0
   19.8663   19.6056   20.4118 C   0  0  0  0  0  0  0  0  0  0  0  0
   18.7754   19.4737   20.3875 H   0  0  0  0  0  0  0  0  0  0  0  0
   20.0895   20.4409   19.7332 H   0  0  0  0  0  0  0  0  0  0  0  0
   20.5561   18.3304   19.8754 C   0  0  0  0  0  0  0  0  0  0  0  0
   20.2666   17.4424   20.4509 H   0  0  0  0  0  0  0  0  0  0  0  0
   20.2733   18.1517   18.8299 H   0  0  0  0  0  0  0  0  0  0  0  0
   21.6489   18.4256   19.9155 H   0  0  0  0  0  0  0  0  0  0  0  0
  1  2  1  0  0  0  0
  1  3  1  0  0  0  0
  1  4  1  0  0  0  0
  1  5  1  0  0  0  0
  5  6  1  0  0  0  0
  5  7  1  0  0  0  0
  5  8  1  0  0  0  0
  8  9  1  0  0  0  0
  8 10  1  0  0  0  0
  8 11  1  0  0  0  0
 11 12  1  0  0  0  0
 11 13  1  0  0  0  0
 11 14  1  0  0  0  0
 14 15  1  0  0  0  0
 14 16  1  0  0  0  0
 14 17  1  0  0  0  0
 17 18  1  0  0  0  0
 17 19  1  0  0  0  0
 17 20  1  0  0  0  0
M  END
> <VM2 Rank>
7

> <Conf_Id>
247

> <Probability>
6.41

> <Sum Probability>
68.55

> <Delta G>
0.624

> <G>
27.631

> <E>
4.833

> <-TS>
22.798

> <U+W>
-11.263

> <U>
46.486

> <W>
-57.750

> <W(PB)>
-59.686

> <W(SA)>
1.936

> <Valence>
1.806

> <Coulomb>
44.248

> <VdW>
0.433

> <VdW6>
-4.089

> <VdW12>
4.522

> <Bond>
0.131

> <Angle>
0.628

> <Pdih>
1.047

> <Idih>
0.000

> <Tether>
0.000

$$$$
VeraChem MOL file


 20 19  0  0  0  0  0  0  0  0999 V2000     
   19.4805   19.1733   25.1477 N   0  3  0  0  0  0  0  0  0  0  0  0
   19.6590   19.4561   26.1171 H   0  0  0  0  0  0  0  0  0  0  0  0
   18.8426   19.8675   24.7474 H   0  0  0  0  0  0  0  0  0  0  0  0
   18.9743   18.2831   25.1858 H   0  0  0  0  0  0  0  0  0  0  0  0
   20.7649   19.0591   24.3494 C   0  0  0  0  0  0  0  0  0  0  0  0
   21.4080   18.3369   24.8597 H   0  0  0  0  0  0  0  0  0  0  0  0
   21.2646   20.0314   24.3680 H   0  0  0  0  0  0  0  0  0  0  0  0
   20.5553   18.6116   22.8893 C   0  0  0  0  0  0  0  0  0  0  0  0
   21.5429   18.4472   22.4407 H   0  0  0  0  0  0  0  0  0  0  0  0
   20.0378   17.6433   22.8736 H   0  0  0  0  0  0  0  0  0  0  0  0
   19.7662   19.6500   22.0525 C   0  0  0  0  0  0  0  0  0  0  0  0
   20.3015   20.6097   22.0540 H   0  0  0  0  0  0  0  0  0  0  0  0
   18.7936   19.8380   22.5260 H   0  0  0  0  0  0  0  0  0  0  0  0
   19.5138   19.2014   20.5923 C   0  0  0  0  0  0  0  0  0  0  0  0
   18.9665   18.2483   20.5854 H   0  0  0  0  0  0  0  0  0  0  0  0
   18.8561   19.9361   20.1071 H   0  0  0  0  0  0  0  0  0  0  0  0
   20.8072   19.0646   19.7567 C   0  0  0  0  0  0  0  0  0  0  0  0
   21.4449   18.2533   20.1287 H   0  0  0  0  0  0  0  0  0  0  0  0
   20.5658   18.8394   18.7099 H   0  0  0  0  0  0  0  0  0  0  0  0
   21.3889   19.9954   19.7735 H   0  0  0  0  0  0  0  0  0  0  0  0
  1  2  1  0  0  0  0
  1  3  1  0  0  0  0
  1  4  1  0  0  0  0
  1  5  1  0  0  0  0
  5  6  1  0  0  0  0
  5  7  1  0  0  0  0
  5  8  1  0  0  0  0
  8  9  1  0  0  0  0
  8 10  1  0  0  0  0
  8 11  1  0  0  0  0
 11 12  1  0  0  0  0
 11 13  1  0  0  0  0
 11 14  1  0  0  0  0
 14 15  1  0  0  0  0
 14 16  1  0  0  0  0
 14 17  1  0  0  0  0
 17 18  1  0  0  0  0
 17 19  1  0  0  0  0
 17 20  1  0  0  0  0
M  END
> <VM2 Rank>
8

> <Conf_Id>
33

> <Probability>
4.06

> <Sum Probability>
72.62

> <Delta G>
0.896

> <G>
27.903

> <E>
5.022

> <-TS>
22.881

> <U+W>
-11.075

> <U>
47.080

> <W>
-58.154

> <W(PB)>
-60.053

> <W(SA)>
1.899

> <Valence>
1.943

> <Coulomb>
44.572

> <VdW>
0.565

> <VdW6>
-4.575

> <VdW12>
5.139

> <Bond>
0.158

> <Angle>
0.700

> <Pdih>
1.085

> <Idih>
0.000

> <Tether>
0.000

$$$$
