VeraChem MOL file


 23 22  0  0  0  0  0  0  0  0999 V2000     
   19.7414   18.6610   26.4278 N   0  3  0  0  0  0  0  0  0  0  0  0
   19.4802   19.1972   27.2623 H   0  0  0  0  0  0  0  0  0  0  0  0
   20.7321   18.4176   26.5284 H   0  0  0  0  0  0  0  0  0  0  0  0
   19.2108   17.7845   26.4591 H   0  0  0  0  0  0  0  0  0  0  0  0
   19.4763   19.4376   25.1540 C   0  0  0  0  0  0  0  0  0  0  0  0
   20.0476   20.3686   25.2013 H   0  0  0  0  0  0  0  0  0  0  0  0
   18.4124   19.6882   25.1268 H   0  0  0  0  0  0  0  0  0  0  0  0
   19.8579   18.6596   23.8821 C   0  0  0  0  0  0  0  0  0  0  0  0
   20.9233   18.3958   23.9215 H   0  0  0  0  0  0  0  0  0  0  0  0
   19.2938   17.7180   23.8472 H   0  0  0  0  0  0  0  0  0  0  0  0
   19.5729   19.4847   22.6077 C   0  0  0  0  0  0  0  0  0  0  0  0
   20.1350   20.4281   22.6490 H   0  0  0  0  0  0  0  0  0  0  0  0
   18.5072   19.7511   22.5748 H   0  0  0  0  0  0  0  0  0  0  0  0
   19.9525   18.7125   21.3237 C   0  0  0  0  0  0  0  0  0  0  0  0
   21.0181   18.4461   21.3565 H   0  0  0  0  0  0  0  0  0  0  0  0
   19.3905   17.7692   21.2823 H   0  0  0  0  0  0  0  0  0  0  0  0
   19.6673   19.5379   20.0493 C   0  0  0  0  0  0  0  0  0  0  0  0
   20.2294   20.4818   20.0849 H   0  0  0  0  0  0  0  0  0  0  0  0
   18.6019   19.8050   20.0107 H   0  0  0  0  0  0  0  0  0  0  0  0
   20.0476   18.7637   18.7693 C   0  0  0  0  0  0  0  0  0  0  0  0
   19.8380   19.3656   17.8755 H   0  0  0  0  0  0  0  0  0  0  0  0
   19.4760   17.8299   18.6882 H   0  0  0  0  0  0  0  0  0  0  0  0
   21.1162   18.5121   18.7629 H   0  0  0  0  0  0  0  0  0  0  0  0
  1  2  1  0  0  0  0
  1  3  1  0  0  0  0
  1  4  1  0  0  0  0
  1  5  1  0  0  0  0
  5  6  1  0  0  0  0
  5  7  1  0  0  0  0
  5  8  1  0  0  0  0
  8  9  1  0  0  0  0
  8 10  1  0  0  0  0
  8 11  1  0  0  0  0
 11 12  1  0  0  0  0
 11 13  1  0  0  0  0
 11 14  1  0  0  0  0
 14 15  1  0  0  0  0
 14 16  1  0  0  0  0
 14 17  1  0  0  0  0
 17 18  1  0  0  0  0
 17 19  1  0  0  0  0
 17 20  1  0  0  0  0
 20 21  1  0  0  0  0
 20 22  1  0  0  0  0
 20 23  1  0  0  0  0
M  END
> <VM2 Rank>
1

> <Conf_Id>
803

> <Probability>
11.98

> <Sum Probability>
11.98

> <Delta G>
0.000

> <G>
37.916

> <E>
10.396

> <-TS>
27.520

> <U+W>
-8.383

> <U>
46.604

> <W>
-54.987

> <W(PB)>
-57.163

> <W(SA)>
2.176

> <Valence>
1.727

> <Coulomb>
44.434

> <VdW>
0.443

> <VdW6>
-4.623

> <VdW12>
5.066

> <Bond>
0.112

> <Angle>
0.386

> <Pdih>
1.228

> <Idih>
0.000

> <Tether>
0.000

$$$$
VeraChem MOL file


 23 22  0  0  0  0  0  0  0  0999 V2000     
   20.4492   19.4574   25.7939 N   0  3  0  0  0  0  0  0  0  0  0  0
   20.8557   20.1752   25.1865 H   0  0  0  0  0  0  0  0  0  0  0  0
   21.1374   18.7019   25.8730 H   0  0  0  0  0  0  0  0  0  0  0  0
   20.3535   19.8733   26.7265 H   0  0  0  0  0  0  0  0  0  0  0  0
   19.1204   18.9563   25.2623 C   0  0  0  0  0  0  0  0  0  0  0  0
   18.4287   19.8023   25.2257 H   0  0  0  0  0  0  0  0  0  0  0  0
   18.7302   18.2283   25.9787 H   0  0  0  0  0  0  0  0  0  0  0  0
   19.2146   18.3026   23.8700 C   0  0  0  0  0  0  0  0  0  0  0  0
   19.9142   17.4570   23.9086 H   0  0  0  0  0  0  0  0  0  0  0  0
   18.2316   17.8843   23.6156 H   0  0  0  0  0  0  0  0  0  0  0  0
   19.6475   19.2997   22.7689 C   0  0  0  0  0  0  0  0  0  0  0  0
   20.6464   19.6957   22.9955 H   0  0  0  0  0  0  0  0  0  0  0  0
   18.9591   20.1562   22.7600 H   0  0  0  0  0  0  0  0  0  0  0  0
   19.6671   18.6391   21.3717 C   0  0  0  0  0  0  0  0  0  0  0  0
   20.3531   17.7808   21.3807 H   0  0  0  0  0  0  0  0  0  0  0  0
   18.6685   18.2450   21.1370 H   0  0  0  0  0  0  0  0  0  0  0  0
   20.0998   19.6326   20.2705 C   0  0  0  0  0  0  0  0  0  0  0  0
   21.0997   20.0276   20.4988 H   0  0  0  0  0  0  0  0  0  0  0  0
   19.4151   20.4922   20.2563 H   0  0  0  0  0  0  0  0  0  0  0  0
   20.1175   18.9694   18.8768 C   0  0  0  0  0  0  0  0  0  0  0  0
   20.8197   18.1259   18.8499 H   0  0  0  0  0  0  0  0  0  0  0  0
   20.4270   19.6899   18.1085 H   0  0  0  0  0  0  0  0  0  0  0  0
   19.1221   18.5943   18.6053 H   0  0  0  0  0  0  0  0  0  0  0  0
  1  2  1  0  0  0  0
  1  3  1  0  0  0  0
  1  4  1  0  0  0  0
  1  5  1  0  0  0  0
  5  6  1  0  0  0  0
  5  7  1  0  0  0  0
  5  8  1  0  0  0  0
  8  9  1  0  0  0  0
  8 10  1  0  0  0  0
  8 11  1  0  0  0  0
 11 12  1  0  0  0  0
 11 13  1  0  0  0  0
 11 14  1  0  0  0  0
 14 15  1  0  0  0  0
 14 16  1  0  0  0  0
 14 17  1  0  0  0  0
 17 18  1  0  0  0  0
 17 19  1  0  0  0  0
 17 20  1  0  0  0  0
 20 21  1  0  0  0  0
 20 22  1  0  0  0  0
 20 23  1  0  0  0  0
M  END
> <VM2 Rank>
2

> <Conf_Id>
866

> <Probability>
7.31

> <Sum Probability>
19.29

> <Delta G>
0.295

> <G>
38.211

> <E>
10.589

> <-TS>
27.622

> <U+W>
-8.190

> <U>
47.288

> <W>
-55.479

> <W(PB)>
-57.627

> <W(SA)>
2.149

> <Valence>
1.833

> <Coulomb>
44.908

> <VdW>
0.548

> <VdW6>
-5.142

> <VdW12>
5.690

> <Bond>
0.133

> <Angle>
0.431

> <Pdih>
1.269

> <Idih>
0.000

> <Tether>
0.000

$$$$
VeraChem MOL file


 23 22  0  0  0  0  0  0  0  0999 V2000     
   18.7299   18.7423   25.7155 N   0  3  0  0  0  0  0  0  0  0  0  0
   17.9834   18.9805   25.0555 H   0  0  0  0  0  0  0  0  0  0  0  0
   18.4302   19.0734   26.6388 H   0  0  0  0  0  0  0  0  0  0  0  0
   18.7754   17.7195   25.7654 H   0  0  0  0  0  0  0  0  0  0  0  0
   20.0586   19.3466   25.3051 C   0  0  0  0  0  0  0  0  0  0  0  0
   20.7924   19.0860   26.0727 H   0  0  0  0  0  0  0  0  0  0  0  0
   19.9482   20.4343   25.2949 H   0  0  0  0  0  0  0  0  0  0  0  0
   20.5632   18.8635   23.9314 C   0  0  0  0  0  0  0  0  0  0  0  0
   21.5692   19.2723   23.7678 H   0  0  0  0  0  0  0  0  0  0  0  0
   20.6676   17.7704   23.9429 H   0  0  0  0  0  0  0  0  0  0  0  0
   19.6390   19.2962   22.7685 C   0  0  0  0  0  0  0  0  0  0  0  0
   19.5166   20.3881   22.7854 H   0  0  0  0  0  0  0  0  0  0  0  0
   18.6397   18.8613   22.9040 H   0  0  0  0  0  0  0  0  0  0  0  0
   20.2012   18.8613   21.3960 C   0  0  0  0  0  0  0  0  0  0  0  0
   21.1994   19.2976   21.2523 H   0  0  0  0  0  0  0  0  0  0  0  0
   20.3264   17.7697   21.3795 H   0  0  0  0  0  0  0  0  0  0  0  0
   19.2795   19.2914   20.2331 C   0  0  0  0  0  0  0  0  0  0  0  0
   19.1527   20.3831   20.2443 H   0  0  0  0  0  0  0  0  0  0  0  0
   18.2802   18.8549   20.3703 H   0  0  0  0  0  0  0  0  0  0  0  0
   19.8446   18.8559   18.8644 C   0  0  0  0  0  0  0  0  0  0  0  0
   19.1769   19.1699   18.0516 H   0  0  0  0  0  0  0  0  0  0  0  0
   19.9509   17.7645   18.8103 H   0  0  0  0  0  0  0  0  0  0  0  0
   20.8300   19.3047   18.6832 H   0  0  0  0  0  0  0  0  0  0  0  0
  1  2  1  0  0  0  0
  1  3  1  0  0  0  0
  1  4  1  0  0  0  0
  1  5  1  0  0  0  0
  5  6  1  0  0  0  0
  5  7  1  0  0  0  0
  5  8  1  0  0  0  0
  8  9  1  0  0  0  0
  8 10  1  0  0  0  0
  8 11  1  0  0  0  0
 11 12  1  0  0  0  0
 11 13  1  0  0  0  0
 11 14  1  0  0  0  0
 14 15  1  0  0  0  0
 14 16  1  0  0  0  0
 14 17  1  0  0  0  0
 17 18  1  0  0  0  0
 17 19  1  0  0  0  0
 17 20  1  0  0  0  0
 20 21  1  0  0  0  0
 20 22  1  0  0  0  0
 20 23  1  0  0  0  0
M  END
> <VM2 Rank>
3

> <Conf_Id>
1091

> <Probability>
7.20

> <Sum Probability>
26.49

> <Delta G>
0.304

> <G>
38.220

> <E>
10.598

> <-TS>
27.622

> <U+W>
-8.181

> <U>
47.288

> <W>
-55.469

> <W(PB)>
-57.602

> <W(SA)>
2.133

> <Valence>
1.833

> <Coulomb>
44.908

> <VdW>
0.548

> <VdW6>
-5.142

> <VdW12>
5.690

> <Bond>
0.133

> <Angle>
0.431

> <Pdih>
1.269

> <Idih>
0.000

> <Tether>
0.000

$$$$
VeraChem MOL file


 23 22  0  0  0  0  0  0  0  0999 V2000     
   19.5097   18.2599   26.0549 N   0  3  0  0  0  0  0  0  0  0  0  0
   19.5460   19.0650   26.6885 H   0  0  0  0  0  0  0  0  0  0  0  0
   20.4068   17.7707   26.1373 H   0  0  0  0  0  0  0  0  0  0  0  0
   18.7901   17.6264   26.4194 H   0  0  0  0  0  0  0  0  0  0  0  0
   19.2220   18.6768   24.6269 C   0  0  0  0  0  0  0  0  0  0  0  0
   18.2433   19.1638   24.6081 H   0  0  0  0  0  0  0  0  0  0  0  0
   19.1675   17.7708   24.0178 H   0  0  0  0  0  0  0  0  0  0  0  0
   20.2860   19.6299   24.0505 C   0  0  0  0  0  0  0  0  0  0  0  0
   20.3622   20.5150   24.6960 H   0  0  0  0  0  0  0  0  0  0  0  0
   21.2692   19.1410   24.0702 H   0  0  0  0  0  0  0  0  0  0  0  0
   19.9615   20.0868   22.6086 C   0  0  0  0  0  0  0  0  0  0  0  0
   20.7077   20.8316   22.2989 H   0  0  0  0  0  0  0  0  0  0  0  0
   18.9889   20.5983   22.5966 H   0  0  0  0  0  0  0  0  0  0  0  0
   19.9519   18.9222   21.5893 C   0  0  0  0  0  0  0  0  0  0  0  0
   20.9138   18.3925   21.6278 H   0  0  0  0  0  0  0  0  0  0  0  0
   19.1761   18.1932   21.8592 H   0  0  0  0  0  0  0  0  0  0  0  0
   19.6979   19.4219   20.1497 C   0  0  0  0  0  0  0  0  0  0  0  0
   20.4739   20.1464   19.8655 H   0  0  0  0  0  0  0  0  0  0  0  0
   18.7369   19.9534   20.1056 H   0  0  0  0  0  0  0  0  0  0  0  0
   19.6870   18.2594   19.1342 C   0  0  0  0  0  0  0  0  0  0  0  0
   20.6482   17.7289   19.1312 H   0  0  0  0  0  0  0  0  0  0  0  0
   19.5059   18.6339   18.1183 H   0  0  0  0  0  0  0  0  0  0  0  0
   18.8973   17.5349   19.3718 H   0  0  0  0  0  0  0  0  0  0  0  0
  1  2  1  0  0  0  0
  1  3  1  0  0  0  0
  1  4  1  0  0  0  0
  1  5  1  0  0  0  0
  5  6  1  0  0  0  0
  5  7  1  0  0  0  0
  5  8  1  0  0  0  0
  8  9  1  0  0  0  0
  8 10  1  0  0  0  0
  8 11  1  0  0  0  0
 11 12  1  0  0  0  0
 11 13  1  0  0  0  0
 11 14  1  0  0  0  0
 14 15  1  0  0  0  0
 14 16  1  0  0  0  0
 14 17  1  0  0  0  0
 17 18  1  0  0  0  0
 17 19  1  0  0  0  0
 17 20  1  0  0  0  0
 20 21  1  0  0  0  0
 20 22  1  0  0  0  0
 20 23  1  0  0  0  0
M  END
> <VM2 Rank>
4

> <Conf_Id>
714

> <Probability>
5.52

> <Sum Probability>
32.01

> <Delta G>
0.462

> <G>
38.379

> <E>
10.761

> <-TS>
27.618

> <U+W>
-8.019

> <U>
47.375

> <W>
-55.393

> <W(PB)>
-57.545

> <W(SA)>
2.152

> <Valence>
2.032

> <Coulomb>
44.843

> <VdW>
0.499

> <VdW6>
-5.218

> <VdW12>
5.718

> <Bond>
0.135

> <Angle>
0.514

> <Pdih>
1.383

> <Idih>
0.000

> <Tether>
0.000

$$$$
VeraChem MOL file


 23 22  0  0  0  0  0  0  0  0999 V2000     
   20.2169   18.5540   26.0871 N   0  3  0  0  0  0  0  0  0  0  0  0
   19.9270   17.5712   26.1154 H   0  0  0  0  0  0  0  0  0  0  0  0
   19.5724   19.0759   26.6897 H   0  0  0  0  0  0  0  0  0  0  0  0
   21.1423   18.6046   26.5265 H   0  0  0  0  0  0  0  0  0  0  0  0
   20.2345   19.0979   24.6730 C   0  0  0  0  0  0  0  0  0  0  0  0
   20.9613   18.5169   24.0995 H   0  0  0  0  0  0  0  0  0  0  0  0
   20.5783   20.1350   24.7145 H   0  0  0  0  0  0  0  0  0  0  0  0
   18.8575   19.0358   23.9854 C   0  0  0  0  0  0  0  0  0  0  0  0
   18.5117   17.9942   23.9446 H   0  0  0  0  0  0  0  0  0  0  0  0
   18.1274   19.5856   24.5942 H   0  0  0  0  0  0  0  0  0  0  0  0
   18.8737   19.6344   22.5590 C   0  0  0  0  0  0  0  0  0  0  0  0
   19.1953   20.6841   22.6059 H   0  0  0  0  0  0  0  0  0  0  0  0
   17.8466   19.6417   22.1685 H   0  0  0  0  0  0  0  0  0  0  0  0
   19.7839   18.8523   21.5816 C   0  0  0  0  0  0  0  0  0  0  0  0
   20.8236   18.8784   21.9343 H   0  0  0  0  0  0  0  0  0  0  0  0
   19.4805   17.7964   21.5624 H   0  0  0  0  0  0  0  0  0  0  0  0
   19.7202   19.4312   20.1507 C   0  0  0  0  0  0  0  0  0  0  0  0
   20.0221   20.4879   20.1642 H   0  0  0  0  0  0  0  0  0  0  0  0
   18.6845   19.4022   19.7839 H   0  0  0  0  0  0  0  0  0  0  0  0
   20.6295   18.6514   19.1772 C   0  0  0  0  0  0  0  0  0  0  0  0
   20.5704   19.0767   18.1668 H   0  0  0  0  0  0  0  0  0  0  0  0
   20.3305   17.5968   19.1167 H   0  0  0  0  0  0  0  0  0  0  0  0
   21.6784   18.6916   19.4986 H   0  0  0  0  0  0  0  0  0  0  0  0
  1  2  1  0  0  0  0
  1  3  1  0  0  0  0
  1  4  1  0  0  0  0
  1  5  1  0  0  0  0
  5  6  1  0  0  0  0
  5  7  1  0  0  0  0
  5  8  1  0  0  0  0
  8  9  1  0  0  0  0
  8 10  1  0  0  0  0
  8 11  1  0  0  0  0
 11 12  1  0  0  0  0
 11 13  1  0  0  0  0
 11 14  1  0  0  0  0
 14 15  1  0  0  0  0
 14 16  1  0  0  0  0
 14 17  1  0  0  0  0
 17 18  1  0  0  0  0
 17 19  1  0  0  0  0
 17 20  1  0  0  0  0
 20 21  1  0  0  0  0
 20 22  1  0  0  0  0
 20 23  1  0  0  0  0
M  END
> <VM2 Rank>
5

> <Conf_Id>
1052

> <Probability>
4.94

> <Sum Probability>
36.94

> <Delta G>
0.529

> <G>
38.445

> <E>
10.827

> <-TS>
27.618

> <U+W>
-7.952

> <U>
47.375

> <W>
-55.327

> <W(PB)>
-57.491

> <W(SA)>
2.164

> <Valence>
2.032

> <Coulomb>
44.843

> <VdW>
0.499

> <VdW6>
-5.218

> <VdW12>
5.718

> <Bond>
0.135

> <Angle>
0.514

> <Pdih>
1.383

> <Idih>
0.000

> <Tether>
0.000

$$$$
VeraChem MOL file


 23 22  0  0  0  0  0  0  0  0999 V2000     
   19.5474   18.7522   26.3217 N   0  3  0  0  0  0  0  0  0  0  0  0
   19.7317   17.7457   26.3829 H   0  0  0  0  0  0  0  0  0  0  0  0
   18.8412   18.9696   27.0331 H   0  0  0  0  0  0  0  0  0  0  0  0
   20.4084   19.2340   26.6000 H   0  0  0  0  0  0  0  0  0  0  0  0
   19.0936   19.1608   24.9350 C   0  0  0  0  0  0  0  0  0  0  0  0
   18.8877   20.2346   24.9499 H   0  0  0  0  0  0  0  0  0  0  0  0
   18.1602   18.6349   24.7167 H   0  0  0  0  0  0  0  0  0  0  0  0
   20.1322   18.8478   23.8432 C   0  0  0  0  0  0  0  0  0  0  0  0
   21.0728   19.3647   24.0758 H   0  0  0  0  0  0  0  0  0  0  0  0
   20.3478   17.7709   23.8423 H   0  0  0  0  0  0  0  0  0  0  0  0
   19.6322   19.2790   22.4466 C   0  0  0  0  0  0  0  0  0  0  0  0
   19.4159   20.3564   22.4518 H   0  0  0  0  0  0  0  0  0  0  0  0
   18.6865   18.7648   22.2299 H   0  0  0  0  0  0  0  0  0  0  0  0
   20.6694   18.9645   21.3418 C   0  0  0  0  0  0  0  0  0  0  0  0
   21.6298   19.4269   21.6089 H   0  0  0  0  0  0  0  0  0  0  0  0
   20.8494   17.8814   21.2994 H   0  0  0  0  0  0  0  0  0  0  0  0
   20.2523   19.4740   19.9409 C   0  0  0  0  0  0  0  0  0  0  0  0
   21.0845   19.3066   19.2428 H   0  0  0  0  0  0  0  0  0  0  0  0
   20.0923   20.5608   19.9729 H   0  0  0  0  0  0  0  0  0  0  0  0
   18.9888   18.7787   19.3849 C   0  0  0  0  0  0  0  0  0  0  0  0
   19.1124   17.6880   19.3700 H   0  0  0  0  0  0  0  0  0  0  0  0
   18.7904   19.1078   18.3566 H   0  0  0  0  0  0  0  0  0  0  0  0
   18.1010   19.0164   19.9837 H   0  0  0  0  0  0  0  0  0  0  0  0
  1  2  1  0  0  0  0
  1  3  1  0  0  0  0
  1  4  1  0  0  0  0
  1  5  1  0  0  0  0
  5  6  1  0  0  0  0
  5  7  1  0  0  0  0
  5  8  1  0  0  0  0
  8  9  1  0  0  0  0
  8 10  1  0  0  0  0
  8 11  1  0  0  0  0
 11 12  1  0  0  0  0
 11 13  1  0  0  0  0
 11 14  1  0  0  0  0
 14 15  1  0  0  0  0
 14 16  1  0  0  0  0
 14 17  1  0  0  0  0
 17 18  1  0  0  0  0
 17 19  1  0  0  0  0
 17 20  1  0  0  0  0
 20 21  1  0  0  0  0
 20 22  1  0  0  0  0
 20 23  1  0  0  0  0
M  END
> <VM2 Rank>
6

> <Conf_Id>
948

> <Probability>
4.33

> <Sum Probability>
41.27

> <Delta G>
0.607

> <G>
38.523

> <E>
10.893

> <-TS>
27.630

> <U+W>
-7.886

> <U>
47.264

> <W>
-55.150

> <W(PB)>
-57.314

> <W(SA)>
2.164

> <Valence>
2.234

> <Coulomb>
44.451

> <VdW>
0.580

> <VdW6>
-5.234

> <VdW12>
5.814

> <Bond>
0.148

> <Angle>
0.630

> <Pdih>
1.456

> <Idih>
0.000

> <Tether>
0.000

$$$$
VeraChem MOL file


 23 22  0  0  0  0  0  0  0  0999 V2000     
   19.8212   18.8661   26.3341 N   0  3  0  0  0  0  0  0  0  0  0  0
   20.1080   19.4964   27.0908 H   0  0  0  0  0  0  0  0  0  0  0  0
   20.3996   18.0235   26.4133 H   0  0  0  0  0  0  0  0  0  0  0  0
   18.8542   18.5875   26.5292 H   0  0  0  0  0  0  0  0  0  0  0  0
   19.9580   19.5204   24.9743 C   0  0  0  0  0  0  0  0  0  0  0  0
   21.0025   19.8171   24.8461 H   0  0  0  0  0  0  0  0  0  0  0  0
   19.3413   20.4232   24.9706 H   0  0  0  0  0  0  0  0  0  0  0  0
   19.5351   18.5995   23.8160 C   0  0  0  0  0  0  0  0  0  0  0  0
   20.1462   17.6871   23.8331 H   0  0  0  0  0  0  0  0  0  0  0  0
   18.4908   18.2908   23.9581 H   0  0  0  0  0  0  0  0  0  0  0  0
   19.6892   19.3028   22.4492 C   0  0  0  0  0  0  0  0  0  0  0  0
   20.7340   19.6164   22.3232 H   0  0  0  0  0  0  0  0  0  0  0  0
   19.0779   20.2158   22.4364 H   0  0  0  0  0  0  0  0  0  0  0  0
   19.2695   18.3822   21.2780 C   0  0  0  0  0  0  0  0  0  0  0  0
   19.9132   17.4920   21.2568 H   0  0  0  0  0  0  0  0  0  0  0  0
   18.2472   18.0199   21.4548 H   0  0  0  0  0  0  0  0  0  0  0  0
   19.3103   19.0820   19.8979 C   0  0  0  0  0  0  0  0  0  0  0  0
   18.6506   19.9610   19.9071 H   0  0  0  0  0  0  0  0  0  0  0  0
   18.8989   18.3973   19.1431 H   0  0  0  0  0  0  0  0  0  0  0  0
   20.7327   19.5041   19.4644 C   0  0  0  0  0  0  0  0  0  0  0  0
   21.1410   20.2812   20.1223 H   0  0  0  0  0  0  0  0  0  0  0  0
   20.7188   19.9097   18.4445 H   0  0  0  0  0  0  0  0  0  0  0  0
   21.4193   18.6477   19.4754 H   0  0  0  0  0  0  0  0  0  0  0  0
  1  2  1  0  0  0  0
  1  3  1  0  0  0  0
  1  4  1  0  0  0  0
  1  5  1  0  0  0  0
  5  6  1  0  0  0  0
  5  7  1  0  0  0  0
  5  8  1  0  0  0  0
  8  9  1  0  0  0  0
  8 10  1  0  0  0  0
  8 11  1  0  0  0  0
 11 12  1  0  0  0  0
 11 13  1  0  0  0  0
 11 14  1  0  0  0  0
 14 15  1  0  0  0  0
 14 16  1  0  0  0  0
 14 17  1  0  0  0  0
 17 18  1  0  0  0  0
 17 19  1  0  0  0  0
 17 20  1  0  0  0  0
 20 21  1  0  0  0  0
 20 22  1  0  0  0  0
 20 23  1  0  0  0  0
M  END
> <VM2 Rank>
7

> <Conf_Id>
1122

> <Probability>
4.08

> <Sum Probability>
45.35

> <Delta G>
0.642

> <G>
38.559

> <E>
10.928

> <-TS>
27.630

> <U+W>
-7.851

> <U>
47.264

> <W>
-55.115

> <W(PB)>
-57.280

> <W(SA)>
2.165

> <Valence>
2.234

> <Coulomb>
44.451

> <VdW>
0.580

> <VdW6>
-5.234

> <VdW12>
5.814

> <Bond>
0.148

> <Angle>
0.630

> <Pdih>
1.456

> <Idih>
0.000

> <Tether>
0.000

$$$$
VeraChem MOL file


 23 22  0  0  0  0  0  0  0  0999 V2000     
   19.3992   18.2118   26.0666 N   0  3  0  0  0  0  0  0  0  0  0  0
   20.2614   17.6619   26.1385 H   0  0  0  0  0  0  0  0  0  0  0  0
   18.6476   17.5625   25.8128 H   0  0  0  0  0  0  0  0  0  0  0  0
   19.1878   18.5586   27.0085 H   0  0  0  0  0  0  0  0  0  0  0  0
   19.5314   19.3429   25.0670 C   0  0  0  0  0  0  0  0  0  0  0  0
   20.3260   20.0088   25.4144 H   0  0  0  0  0  0  0  0  0  0  0  0
   18.5917   19.9018   25.0635 H   0  0  0  0  0  0  0  0  0  0  0  0
   19.8496   18.8558   23.6422 C   0  0  0  0  0  0  0  0  0  0  0  0
   20.7857   18.2817   23.6538 H   0  0  0  0  0  0  0  0  0  0  0  0
   19.0554   18.1743   23.3125 H   0  0  0  0  0  0  0  0  0  0  0  0
   19.9779   20.0417   22.6573 C   0  0  0  0  0  0  0  0  0  0  0  0
   20.7195   20.7518   23.0492 H   0  0  0  0  0  0  0  0  0  0  0  0
   19.0253   20.5873   22.6082 H   0  0  0  0  0  0  0  0  0  0  0  0
   20.4085   19.6196   21.2308 C   0  0  0  0  0  0  0  0  0  0  0  0
   20.5873   20.5277   20.6385 H   0  0  0  0  0  0  0  0  0  0  0  0
   21.3695   19.0889   21.2779 H   0  0  0  0  0  0  0  0  0  0  0  0
   19.3632   18.7423   20.5020 C   0  0  0  0  0  0  0  0  0  0  0  0
   18.3886   19.2503   20.5002 H   0  0  0  0  0  0  0  0  0  0  0  0
   19.2265   17.7924   21.0355 H   0  0  0  0  0  0  0  0  0  0  0  0
   19.7861   18.4429   19.0480 C   0  0  0  0  0  0  0  0  0  0  0  0
   19.0357   17.8178   18.5468 H   0  0  0  0  0  0  0  0  0  0  0  0
   20.7445   17.9082   19.0180 H   0  0  0  0  0  0  0  0  0  0  0  0
   19.8933   19.3693   18.4687 H   0  0  0  0  0  0  0  0  0  0  0  0
  1  2  1  0  0  0  0
  1  3  1  0  0  0  0
  1  4  1  0  0  0  0
  1  5  1  0  0  0  0
  5  6  1  0  0  0  0
  5  7  1  0  0  0  0
  5  8  1  0  0  0  0
  8  9  1  0  0  0  0
  8 10  1  0  0  0  0
  8 11  1  0  0  0  0
 11 12  1  0  0  0  0
 11 13  1  0  0  0  0
 11 14  1  0  0  0  0
 14 15  1  0  0  0  0
 14 16  1  0  0  0  0
 14 17  1  0  0  0  0
 17 18  1  0  0  0  0
 17 19  1  0  0  0  0
 17 20  1  0  0  0  0
 20 21  1  0  0  0  0
 20 22  1  0  0  0  0
 20 23  1  0  0  0  0
M  END
> <VM2 Rank>
8

> <Conf_Id>
872

> <Probability>
3.53

> <Sum Probability>
48.88

> <Delta G>
0.728

> <G>
38.644

> <E>
11.025

> <-TS>
27.619

> <U+W>
-7.754

> <U>
47.562

> <W>
-55.316

> <W(PB)>
-57.472

> <W(SA)>
2.156

> <Valence>
2.273

> <Coulomb>
44.723

> <VdW>
0.566

> <VdW6>
-5.266

> <VdW12>
5.832

> <Bond>
0.151

> <Angle>
0.657

> <Pdih>
1.466

> <Idih>
0.000

> <Tether>
0.000

$$$$
