VeraChem MOL file


 22 22  0  0  0  0  0  0  0  0999 V2000     
   19.8825   19.0490   20.9026 C   0  0  0  0  0  0  0  0  0  0  0  0
   20.8932   19.1566   20.4858 H   0  0  0  0  0  0  0  0  0  0  0  0
   19.2824   18.5760   20.1134 H   0  0  0  0  0  0  0  0  0  0  0  0
   19.2917   20.4493   21.1836 C   0  0  0  0  0  0  0  0  0  0  0  0
   19.3610   21.0412   20.2608 H   0  0  0  0  0  0  0  0  0  0  0  0
   18.2185   20.3558   21.3990 H   0  0  0  0  0  0  0  0  0  0  0  0
   19.9806   21.2344   22.3249 C   0  0  0  0  0  0  0  0  0  0  0  0
   19.6224   22.2720   22.2799 H   0  0  0  0  0  0  0  0  0  0  0  0
   21.0670   21.2803   22.1688 H   0  0  0  0  0  0  0  0  0  0  0  0
   19.6467   20.6733   23.7283 C   0  0  0  0  0  0  0  0  0  0  0  0
   19.7185   21.4905   24.4577 H   0  0  0  0  0  0  0  0  0  0  0  0
   18.5974   20.3507   23.7487 H   0  0  0  0  0  0  0  0  0  0  0  0
   20.5644   19.5313   24.2234 C   0  0  0  0  0  0  0  0  0  0  0  0
   21.4771   19.9849   24.6359 H   0  0  0  0  0  0  0  0  0  0  0  0
   21.0068   18.5018   23.1578 C   0  0  0  0  0  0  0  0  0  0  0  0
   21.8884   18.8894   22.6312 H   0  0  0  0  0  0  0  0  0  0  0  0
   21.3564   17.5991   23.6766 H   0  0  0  0  0  0  0  0  0  0  0  0
   19.9265   18.1001   22.1235 C   0  0  0  0  0  0  0  0  0  0  0  0
   20.1660   17.0931   21.7555 H   0  0  0  0  0  0  0  0  0  0  0  0
   18.9371   18.0248   22.5940 H   0  0  0  0  0  0  0  0  0  0  0  0
   19.8869   18.8389   25.2629 O   0  0  0  0  0  0  0  0  0  0  0  0
   19.1422   18.3715   24.8327 H   0  0  0  0  0  0  0  0  0  0  0  0
  1  2  1  0  0  0  0
  1  3  1  0  0  0  0
  1  4  1  0  0  0  0
  4  5  1  0  0  0  0
  4  6  1  0  0  0  0
  4  7  1  0  0  0  0
  7  8  1  0  0  0  0
  7  9  1  0  0  0  0
  7 10  1  0  0  0  0
 10 11  1  0  0  0  0
 10 12  1  0  0  0  0
 10 13  1  0  0  0  0
 13 14  1  0  0  0  0
 13 15  1  0  0  0  0
 15 16  1  0  0  0  0
 15 17  1  0  0  0  0
  1 18  1  0  0  0  0
 15 18  1  0  0  0  0
 18 19  1  0  0  0  0
 18 20  1  0  0  0  0
 13 21  1  0  0  0  0
 21 22  1  0  0  0  0
M  END
> <VM2 Rank>
1

> <Conf_Id>
1160

> <Probability>
4.87

> <Sum Probability>
4.87

> <Delta G>
0.000

> <G>
47.363

> <E>
20.694

> <-TS>
26.668

> <U+W>
2.809

> <U>
4.530

> <W>
-1.721

> <W(PB)>
-3.723

> <W(SA)>
2.002

> <Valence>
12.224

> <Coulomb>
-9.755

> <VdW>
2.062

> <VdW6>
-9.196

> <VdW12>
11.257

> <Bond>
0.216

> <Angle>
2.754

> <Pdih>
9.253

> <Idih>
0.000

> <Tether>
0.000

$$$$
VeraChem MOL file


 22 22  0  0  0  0  0  0  0  0999 V2000     
   19.9467   19.0637   20.8954 C   0  0  0  0  0  0  0  0  0  0  0  0
   20.5100   18.8571   19.9752 H   0  0  0  0  0  0  0  0  0  0  0  0
   18.9252   18.7060   20.7073 H   0  0  0  0  0  0  0  0  0  0  0  0
   19.9226   20.5937   21.1126 C   0  0  0  0  0  0  0  0  0  0  0  0
   20.9503   20.9814   21.0916 H   0  0  0  0  0  0  0  0  0  0  0  0
   19.4123   21.0529   20.2550 H   0  0  0  0  0  0  0  0  0  0  0  0
   19.2215   21.0606   22.4104 C   0  0  0  0  0  0  0  0  0  0  0  0
   18.2152   20.6273   22.4897 H   0  0  0  0  0  0  0  0  0  0  0  0
   19.0803   22.1478   22.3409 H   0  0  0  0  0  0  0  0  0  0  0  0
   20.0524   20.7662   23.6826 C   0  0  0  0  0  0  0  0  0  0  0  0
   21.1164   20.9275   23.4652 H   0  0  0  0  0  0  0  0  0  0  0  0
   19.7920   21.5073   24.4495 H   0  0  0  0  0  0  0  0  0  0  0  0
   19.8425   19.3660   24.3047 C   0  0  0  0  0  0  0  0  0  0  0  0
   18.9334   19.4024   24.9220 H   0  0  0  0  0  0  0  0  0  0  0  0
   19.6717   18.1961   23.3080 C   0  0  0  0  0  0  0  0  0  0  0  0
   19.8627   17.2570   23.8447 H   0  0  0  0  0  0  0  0  0  0  0  0
   18.6199   18.1409   22.9990 H   0  0  0  0  0  0  0  0  0  0  0  0
   20.5742   18.2484   22.0506 C   0  0  0  0  0  0  0  0  0  0  0  0
   20.7191   17.2198   21.6932 H   0  0  0  0  0  0  0  0  0  0  0  0
   21.5743   18.6288   22.2972 H   0  0  0  0  0  0  0  0  0  0  0  0
   20.9545   19.0834   25.1428 O   0  0  0  0  0  0  0  0  0  0  0  0
   21.7183   18.9614   24.5429 H   0  0  0  0  0  0  0  0  0  0  0  0
  1  2  1  0  0  0  0
  1  3  1  0  0  0  0
  1  4  1  0  0  0  0
  4  5  1  0  0  0  0
  4  6  1  0  0  0  0
  4  7  1  0  0  0  0
  7  8  1  0  0  0  0
  7  9  1  0  0  0  0
  7 10  1  0  0  0  0
 10 11  1  0  0  0  0
 10 12  1  0  0  0  0
 10 13  1  0  0  0  0
 13 14  1  0  0  0  0
 13 15  1  0  0  0  0
 15 16  1  0  0  0  0
 15 17  1  0  0  0  0
  1 18  1  0  0  0  0
 15 18  1  0  0  0  0
 18 19  1  0  0  0  0
 18 20  1  0  0  0  0
 13 21  1  0  0  0  0
 21 22  1  0  0  0  0
M  END
> <VM2 Rank>
2

> <Conf_Id>
2585

> <Probability>
4.76

> <Sum Probability>
9.63

> <Delta G>
0.013

> <G>
47.376

> <E>
20.708

> <-TS>
26.668

> <U+W>
2.823

> <U>
4.530

> <W>
-1.708

> <W(PB)>
-3.712

> <W(SA)>
2.004

> <Valence>
12.224

> <Coulomb>
-9.755

> <VdW>
2.061

> <VdW6>
-9.195

> <VdW12>
11.257

> <Bond>
0.216

> <Angle>
2.754

> <Pdih>
9.253

> <Idih>
0.000

> <Tether>
0.000

$$$$
VeraChem MOL file


 22 22  0  0  0  0  0  0  0  0999 V2000     
   19.6681   19.0240   20.9215 C   0  0  0  0  0  0  0  0  0  0  0  0
   19.9308   18.8838   19.8641 H   0  0  0  0  0  0  0  0  0  0  0  0
   18.7048   18.5146   21.0604 H   0  0  0  0  0  0  0  0  0  0  0  0
   19.4895   20.5380   21.1763 C   0  0  0  0  0  0  0  0  0  0  0  0
   20.3873   21.0730   20.8382 H   0  0  0  0  0  0  0  0  0  0  0  0
   18.6694   20.8980   20.5401 H   0  0  0  0  0  0  0  0  0  0  0  0
   19.1810   20.9231   22.6424 C   0  0  0  0  0  0  0  0  0  0  0  0
   18.3220   20.3539   23.0220 H   0  0  0  0  0  0  0  0  0  0  0  0
   18.8759   21.9784   22.6535 H   0  0  0  0  0  0  0  0  0  0  0  0
   20.4080   20.7692   23.5746 C   0  0  0  0  0  0  0  0  0  0  0  0
   21.3173   21.0517   23.0288 H   0  0  0  0  0  0  0  0  0  0  0  0
   20.3269   21.4969   24.3933 H   0  0  0  0  0  0  0  0  0  0  0  0
   20.6080   19.3661   24.1931 C   0  0  0  0  0  0  0  0  0  0  0  0
   21.6588   19.2970   24.5092 H   0  0  0  0  0  0  0  0  0  0  0  0
   20.3091   18.1642   23.2670 C   0  0  0  0  0  0  0  0  0  0  0  0
   20.8271   17.2916   23.6859 H   0  0  0  0  0  0  0  0  0  0  0  0
   19.2398   17.9174   23.3013 H   0  0  0  0  0  0  0  0  0  0  0  0
   20.7460   18.3355   21.7921 C   0  0  0  0  0  0  0  0  0  0  0  0
   20.9256   17.3362   21.3727 H   0  0  0  0  0  0  0  0  0  0  0  0
   21.7034   18.8701   21.7258 H   0  0  0  0  0  0  0  0  0  0  0  0
   19.7763   19.2580   25.3400 O   0  0  0  0  0  0  0  0  0  0  0  0
   18.8642   19.4246   25.0265 H   0  0  0  0  0  0  0  0  0  0  0  0
  1  2  1  0  0  0  0
  1  3  1  0  0  0  0
  1  4  1  0  0  0  0
  4  5  1  0  0  0  0
  4  6  1  0  0  0  0
  4  7  1  0  0  0  0
  7  8  1  0  0  0  0
  7  9  1  0  0  0  0
  7 10  1  0  0  0  0
 10 11  1  0  0  0  0
 10 12  1  0  0  0  0
 10 13  1  0  0  0  0
 13 14  1  0  0  0  0
 13 15  1  0  0  0  0
 15 16  1  0  0  0  0
 15 17  1  0  0  0  0
  1 18  1  0  0  0  0
 15 18  1  0  0  0  0
 18 19  1  0  0  0  0
 18 20  1  0  0  0  0
 13 21  1  0  0  0  0
 21 22  1  0  0  0  0
M  END
> <VM2 Rank>
3

> <Conf_Id>
571

> <Probability>
4.68

> <Sum Probability>
14.31

> <Delta G>
0.024

> <G>
47.387

> <E>
20.718

> <-TS>
26.668

> <U+W>
2.833

> <U>
4.530

> <W>
-1.697

> <W(PB)>
-3.699

> <W(SA)>
2.002

> <Valence>
12.224

> <Coulomb>
-9.755

> <VdW>
2.061

> <VdW6>
-9.195

> <VdW12>
11.257

> <Bond>
0.216

> <Angle>
2.754

> <Pdih>
9.253

> <Idih>
0.000

> <Tether>
0.000

$$$$
VeraChem MOL file


 22 22  0  0  0  0  0  0  0  0999 V2000     
   19.7402   19.1255   21.1084 C   0  0  0  0  0  0  0  0  0  0  0  0
   18.6440   19.1065   21.1740 H   0  0  0  0  0  0  0  0  0  0  0  0
   19.9847   18.8847   20.0648 H   0  0  0  0  0  0  0  0  0  0  0  0
   20.2869   20.5401   21.4077 C   0  0  0  0  0  0  0  0  0  0  0  0
   21.3709   20.4838   21.5722 H   0  0  0  0  0  0  0  0  0  0  0  0
   20.1679   21.1593   20.5079 H   0  0  0  0  0  0  0  0  0  0  0  0
   19.6110   21.2857   22.5863 C   0  0  0  0  0  0  0  0  0  0  0  0
   18.7757   21.8785   22.1890 H   0  0  0  0  0  0  0  0  0  0  0  0
   20.3234   22.0194   22.9880 H   0  0  0  0  0  0  0  0  0  0  0  0
   19.0582   20.4213   23.7518 C   0  0  0  0  0  0  0  0  0  0  0  0
   18.8283   21.0909   24.5907 H   0  0  0  0  0  0  0  0  0  0  0  0
   18.0930   19.9918   23.4536 H   0  0  0  0  0  0  0  0  0  0  0  0
   19.9654   19.2856   24.2783 C   0  0  0  0  0  0  0  0  0  0  0  0
   19.6347   19.0499   25.3000 H   0  0  0  0  0  0  0  0  0  0  0  0
   19.8361   17.9838   23.4555 C   0  0  0  0  0  0  0  0  0  0  0  0
   20.3636   17.1853   23.9934 H   0  0  0  0  0  0  0  0  0  0  0  0
   18.7809   17.6818   23.4389 H   0  0  0  0  0  0  0  0  0  0  0  0
   20.3680   18.0290   22.0016 C   0  0  0  0  0  0  0  0  0  0  0  0
   21.4613   18.1345   22.0081 H   0  0  0  0  0  0  0  0  0  0  0  0
   20.1687   17.0523   21.5401 H   0  0  0  0  0  0  0  0  0  0  0  0
   21.3201   19.7071   24.3175 O   0  0  0  0  0  0  0  0  0  0  0  0
   21.5129   19.9760   23.3973 H   0  0  0  0  0  0  0  0  0  0  0  0
  1  2  1  0  0  0  0
  1  3  1  0  0  0  0
  1  4  1  0  0  0  0
  4  5  1  0  0  0  0
  4  6  1  0  0  0  0
  4  7  1  0  0  0  0
  7  8  1  0  0  0  0
  7  9  1  0  0  0  0
  7 10  1  0  0  0  0
 10 11  1  0  0  0  0
 10 12  1  0  0  0  0
 10 13  1  0  0  0  0
 13 14  1  0  0  0  0
 13 15  1  0  0  0  0
 15 16  1  0  0  0  0
 15 17  1  0  0  0  0
  1 18  1  0  0  0  0
 15 18  1  0  0  0  0
 18 19  1  0  0  0  0
 18 20  1  0  0  0  0
 13 21  1  0  0  0  0
 21 22  1  0  0  0  0
M  END
> <VM2 Rank>
4

> <Conf_Id>
2388

> <Probability>
4.08

> <Sum Probability>
18.39

> <Delta G>
0.105

> <G>
47.468

> <E>
20.454

> <-TS>
27.013

> <U+W>
2.569

> <U>
3.922

> <W>
-1.352

> <W(PB)>
-3.332

> <W(SA)>
1.980

> <Valence>
12.571

> <Coulomb>
-10.581

> <VdW>
1.932

> <VdW6>
-10.483

> <VdW12>
12.414

> <Bond>
0.268

> <Angle>
3.728

> <Pdih>
8.575

> <Idih>
0.000

> <Tether>
0.000

$$$$
VeraChem MOL file


 22 22  0  0  0  0  0  0  0  0999 V2000     
   20.5280   19.1753   21.1957 C   0  0  0  0  0  0  0  0  0  0  0  0
   21.5420   19.5246   21.4305 H   0  0  0  0  0  0  0  0  0  0  0  0
   20.5752   18.8500   20.1473 H   0  0  0  0  0  0  0  0  0  0  0  0
   19.5412   20.3606   21.3000 C   0  0  0  0  0  0  0  0  0  0  0  0
   19.6480   20.9677   20.3907 H   0  0  0  0  0  0  0  0  0  0  0  0
   18.5016   20.0062   21.3063 H   0  0  0  0  0  0  0  0  0  0  0  0
   19.8206   21.2800   22.5127 C   0  0  0  0  0  0  0  0  0  0  0  0
   19.2963   22.2318   22.3519 H   0  0  0  0  0  0  0  0  0  0  0  0
   20.8886   21.5342   22.5494 H   0  0  0  0  0  0  0  0  0  0  0  0
   19.3680   20.7149   23.8819 C   0  0  0  0  0  0  0  0  0  0  0  0
   19.6329   21.4408   24.6617 H   0  0  0  0  0  0  0  0  0  0  0  0
   18.2722   20.6525   23.8962 H   0  0  0  0  0  0  0  0  0  0  0  0
   19.9473   19.3404   24.2865 C   0  0  0  0  0  0  0  0  0  0  0  0
   19.6041   19.1403   25.3117 H   0  0  0  0  0  0  0  0  0  0  0  0
   19.4328   18.1863   23.3959 C   0  0  0  0  0  0  0  0  0  0  0  0
   19.4690   17.2598   23.9834 H   0  0  0  0  0  0  0  0  0  0  0  0
   18.3683   18.3516   23.1848 H   0  0  0  0  0  0  0  0  0  0  0  0
   20.1823   17.9358   22.0592 C   0  0  0  0  0  0  0  0  0  0  0  0
   21.1107   17.3849   22.2643 H   0  0  0  0  0  0  0  0  0  0  0  0
   19.5663   17.2539   21.4572 H   0  0  0  0  0  0  0  0  0  0  0  0
   21.3658   19.3847   24.2751 O   0  0  0  0  0  0  0  0  0  0  0  0
   21.5939   19.4802   23.3290 H   0  0  0  0  0  0  0  0  0  0  0  0
  1  2  1  0  0  0  0
  1  3  1  0  0  0  0
  1  4  1  0  0  0  0
  4  5  1  0  0  0  0
  4  6  1  0  0  0  0
  4  7  1  0  0  0  0
  7  8  1  0  0  0  0
  7  9  1  0  0  0  0
  7 10  1  0  0  0  0
 10 11  1  0  0  0  0
 10 12  1  0  0  0  0
 10 13  1  0  0  0  0
 13 14  1  0  0  0  0
 13 15  1  0  0  0  0
 15 16  1  0  0  0  0
 15 17  1  0  0  0  0
  1 18  1  0  0  0  0
 15 18  1  0  0  0  0
 18 19  1  0  0  0  0
 18 20  1  0  0  0  0
 13 21  1  0  0  0  0
 21 22  1  0  0  0  0
M  END
> <VM2 Rank>
5

> <Conf_Id>
2139

> <Probability>
4.08

> <Sum Probability>
22.47

> <Delta G>
0.106

> <G>
47.469

> <E>
20.455

> <-TS>
27.013

> <U+W>
2.571

> <U>
3.922

> <W>
-1.351

> <W(PB)>
-3.348

> <W(SA)>
1.997

> <Valence>
12.571

> <Coulomb>
-10.581

> <VdW>
1.931

> <VdW6>
-10.483

> <VdW12>
12.414

> <Bond>
0.268

> <Angle>
3.728

> <Pdih>
8.575

> <Idih>
0.000

> <Tether>
0.000

$$$$
VeraChem MOL file


 22 22  0  0  0  0  0  0  0  0999 V2000     
   19.9766   19.1866   21.0729 C   0  0  0  0  0  0  0  0  0  0  0  0
   20.9200   19.6951   20.8325 H   0  0  0  0  0  0  0  0  0  0  0  0
   19.5990   18.7850   20.1226 H   0  0  0  0  0  0  0  0  0  0  0  0
   18.9304   20.1892   21.6113 C   0  0  0  0  0  0  0  0  0  0  0  0
   18.4880   20.7248   20.7600 H   0  0  0  0  0  0  0  0  0  0  0  0
   18.0964   19.6368   22.0636 H   0  0  0  0  0  0  0  0  0  0  0  0
   19.4660   21.2482   22.6080 C   0  0  0  0  0  0  0  0  0  0  0  0
   18.6328   21.5821   23.2417 H   0  0  0  0  0  0  0  0  0  0  0  0
   19.7733   22.1365   22.0393 H   0  0  0  0  0  0  0  0  0  0  0  0
   20.6596   20.8354   23.5115 C   0  0  0  0  0  0  0  0  0  0  0  0
   21.5881   20.8958   22.9291 H   0  0  0  0  0  0  0  0  0  0  0  0
   20.7650   21.5918   24.3001 H   0  0  0  0  0  0  0  0  0  0  0  0
   20.5856   19.4460   24.1852 C   0  0  0  0  0  0  0  0  0  0  0  0
   21.2555   19.4691   25.0568 H   0  0  0  0  0  0  0  0  0  0  0  0
   21.0851   18.3069   23.2680 C   0  0  0  0  0  0  0  0  0  0  0  0
   22.1060   18.5418   22.9399 H   0  0  0  0  0  0  0  0  0  0  0  0
   21.1716   17.3943   23.8721 H   0  0  0  0  0  0  0  0  0  0  0  0
   20.2185   17.9904   22.0240 C   0  0  0  0  0  0  0  0  0  0  0  0
   20.7218   17.1954   21.4570 H   0  0  0  0  0  0  0  0  0  0  0  0
   19.2564   17.5642   22.3390 H   0  0  0  0  0  0  0  0  0  0  0  0
   19.2641   19.1753   24.6261 O   0  0  0  0  0  0  0  0  0  0  0  0
   18.7216   19.2541   23.8163 H   0  0  0  0  0  0  0  0  0  0  0  0
  1  2  1  0  0  0  0
  1  3  1  0  0  0  0
  1  4  1  0  0  0  0
  4  5  1  0  0  0  0
  4  6  1  0  0  0  0
  4  7  1  0  0  0  0
  7  8  1  0  0  0  0
  7  9  1  0  0  0  0
  7 10  1  0  0  0  0
 10 11  1  0  0  0  0
 10 12  1  0  0  0  0
 10 13  1  0  0  0  0
 13 14  1  0  0  0  0
 13 15  1  0  0  0  0
 15 16  1  0  0  0  0
 15 17  1  0  0  0  0
  1 18  1  0  0  0  0
 15 18  1  0  0  0  0
 18 19  1  0  0  0  0
 18 20  1  0  0  0  0
 13 21  1  0  0  0  0
 21 22  1  0  0  0  0
M  END
> <VM2 Rank>
6

> <Conf_Id>
1995

> <Probability>
4.07

> <Sum Probability>
26.54

> <Delta G>
0.107

> <G>
47.470

> <E>
20.456

> <-TS>
27.013

> <U+W>
2.572

> <U>
3.922

> <W>
-1.350

> <W(PB)>
-3.345

> <W(SA)>
1.995

> <Valence>
12.571

> <Coulomb>
-10.581

> <VdW>
1.932

> <VdW6>
-10.483

> <VdW12>
12.414

> <Bond>
0.268

> <Angle>
3.728

> <Pdih>
8.575

> <Idih>
0.000

> <Tether>
0.000

$$$$
VeraChem MOL file


 22 22  0  0  0  0  0  0  0  0999 V2000     
   19.2811   18.8974   21.3797 C   0  0  0  0  0  0  0  0  0  0  0  0
   19.0867   18.5182   20.3670 H   0  0  0  0  0  0  0  0  0  0  0  0
   18.3217   18.8069   21.9057 H   0  0  0  0  0  0  0  0  0  0  0  0
   19.6719   20.3897   21.2807 C   0  0  0  0  0  0  0  0  0  0  0  0
   20.7220   20.5011   20.9786 H   0  0  0  0  0  0  0  0  0  0  0  0
   19.0763   20.8403   20.4751 H   0  0  0  0  0  0  0  0  0  0  0  0
   19.3813   21.1821   22.5776 C   0  0  0  0  0  0  0  0  0  0  0  0
   18.3601   20.9706   22.9226 H   0  0  0  0  0  0  0  0  0  0  0  0
   19.3954   22.2539   22.3372 H   0  0  0  0  0  0  0  0  0  0  0  0
   20.3859   20.9417   23.7316 C   0  0  0  0  0  0  0  0  0  0  0  0
   21.3654   21.3420   23.4397 H   0  0  0  0  0  0  0  0  0  0  0  0
   20.0692   21.5380   24.5973 H   0  0  0  0  0  0  0  0  0  0  0  0
   20.5672   19.4786   24.1950 C   0  0  0  0  0  0  0  0  0  0  0  0
   21.2304   19.5028   25.0716 H   0  0  0  0  0  0  0  0  0  0  0  0
   21.2479   18.5909   23.1279 C   0  0  0  0  0  0  0  0  0  0  0  0
   22.0434   19.1708   22.6423 H   0  0  0  0  0  0  0  0  0  0  0  0
   21.7639   17.7713   23.6447 H   0  0  0  0  0  0  0  0  0  0  0  0
   20.3343   17.9696   22.0368 C   0  0  0  0  0  0  0  0  0  0  0  0
   19.8154   17.0963   22.4556 H   0  0  0  0  0  0  0  0  0  0  0  0
   20.9860   17.5702   21.2477 H   0  0  0  0  0  0  0  0  0  0  0  0
   19.3164   18.9279   24.5776 O   0  0  0  0  0  0  0  0  0  0  0  0
   18.8183   18.8617   23.7387 H   0  0  0  0  0  0  0  0  0  0  0  0
  1  2  1  0  0  0  0
  1  3  1  0  0  0  0
  1  4  1  0  0  0  0
  4  5  1  0  0  0  0
  4  6  1  0  0  0  0
  4  7  1  0  0  0  0
  7  8  1  0  0  0  0
  7  9  1  0  0  0  0
  7 10  1  0  0  0  0
 10 11  1  0  0  0  0
 10 12  1  0  0  0  0
 10 13  1  0  0  0  0
 13 14  1  0  0  0  0
 13 15  1  0  0  0  0
 15 16  1  0  0  0  0
 15 17  1  0  0  0  0
  1 18  1  0  0  0  0
 15 18  1  0  0  0  0
 18 19  1  0  0  0  0
 18 20  1  0  0  0  0
 13 21  1  0  0  0  0
 21 22  1  0  0  0  0
M  END
> <VM2 Rank>
7

> <Conf_Id>
124

> <Probability>
3.88

> <Sum Probability>
30.42

> <Delta G>
0.135

> <G>
47.498

> <E>
20.485

> <-TS>
27.013

> <U+W>
2.600

> <U>
3.922

> <W>
-1.322

> <W(PB)>
-3.302

> <W(SA)>
1.980

> <Valence>
12.571

> <Coulomb>
-10.581

> <VdW>
1.932

> <VdW6>
-10.483

> <VdW12>
12.414

> <Bond>
0.268

> <Angle>
3.728

> <Pdih>
8.575

> <Idih>
0.000

> <Tether>
0.000

$$$$
VeraChem MOL file


 22 22  0  0  0  0  0  0  0  0999 V2000     
   19.8710   19.1041   20.8415 C   0  0  0  0  0  0  0  0  0  0  0  0
   18.8001   18.9296   20.6692 H   0  0  0  0  0  0  0  0  0  0  0  0
   20.3617   18.9262   19.8748 H   0  0  0  0  0  0  0  0  0  0  0  0
   20.0922   20.5825   21.2421 C   0  0  0  0  0  0  0  0  0  0  0  0
   21.1480   20.7715   21.4792 H   0  0  0  0  0  0  0  0  0  0  0  0
   19.8618   21.2035   20.3656 H   0  0  0  0  0  0  0  0  0  0  0  0
   19.1751   21.0347   22.4025 C   0  0  0  0  0  0  0  0  0  0  0  0
   18.1926   20.5540   22.3002 H   0  0  0  0  0  0  0  0  0  0  0  0
   18.9860   22.1127   22.3081 H   0  0  0  0  0  0  0  0  0  0  0  0
   19.7368   20.7696   23.8215 C   0  0  0  0  0  0  0  0  0  0  0  0
   20.4182   21.5886   24.0859 H   0  0  0  0  0  0  0  0  0  0  0  0
   18.9027   20.8273   24.5338 H   0  0  0  0  0  0  0  0  0  0  0  0
   20.4966   19.4387   24.0271 C   0  0  0  0  0  0  0  0  0  0  0  0
   21.5263   19.5657   23.6631 H   0  0  0  0  0  0  0  0  0  0  0  0
   19.8777   18.2250   23.2989 C   0  0  0  0  0  0  0  0  0  0  0  0
   20.1403   17.3144   23.8539 H   0  0  0  0  0  0  0  0  0  0  0  0
   18.7819   18.2858   23.3109 H   0  0  0  0  0  0  0  0  0  0  0  0
   20.4028   18.0614   21.8515 C   0  0  0  0  0  0  0  0  0  0  0  0
   21.5012   18.0856   21.8568 H   0  0  0  0  0  0  0  0  0  0  0  0
   20.1270   17.0616   21.4895 H   0  0  0  0  0  0  0  0  0  0  0  0
   20.5337   19.1621   25.4219 O   0  0  0  0  0  0  0  0  0  0  0  0
   20.9743   19.9261   25.8496 H   0  0  0  0  0  0  0  0  0  0  0  0
  1  2  1  0  0  0  0
  1  3  1  0  0  0  0
  1  4  1  0  0  0  0
  4  5  1  0  0  0  0
  4  6  1  0  0  0  0
  4  7  1  0  0  0  0
  7  8  1  0  0  0  0
  7  9  1  0  0  0  0
  7 10  1  0  0  0  0
 10 11  1  0  0  0  0
 10 12  1  0  0  0  0
 10 13  1  0  0  0  0
 13 14  1  0  0  0  0
 13 15  1  0  0  0  0
 15 16  1  0  0  0  0
 15 17  1  0  0  0  0
  1 18  1  0  0  0  0
 15 18  1  0  0  0  0
 18 19  1  0  0  0  0
 18 20  1  0  0  0  0
 13 21  1  0  0  0  0
 21 22  1  0  0  0  0
M  END
> <VM2 Rank>
8

> <Conf_Id>
1799

> <Probability>
3.12

> <Sum Probability>
33.55

> <Delta G>
0.265

> <G>
47.628

> <E>
20.970

> <-TS>
26.658

> <U+W>
3.085

> <U>
5.433

> <W>
-2.348

> <W(PB)>
-4.358

> <W(SA)>
2.010

> <Valence>
11.903

> <Coulomb>
-8.719

> <VdW>
2.250

> <VdW6>
-8.926

> <VdW12>
11.176

> <Bond>
0.223

> <Angle>
2.471

> <Pdih>
9.209

> <Idih>
0.000

> <Tether>
0.000

$$$$
