VeraChem MOL file


 29 28  0  0  0  0  0  0  0  0999 V2000     
   19.9950   18.9912   18.8122 C   0  0  0  0  0  0  0  0  0  0  0  0
   19.4251   19.2143   17.9009 H   0  0  0  0  0  0  0  0  0  0  0  0
   20.8996   19.6133   18.8050 H   0  0  0  0  0  0  0  0  0  0  0  0
   20.3035   17.9385   18.7677 H   0  0  0  0  0  0  0  0  0  0  0  0
   19.1426   19.2666   20.0690 C   0  0  0  0  0  0  0  0  0  0  0  0
   18.2298   18.6557   20.0314 H   0  0  0  0  0  0  0  0  0  0  0  0
   18.8212   20.3176   20.0684 H   0  0  0  0  0  0  0  0  0  0  0  0
   19.9220   18.9603   21.3670 C   0  0  0  0  0  0  0  0  0  0  0  0
   20.2432   17.9095   21.3620 H   0  0  0  0  0  0  0  0  0  0  0  0
   20.8346   19.5715   21.3990 H   0  0  0  0  0  0  0  0  0  0  0  0
   19.0717   19.2349   22.6277 C   0  0  0  0  0  0  0  0  0  0  0  0
   18.1591   18.6236   22.5948 H   0  0  0  0  0  0  0  0  0  0  0  0
   18.7507   20.2858   22.6318 H   0  0  0  0  0  0  0  0  0  0  0  0
   19.8518   18.9284   23.9260 C   0  0  0  0  0  0  0  0  0  0  0  0
   20.1730   17.8775   23.9214 H   0  0  0  0  0  0  0  0  0  0  0  0
   20.7643   19.5397   23.9585 H   0  0  0  0  0  0  0  0  0  0  0  0
   19.0012   19.2028   25.1867 C   0  0  0  0  0  0  0  0  0  0  0  0
   18.0885   18.5915   25.1546 H   0  0  0  0  0  0  0  0  0  0  0  0
   18.6799   20.2537   25.1918 H   0  0  0  0  0  0  0  0  0  0  0  0
   19.7803   18.8966   26.4847 C   0  0  0  0  0  0  0  0  0  0  0  0
   20.0988   17.8455   26.4858 H   0  0  0  0  0  0  0  0  0  0  0  0
   20.6907   19.5096   26.5230 H   0  0  0  0  0  0  0  0  0  0  0  0
   18.9244   19.1731   27.7332 C   0  0  0  0  0  0  0  0  0  0  0  0
   18.0245   18.5526   27.7076 H   0  0  0  0  0  0  0  0  0  0  0  0
   18.6187   20.2228   27.7450 H   0  0  0  0  0  0  0  0  0  0  0  0
   19.6549   18.8842   29.0286 N   0  3  0  0  0  0  0  0  0  0  0  0
   20.4995   19.4573   29.1268 H   0  0  0  0  0  0  0  0  0  0  0  0
   19.9466   17.9031   29.0920 H   0  0  0  0  0  0  0  0  0  0  0  0
   19.0674   19.0748   29.8479 H   0  0  0  0  0  0  0  0  0  0  0  0
  1  2  1  0  0  0  0
  1  3  1  0  0  0  0
  1  4  1  0  0  0  0
  1  5  1  0  0  0  0
  5  6  1  0  0  0  0
  5  7  1  0  0  0  0
  5  8  1  0  0  0  0
  8  9  1  0  0  0  0
  8 10  1  0  0  0  0
  8 11  1  0  0  0  0
 11 12  1  0  0  0  0
 11 13  1  0  0  0  0
 11 14  1  0  0  0  0
 14 15  1  0  0  0  0
 14 16  1  0  0  0  0
 14 17  1  0  0  0  0
 17 18  1  0  0  0  0
 17 19  1  0  0  0  0
 17 20  1  0  0  0  0
 20 21  1  0  0  0  0
 20 22  1  0  0  0  0
 20 23  1  0  0  0  0
 23 24  1  0  0  0  0
 23 25  1  0  0  0  0
 23 26  1  0  0  0  0
 26 27  1  0  0  0  0
 26 28  1  0  0  0  0
 26 29  1  0  0  0  0
M  END
> <VM2 Rank>
1

> <Conf_Id>
2386

> <Probability>
5.21

> <Sum Probability>
5.21

> <Delta G>
0.000

> <G>
58.147

> <E>
20.963

> <-TS>
37.184

> <U+W>
-3.182

> <U>
47.674

> <W>
-50.850

> <W(PB)>
-53.429

> <W(SA)>
2.580

> <Valence>
2.587

> <Coulomb>
44.357

> <VdW>
0.730

> <VdW6>
-6.901

> <VdW12>
7.631

> <Bond>
0.145

> <Angle>
0.401

> <Pdih>
2.040

> <Idih>
0.000

> <Tether>
0.000

$$$$
VeraChem MOL file


 29 28  0  0  0  0  0  0  0  0999 V2000     
   19.8615   19.1637   18.8954 C   0  0  0  0  0  0  0  0  0  0  0  0
   20.9424   19.3553   18.8885 H   0  0  0  0  0  0  0  0  0  0  0  0
   19.7033   18.0904   18.7269 H   0  0  0  0  0  0  0  0  0  0  0  0
   19.4175   19.7065   18.0508 H   0  0  0  0  0  0  0  0  0  0  0  0
   19.2267   19.6153   20.2276 C   0  0  0  0  0  0  0  0  0  0  0  0
   18.1419   19.4425   20.1917 H   0  0  0  0  0  0  0  0  0  0  0  0
   19.3714   20.6976   20.3521 H   0  0  0  0  0  0  0  0  0  0  0  0
   19.8345   18.8658   21.4338 C   0  0  0  0  0  0  0  0  0  0  0  0
   19.6895   17.7844   21.3038 H   0  0  0  0  0  0  0  0  0  0  0  0
   20.9190   19.0397   21.4643 H   0  0  0  0  0  0  0  0  0  0  0  0
   19.2012   19.3153   22.7698 C   0  0  0  0  0  0  0  0  0  0  0  0
   18.1167   19.1412   22.7384 H   0  0  0  0  0  0  0  0  0  0  0  0
   19.3463   20.3968   22.8988 H   0  0  0  0  0  0  0  0  0  0  0  0
   19.8096   18.5651   23.9761 C   0  0  0  0  0  0  0  0  0  0  0  0
   19.6652   17.4836   23.8459 H   0  0  0  0  0  0  0  0  0  0  0  0
   20.8941   18.7396   24.0076 H   0  0  0  0  0  0  0  0  0  0  0  0
   19.1758   19.0140   25.3121 C   0  0  0  0  0  0  0  0  0  0  0  0
   18.0917   18.8367   25.2817 H   0  0  0  0  0  0  0  0  0  0  0  0
   19.3188   20.0959   25.4347 H   0  0  0  0  0  0  0  0  0  0  0  0
   19.7868   18.2625   26.5184 C   0  0  0  0  0  0  0  0  0  0  0  0
   19.6722   17.1807   26.3688 H   0  0  0  0  0  0  0  0  0  0  0  0
   20.8658   18.4583   26.5766 H   0  0  0  0  0  0  0  0  0  0  0  0
   19.1220   18.6430   27.8553 C   0  0  0  0  0  0  0  0  0  0  0  0
   19.5350   18.0226   28.6554 H   0  0  0  0  0  0  0  0  0  0  0  0
   18.0465   18.4549   27.7983 H   0  0  0  0  0  0  0  0  0  0  0  0
   19.3259   20.0934   28.2466 N   0  3  0  0  0  0  0  0  0  0  0  0
   20.3202   20.3264   28.3387 H   0  0  0  0  0  0  0  0  0  0  0  0
   18.8821   20.3112   29.1456 H   0  0  0  0  0  0  0  0  0  0  0  0
   18.9275   20.7331   27.5520 H   0  0  0  0  0  0  0  0  0  0  0  0
  1  2  1  0  0  0  0
  1  3  1  0  0  0  0
  1  4  1  0  0  0  0
  1  5  1  0  0  0  0
  5  6  1  0  0  0  0
  5  7  1  0  0  0  0
  5  8  1  0  0  0  0
  8  9  1  0  0  0  0
  8 10  1  0  0  0  0
  8 11  1  0  0  0  0
 11 12  1  0  0  0  0
 11 13  1  0  0  0  0
 11 14  1  0  0  0  0
 14 15  1  0  0  0  0
 14 16  1  0  0  0  0
 14 17  1  0  0  0  0
 17 18  1  0  0  0  0
 17 19  1  0  0  0  0
 17 20  1  0  0  0  0
 20 21  1  0  0  0  0
 20 22  1  0  0  0  0
 20 23  1  0  0  0  0
 23 24  1  0  0  0  0
 23 25  1  0  0  0  0
 23 26  1  0  0  0  0
 26 27  1  0  0  0  0
 26 28  1  0  0  0  0
 26 29  1  0  0  0  0
M  END
> <VM2 Rank>
2

> <Conf_Id>
2178

> <Probability>
3.50

> <Sum Probability>
8.71

> <Delta G>
0.238

> <G>
58.385

> <E>
21.096

> <-TS>
37.288

> <U+W>
-3.048

> <U>
48.292

> <W>
-51.340

> <W(PB)>
-53.881

> <W(SA)>
2.541

> <Valence>
2.685

> <Coulomb>
44.768

> <VdW>
0.839

> <VdW6>
-7.428

> <VdW12>
8.267

> <Bond>
0.165

> <Angle>
0.440

> <Pdih>
2.080

> <Idih>
0.000

> <Tether>
0.000

$$$$
VeraChem MOL file


 29 28  0  0  0  0  0  0  0  0999 V2000     
   19.7817   18.9384   18.8905 C   0  0  0  0  0  0  0  0  0  0  0  0
   19.1067   18.8314   18.0314 H   0  0  0  0  0  0  0  0  0  0  0  0
   20.3389   19.8762   18.7666 H   0  0  0  0  0  0  0  0  0  0  0  0
   20.4991   18.1079   18.8611 H   0  0  0  0  0  0  0  0  0  0  0  0
   18.9855   18.9369   20.2125 C   0  0  0  0  0  0  0  0  0  0  0  0
   18.4128   18.0022   20.2922 H   0  0  0  0  0  0  0  0  0  0  0  0
   18.2539   19.7569   20.1985 H   0  0  0  0  0  0  0  0  0  0  0  0
   19.9129   19.0864   21.4387 C   0  0  0  0  0  0  0  0  0  0  0  0
   20.6438   18.2659   21.4473 H   0  0  0  0  0  0  0  0  0  0  0  0
   20.4848   20.0208   21.3536 H   0  0  0  0  0  0  0  0  0  0  0  0
   19.1192   19.0852   22.7647 C   0  0  0  0  0  0  0  0  0  0  0  0
   18.5473   18.1507   22.8488 H   0  0  0  0  0  0  0  0  0  0  0  0
   18.3884   19.9057   22.7553 H   0  0  0  0  0  0  0  0  0  0  0  0
   20.0474   19.2347   23.9911 C   0  0  0  0  0  0  0  0  0  0  0  0
   20.7781   18.4140   24.0003 H   0  0  0  0  0  0  0  0  0  0  0  0
   20.6196   20.1690   23.9059 H   0  0  0  0  0  0  0  0  0  0  0  0
   19.2538   19.2340   25.3170 C   0  0  0  0  0  0  0  0  0  0  0  0
   18.6802   18.3007   25.3945 H   0  0  0  0  0  0  0  0  0  0  0  0
   18.5253   20.0567   25.3090 H   0  0  0  0  0  0  0  0  0  0  0  0
   20.1849   19.3827   26.5434 C   0  0  0  0  0  0  0  0  0  0  0  0
   20.8976   18.5479   26.5784 H   0  0  0  0  0  0  0  0  0  0  0  0
   20.7806   20.2992   26.4387 H   0  0  0  0  0  0  0  0  0  0  0  0
   19.4104   19.4539   27.8734 C   0  0  0  0  0  0  0  0  0  0  0  0
   18.6954   20.2804   27.8394 H   0  0  0  0  0  0  0  0  0  0  0  0
   20.1109   19.6422   28.6916 H   0  0  0  0  0  0  0  0  0  0  0  0
   18.6481   18.1858   28.2037 N   0  3  0  0  0  0  0  0  0  0  0  0
   18.1538   18.2611   29.0996 H   0  0  0  0  0  0  0  0  0  0  0  0
   19.2712   17.3743   28.2723 H   0  0  0  0  0  0  0  0  0  0  0  0
   17.9453   17.9692   27.4901 H   0  0  0  0  0  0  0  0  0  0  0  0
  1  2  1  0  0  0  0
  1  3  1  0  0  0  0
  1  4  1  0  0  0  0
  1  5  1  0  0  0  0
  5  6  1  0  0  0  0
  5  7  1  0  0  0  0
  5  8  1  0  0  0  0
  8  9  1  0  0  0  0
  8 10  1  0  0  0  0
  8 11  1  0  0  0  0
 11 12  1  0  0  0  0
 11 13  1  0  0  0  0
 11 14  1  0  0  0  0
 14 15  1  0  0  0  0
 14 16  1  0  0  0  0
 14 17  1  0  0  0  0
 17 18  1  0  0  0  0
 17 19  1  0  0  0  0
 17 20  1  0  0  0  0
 20 21  1  0  0  0  0
 20 22  1  0  0  0  0
 20 23  1  0  0  0  0
 23 24  1  0  0  0  0
 23 25  1  0  0  0  0
 23 26  1  0  0  0  0
 26 27  1  0  0  0  0
 26 28  1  0  0  0  0
 26 29  1  0  0  0  0
M  END
> <VM2 Rank>
3

> <Conf_Id>
1784

> <Probability>
3.29

> <Sum Probability>
11.99

> <Delta G>
0.275

> <G>
58.421

> <E>
21.133

> <-TS>
37.288

> <U+W>
-3.011

> <U>
48.292

> <W>
-51.304

> <W(PB)>
-53.854

> <W(SA)>
2.551

> <Valence>
2.685

> <Coulomb>
44.768

> <VdW>
0.839

> <VdW6>
-7.428

> <VdW12>
8.268

> <Bond>
0.165

> <Angle>
0.440

> <Pdih>
2.080

> <Idih>
0.000

> <Tether>
0.000

$$$$
VeraChem MOL file


 29 28  0  0  0  0  0  0  0  0999 V2000     
   20.2027   18.4716   19.1140 C   0  0  0  0  0  0  0  0  0  0  0  0
   19.7632   18.6167   18.1186 H   0  0  0  0  0  0  0  0  0  0  0  0
   21.1937   18.9440   19.1171 H   0  0  0  0  0  0  0  0  0  0  0  0
   20.3375   17.3931   19.2690 H   0  0  0  0  0  0  0  0  0  0  0  0
   19.2951   19.0795   20.2042 C   0  0  0  0  0  0  0  0  0  0  0  0
   18.3019   18.6116   20.1544 H   0  0  0  0  0  0  0  0  0  0  0  0
   19.1516   20.1505   20.0036 H   0  0  0  0  0  0  0  0  0  0  0  0
   19.8913   18.8886   21.6163 C   0  0  0  0  0  0  0  0  0  0  0  0
   20.0351   17.8169   21.8113 H   0  0  0  0  0  0  0  0  0  0  0  0
   20.8848   19.3560   21.6607 H   0  0  0  0  0  0  0  0  0  0  0  0
   18.9852   19.4961   22.7109 C   0  0  0  0  0  0  0  0  0  0  0  0
   17.9919   19.0282   22.6661 H   0  0  0  0  0  0  0  0  0  0  0  0
   18.8412   20.5676   22.5143 H   0  0  0  0  0  0  0  0  0  0  0  0
   19.5821   19.3055   24.1234 C   0  0  0  0  0  0  0  0  0  0  0  0
   19.7292   18.2334   24.3108 H   0  0  0  0  0  0  0  0  0  0  0  0
   20.5741   19.7761   24.1681 H   0  0  0  0  0  0  0  0  0  0  0  0
   18.6722   19.9133   25.2176 C   0  0  0  0  0  0  0  0  0  0  0  0
   17.6897   19.4215   25.1982 H   0  0  0  0  0  0  0  0  0  0  0  0
   18.4936   20.9735   24.9909 H   0  0  0  0  0  0  0  0  0  0  0  0
   19.2752   19.8047   26.6377 C   0  0  0  0  0  0  0  0  0  0  0  0
   20.2460   20.3172   26.6667 H   0  0  0  0  0  0  0  0  0  0  0  0
   18.6201   20.3317   27.3442 H   0  0  0  0  0  0  0  0  0  0  0  0
   19.4456   18.3460   27.1018 C   0  0  0  0  0  0  0  0  0  0  0  0
   20.1315   17.8218   26.4314 H   0  0  0  0  0  0  0  0  0  0  0  0
   18.4790   17.8359   27.0743 H   0  0  0  0  0  0  0  0  0  0  0  0
   19.9945   18.2328   28.5092 N   0  3  0  0  0  0  0  0  0  0  0  0
   20.9172   18.6718   28.5956 H   0  0  0  0  0  0  0  0  0  0  0  0
   20.1005   17.2543   28.7993 H   0  0  0  0  0  0  0  0  0  0  0  0
   19.3804   18.6830   29.1959 H   0  0  0  0  0  0  0  0  0  0  0  0
  1  2  1  0  0  0  0
  1  3  1  0  0  0  0
  1  4  1  0  0  0  0
  1  5  1  0  0  0  0
  5  6  1  0  0  0  0
  5  7  1  0  0  0  0
  5  8  1  0  0  0  0
  8  9  1  0  0  0  0
  8 10  1  0  0  0  0
  8 11  1  0  0  0  0
 11 12  1  0  0  0  0
 11 13  1  0  0  0  0
 11 14  1  0  0  0  0
 14 15  1  0  0  0  0
 14 16  1  0  0  0  0
 14 17  1  0  0  0  0
 17 18  1  0  0  0  0
 17 19  1  0  0  0  0
 17 20  1  0  0  0  0
 20 21  1  0  0  0  0
 20 22  1  0  0  0  0
 20 23  1  0  0  0  0
 23 24  1  0  0  0  0
 23 25  1  0  0  0  0
 23 26  1  0  0  0  0
 26 27  1  0  0  0  0
 26 28  1  0  0  0  0
 26 29  1  0  0  0  0
M  END
> <VM2 Rank>
4

> <Conf_Id>
2540

> <Probability>
2.23

> <Sum Probability>
14.22

> <Delta G>
0.506

> <G>
58.653

> <E>
21.369

> <-TS>
37.283

> <U+W>
-2.775

> <U>
48.481

> <W>
-51.257

> <W(PB)>
-53.825

> <W(SA)>
2.568

> <Valence>
2.887

> <Coulomb>
44.809

> <VdW>
0.786

> <VdW6>
-7.506

> <VdW12>
8.292

> <Bond>
0.167

> <Angle>
0.525

> <Pdih>
2.195

> <Idih>
0.000

> <Tether>
0.000

$$$$
VeraChem MOL file


 29 28  0  0  0  0  0  0  0  0999 V2000     
   20.4800   19.2507   19.1314 C   0  0  0  0  0  0  0  0  0  0  0  0
   20.9491   18.2585   19.1015 H   0  0  0  0  0  0  0  0  0  0  0  0
   20.0618   19.4559   18.1374 H   0  0  0  0  0  0  0  0  0  0  0  0
   21.2640   19.9938   19.3273 H   0  0  0  0  0  0  0  0  0  0  0  0
   19.3773   19.3104   20.2094 C   0  0  0  0  0  0  0  0  0  0  0  0
   18.5919   18.5804   19.9684 H   0  0  0  0  0  0  0  0  0  0  0  0
   18.9043   20.3024   20.1926 H   0  0  0  0  0  0  0  0  0  0  0  0
   19.9399   19.0248   21.6193 C   0  0  0  0  0  0  0  0  0  0  0  0
   20.4134   18.0334   21.6308 H   0  0  0  0  0  0  0  0  0  0  0  0
   20.7261   19.7554   21.8548 H   0  0  0  0  0  0  0  0  0  0  0  0
   18.8384   19.0840   22.7017 C   0  0  0  0  0  0  0  0  0  0  0  0
   18.0524   18.3536   22.4649 H   0  0  0  0  0  0  0  0  0  0  0  0
   18.3653   20.0757   22.6897 H   0  0  0  0  0  0  0  0  0  0  0  0
   19.4016   18.7980   24.1120 C   0  0  0  0  0  0  0  0  0  0  0  0
   19.8720   17.8051   24.1240 H   0  0  0  0  0  0  0  0  0  0  0  0
   20.1905   19.5273   24.3397 H   0  0  0  0  0  0  0  0  0  0  0  0
   18.2970   18.8593   25.1941 C   0  0  0  0  0  0  0  0  0  0  0  0
   17.4918   18.1604   24.9282 H   0  0  0  0  0  0  0  0  0  0  0  0
   17.8466   19.8615   25.2079 H   0  0  0  0  0  0  0  0  0  0  0  0
   18.8129   18.5063   26.6088 C   0  0  0  0  0  0  0  0  0  0  0  0
   17.9623   18.4841   27.3030 H   0  0  0  0  0  0  0  0  0  0  0  0
   19.2412   17.4950   26.6037 H   0  0  0  0  0  0  0  0  0  0  0  0
   19.8599   19.5095   27.1276 C   0  0  0  0  0  0  0  0  0  0  0  0
   19.4334   20.5162   27.1339 H   0  0  0  0  0  0  0  0  0  0  0  0
   20.7322   19.5086   26.4690 H   0  0  0  0  0  0  0  0  0  0  0  0
   20.3370   19.1950   28.5307 N   0  3  0  0  0  0  0  0  0  0  0  0
   19.5668   19.2073   29.2076 H   0  0  0  0  0  0  0  0  0  0  0  0
   21.0331   19.8741   28.8576 H   0  0  0  0  0  0  0  0  0  0  0  0
   20.7736   18.2689   28.5868 H   0  0  0  0  0  0  0  0  0  0  0  0
  1  2  1  0  0  0  0
  1  3  1  0  0  0  0
  1  4  1  0  0  0  0
  1  5  1  0  0  0  0
  5  6  1  0  0  0  0
  5  7  1  0  0  0  0
  5  8  1  0  0  0  0
  8  9  1  0  0  0  0
  8 10  1  0  0  0  0
  8 11  1  0  0  0  0
 11 12  1  0  0  0  0
 11 13  1  0  0  0  0
 11 14  1  0  0  0  0
 14 15  1  0  0  0  0
 14 16  1  0  0  0  0
 14 17  1  0  0  0  0
 17 18  1  0  0  0  0
 17 19  1  0  0  0  0
 17 20  1  0  0  0  0
 20 21  1  0  0  0  0
 20 22  1  0  0  0  0
 20 23  1  0  0  0  0
 23 24  1  0  0  0  0
 23 25  1  0  0  0  0
 23 26  1  0  0  0  0
 26 27  1  0  0  0  0
 26 28  1  0  0  0  0
 26 29  1  0  0  0  0
M  END
> <VM2 Rank>
5

> <Conf_Id>
34

> <Probability>
2.19

> <Sum Probability>
16.41

> <Delta G>
0.516

> <G>
58.663

> <E>
21.380

> <-TS>
37.283

> <U+W>
-2.765

> <U>
48.481

> <W>
-51.246

> <W(PB)>
-53.778

> <W(SA)>
2.532

> <Valence>
2.887

> <Coulomb>
44.809

> <VdW>
0.786

> <VdW6>
-7.506

> <VdW12>
8.292

> <Bond>
0.167

> <Angle>
0.525

> <Pdih>
2.195

> <Idih>
0.000

> <Tether>
0.000

$$$$
VeraChem MOL file


 29 28  0  0  0  0  0  0  0  0999 V2000     
   18.9503   18.2471   19.5329 C   0  0  0  0  0  0  0  0  0  0  0  0
   19.6607   17.4105   19.5504 H   0  0  0  0  0  0  0  0  0  0  0  0
   18.1069   17.9965   20.1882 H   0  0  0  0  0  0  0  0  0  0  0  0
   18.5592   18.3343   18.5109 H   0  0  0  0  0  0  0  0  0  0  0  0
   19.6327   19.5648   19.9648 C   0  0  0  0  0  0  0  0  0  0  0  0
   18.8950   20.3793   19.9681 H   0  0  0  0  0  0  0  0  0  0  0  0
   20.3868   19.8359   19.2127 H   0  0  0  0  0  0  0  0  0  0  0  0
   20.3209   19.4763   21.3483 C   0  0  0  0  0  0  0  0  0  0  0  0
   21.0716   18.6741   21.3338 H   0  0  0  0  0  0  0  0  0  0  0  0
   20.8707   20.4112   21.5245 H   0  0  0  0  0  0  0  0  0  0  0  0
   19.3316   19.2444   22.5153 C   0  0  0  0  0  0  0  0  0  0  0  0
   18.8253   18.2784   22.3896 H   0  0  0  0  0  0  0  0  0  0  0  0
   18.5525   20.0189   22.4950 H   0  0  0  0  0  0  0  0  0  0  0  0
   20.0459   19.2668   23.8855 C   0  0  0  0  0  0  0  0  0  0  0  0
   20.8277   18.4947   23.9037 H   0  0  0  0  0  0  0  0  0  0  0  0
   20.5504   20.2336   24.0209 H   0  0  0  0  0  0  0  0  0  0  0  0
   19.0602   19.0314   25.0522 C   0  0  0  0  0  0  0  0  0  0  0  0
   18.5559   18.0642   24.9180 H   0  0  0  0  0  0  0  0  0  0  0  0
   18.2779   19.8030   25.0338 H   0  0  0  0  0  0  0  0  0  0  0  0
   19.7734   19.0541   26.4219 C   0  0  0  0  0  0  0  0  0  0  0  0
   20.5527   18.2807   26.4461 H   0  0  0  0  0  0  0  0  0  0  0  0
   20.2743   20.0213   26.5622 H   0  0  0  0  0  0  0  0  0  0  0  0
   18.7831   18.8188   27.5759 C   0  0  0  0  0  0  0  0  0  0  0  0
   18.2940   17.8492   27.4495 H   0  0  0  0  0  0  0  0  0  0  0  0
   18.0144   19.5963   27.5658 H   0  0  0  0  0  0  0  0  0  0  0  0
   19.4458   18.8342   28.9382 N   0  3  0  0  0  0  0  0  0  0  0  0
   20.1629   18.1060   29.0223 H   0  0  0  0  0  0  0  0  0  0  0  0
   18.7689   18.6757   29.6928 H   0  0  0  0  0  0  0  0  0  0  0  0
   19.9028   19.7318   29.1305 H   0  0  0  0  0  0  0  0  0  0  0  0
  1  2  1  0  0  0  0
  1  3  1  0  0  0  0
  1  4  1  0  0  0  0
  1  5  1  0  0  0  0
  5  6  1  0  0  0  0
  5  7  1  0  0  0  0
  5  8  1  0  0  0  0
  8  9  1  0  0  0  0
  8 10  1  0  0  0  0
  8 11  1  0  0  0  0
 11 12  1  0  0  0  0
 11 13  1  0  0  0  0
 11 14  1  0  0  0  0
 14 15  1  0  0  0  0
 14 16  1  0  0  0  0
 14 17  1  0  0  0  0
 17 18  1  0  0  0  0
 17 19  1  0  0  0  0
 17 20  1  0  0  0  0
 20 21  1  0  0  0  0
 20 22  1  0  0  0  0
 20 23  1  0  0  0  0
 23 24  1  0  0  0  0
 23 25  1  0  0  0  0
 23 26  1  0  0  0  0
 26 27  1  0  0  0  0
 26 28  1  0  0  0  0
 26 29  1  0  0  0  0
M  END
> <VM2 Rank>
6

> <Conf_Id>
2534

> <Probability>
1.77

> <Sum Probability>
18.18

> <Delta G>
0.645

> <G>
58.791

> <E>
21.496

> <-TS>
37.295

> <U+W>
-2.648

> <U>
48.301

> <W>
-50.949

> <W(PB)>
-53.521

> <W(SA)>
2.572

> <Valence>
3.090

> <Coulomb>
44.344

> <VdW>
0.866

> <VdW6>
-7.521

> <VdW12>
8.387

> <Bond>
0.180

> <Angle>
0.641

> <Pdih>
2.270

> <Idih>
0.000

> <Tether>
0.000

$$$$
VeraChem MOL file


 29 28  0  0  0  0  0  0  0  0999 V2000     
   19.6446   20.1991   19.5767 C   0  0  0  0  0  0  0  0  0  0  0  0
   19.1394   20.8995   20.2532 H   0  0  0  0  0  0  0  0  0  0  0  0
   20.7234   20.3980   19.6176 H   0  0  0  0  0  0  0  0  0  0  0  0
   19.3011   20.4190   18.5576 H   0  0  0  0  0  0  0  0  0  0  0  0
   19.3361   18.7305   19.9461 C   0  0  0  0  0  0  0  0  0  0  0  0
   19.7604   18.0744   19.1733 H   0  0  0  0  0  0  0  0  0  0  0  0
   18.2498   18.5650   19.9274 H   0  0  0  0  0  0  0  0  0  0  0  0
   19.9059   18.3096   21.3222 C   0  0  0  0  0  0  0  0  0  0  0  0
   19.7396   17.2315   21.4533 H   0  0  0  0  0  0  0  0  0  0  0  0
   20.9946   18.4576   21.3291 H   0  0  0  0  0  0  0  0  0  0  0  0
   19.2685   19.0674   22.5114 C   0  0  0  0  0  0  0  0  0  0  0  0
   18.1758   18.9602   22.4712 H   0  0  0  0  0  0  0  0  0  0  0  0
   19.4875   20.1403   22.4313 H   0  0  0  0  0  0  0  0  0  0  0  0
   19.7890   18.5448   23.8694 C   0  0  0  0  0  0  0  0  0  0  0  0
   19.5679   17.4722   23.9592 H   0  0  0  0  0  0  0  0  0  0  0  0
   20.8823   18.6486   23.9072 H   0  0  0  0  0  0  0  0  0  0  0  0
   19.1568   19.3032   25.0582 C   0  0  0  0  0  0  0  0  0  0  0  0
   18.0633   19.2001   25.0204 H   0  0  0  0  0  0  0  0  0  0  0  0
   19.3782   20.3760   24.9696 H   0  0  0  0  0  0  0  0  0  0  0  0
   19.6762   18.7812   26.4158 C   0  0  0  0  0  0  0  0  0  0  0  0
   19.4520   17.7103   26.5107 H   0  0  0  0  0  0  0  0  0  0  0  0
   20.7684   18.8872   26.4595 H   0  0  0  0  0  0  0  0  0  0  0  0
   19.0408   19.5430   27.5921 C   0  0  0  0  0  0  0  0  0  0  0  0
   17.9541   19.4266   27.5622 H   0  0  0  0  0  0  0  0  0  0  0  0
   19.2755   20.6079   27.5109 H   0  0  0  0  0  0  0  0  0  0  0  0
   19.5259   19.0590   28.9432 N   0  3  0  0  0  0  0  0  0  0  0  0
   19.3109   18.0677   29.0935 H   0  0  0  0  0  0  0  0  0  0  0  0
   19.0907   19.5794   29.7130 H   0  0  0  0  0  0  0  0  0  0  0  0
   20.5405   19.1669   29.0458 H   0  0  0  0  0  0  0  0  0  0  0  0
  1  2  1  0  0  0  0
  1  3  1  0  0  0  0
  1  4  1  0  0  0  0
  1  5  1  0  0  0  0
  5  6  1  0  0  0  0
  5  7  1  0  0  0  0
  5  8  1  0  0  0  0
  8  9  1  0  0  0  0
  8 10  1  0  0  0  0
  8 11  1  0  0  0  0
 11 12  1  0  0  0  0
 11 13  1  0  0  0  0
 11 14  1  0  0  0  0
 14 15  1  0  0  0  0
 14 16  1  0  0  0  0
 14 17  1  0  0  0  0
 17 18  1  0  0  0  0
 17 19  1  0  0  0  0
 17 20  1  0  0  0  0
 20 21  1  0  0  0  0
 20 22  1  0  0  0  0
 20 23  1  0  0  0  0
 23 24  1  0  0  0  0
 23 25  1  0  0  0  0
 23 26  1  0  0  0  0
 26 27  1  0  0  0  0
 26 28  1  0  0  0  0
 26 29  1  0  0  0  0
M  END
> <VM2 Rank>
7

> <Conf_Id>
1275

> <Probability>
1.76

> <Sum Probability>
19.94

> <Delta G>
0.648

> <G>
58.795

> <E>
21.500

> <-TS>
37.295

> <U+W>
-2.645

> <U>
48.301

> <W>
-50.945

> <W(PB)>
-53.510

> <W(SA)>
2.565

> <Valence>
3.090

> <Coulomb>
44.344

> <VdW>
0.866

> <VdW6>
-7.521

> <VdW12>
8.387

> <Bond>
0.180

> <Angle>
0.641

> <Pdih>
2.270

> <Idih>
0.000

> <Tether>
0.000

$$$$
VeraChem MOL file


 29 28  0  0  0  0  0  0  0  0999 V2000     
   19.8154   17.8220   19.5013 C   0  0  0  0  0  0  0  0  0  0  0  0
   19.4935   17.8599   18.4525 H   0  0  0  0  0  0  0  0  0  0  0  0
   20.9124   17.7803   19.5159 H   0  0  0  0  0  0  0  0  0  0  0  0
   19.4319   16.8907   19.9381 H   0  0  0  0  0  0  0  0  0  0  0  0
   19.2970   19.0525   20.2752 C   0  0  0  0  0  0  0  0  0  0  0  0
   18.2001   19.0856   20.2152 H   0  0  0  0  0  0  0  0  0  0  0  0
   19.6688   19.9682   19.7945 H   0  0  0  0  0  0  0  0  0  0  0  0
   19.7372   19.0242   21.7556 C   0  0  0  0  0  0  0  0  0  0  0  0
   19.3678   18.1011   22.2208 H   0  0  0  0  0  0  0  0  0  0  0  0
   20.8342   18.9935   21.8105 H   0  0  0  0  0  0  0  0  0  0  0  0
   19.2142   20.2556   22.5336 C   0  0  0  0  0  0  0  0  0  0  0  0
   18.1154   20.2588   22.5275 H   0  0  0  0  0  0  0  0  0  0  0  0
   19.5280   21.1689   22.0095 H   0  0  0  0  0  0  0  0  0  0  0  0
   19.7249   20.3291   23.9935 C   0  0  0  0  0  0  0  0  0  0  0  0
   20.8235   20.3424   23.9984 H   0  0  0  0  0  0  0  0  0  0  0  0
   19.4029   21.2865   24.4261 H   0  0  0  0  0  0  0  0  0  0  0  0
   19.2121   19.1746   24.8876 C   0  0  0  0  0  0  0  0  0  0  0  0
   19.5900   18.2137   24.5141 H   0  0  0  0  0  0  0  0  0  0  0  0
   18.1154   19.1288   24.8361 H   0  0  0  0  0  0  0  0  0  0  0  0
   19.6509   19.3502   26.3580 C   0  0  0  0  0  0  0  0  0  0  0  0
   20.7468   19.3954   26.4137 H   0  0  0  0  0  0  0  0  0  0  0  0
   19.2685   20.3032   26.7474 H   0  0  0  0  0  0  0  0  0  0  0  0
   19.1408   18.1966   27.2392 C   0  0  0  0  0  0  0  0  0  0  0  0
   19.5328   17.2467   26.8657 H   0  0  0  0  0  0  0  0  0  0  0  0
   18.0488   18.1579   27.1995 H   0  0  0  0  0  0  0  0  0  0  0  0
   19.5514   18.3333   28.6910 N   0  3  0  0  0  0  0  0  0  0  0  0
   19.2016   17.5549   29.2607 H   0  0  0  0  0  0  0  0  0  0  0  0
   19.1900   19.1964   29.1104 H   0  0  0  0  0  0  0  0  0  0  0  0
   20.5710   18.3485   28.7997 H   0  0  0  0  0  0  0  0  0  0  0  0
  1  2  1  0  0  0  0
  1  3  1  0  0  0  0
  1  4  1  0  0  0  0
  1  5  1  0  0  0  0
  5  6  1  0  0  0  0
  5  7  1  0  0  0  0
  5  8  1  0  0  0  0
  8  9  1  0  0  0  0
  8 10  1  0  0  0  0
  8 11  1  0  0  0  0
 11 12  1  0  0  0  0
 11 13  1  0  0  0  0
 11 14  1  0  0  0  0
 14 15  1  0  0  0  0
 14 16  1  0  0  0  0
 14 17  1  0  0  0  0
 17 18  1  0  0  0  0
 17 19  1  0  0  0  0
 17 20  1  0  0  0  0
 20 21  1  0  0  0  0
 20 22  1  0  0  0  0
 20 23  1  0  0  0  0
 23 24  1  0  0  0  0
 23 25  1  0  0  0  0
 23 26  1  0  0  0  0
 26 27  1  0  0  0  0
 26 28  1  0  0  0  0
 26 29  1  0  0  0  0
M  END
> <VM2 Rank>
8

> <Conf_Id>
2217

> <Probability>
1.69

> <Sum Probability>
21.62

> <Delta G>
0.672

> <G>
58.819

> <E>
21.534

> <-TS>
37.285

> <U+W>
-2.610

> <U>
48.554

> <W>
-51.164

> <W(PB)>
-53.731

> <W(SA)>
2.567

> <Valence>
3.126

> <Coulomb>
44.585

> <VdW>
0.842

> <VdW6>
-7.593

> <VdW12>
8.435

> <Bond>
0.185

> <Angle>
0.660

> <Pdih>
2.281

> <Idih>
0.000

> <Tether>
0.000

$$$$
