VeraChem MOL file


 17 16  0  0  0  0  0  0  0  0999 V2000     
   19.7724   19.0787   25.2791 C   0  0  0  0  0  0  0  0  0  0  0  0
   19.3187   19.9200   26.0302 O   0  5  0  0  0  0  0  0  0  0  0  0
   20.4467   18.1426   25.6657 O   0  0  0  0  0  0  0  0  0  0  0  0
   19.4751   19.2204   23.8280 C   0  0  0  0  0  0  0  0  0  0  0  0
   18.8675   20.0784   23.5496 H   0  0  0  0  0  0  0  0  0  0  0  0
   19.9149   18.3608   22.8811 C   0  0  0  0  0  0  0  0  0  0  0  0
   20.5264   17.4992   23.1486 H   0  0  0  0  0  0  0  0  0  0  0  0
   19.6099   18.5135   21.4070 C   0  0  0  0  0  0  0  0  0  0  0  0
   18.5800   18.8707   21.2716 H   0  0  0  0  0  0  0  0  0  0  0  0
   19.6675   17.5326   20.9160 H   0  0  0  0  0  0  0  0  0  0  0  0
   20.5928   19.4891   20.7279 C   0  0  0  0  0  0  0  0  0  0  0  0
   20.5334   20.4722   21.2153 H   0  0  0  0  0  0  0  0  0  0  0  0
   21.6220   19.1286   20.8629 H   0  0  0  0  0  0  0  0  0  0  0  0
   20.2944   19.6430   19.2230 C   0  0  0  0  0  0  0  0  0  0  0  0
   21.0032   20.3403   18.7575 H   0  0  0  0  0  0  0  0  0  0  0  0
   20.3784   18.6785   18.7051 H   0  0  0  0  0  0  0  0  0  0  0  0
   19.2806   20.0320   19.0612 H   0  0  0  0  0  0  0  0  0  0  0  0
  1  2  1  0  0  0  0
  1  3  2  0  0  0  0
  1  4  1  0  0  0  0
  4  5  1  0  0  0  0
  4  6  2  0  0  0  0
  6  7  1  0  0  0  0
  6  8  1  0  0  0  0
  8  9  1  0  0  0  0
  8 10  1  0  0  0  0
  8 11  1  0  0  0  0
 11 12  1  0  0  0  0
 11 13  1  0  0  0  0
 11 14  1  0  0  0  0
 14 15  1  0  0  0  0
 14 16  1  0  0  0  0
 14 17  1  0  0  0  0
M  END
> <VM2 Rank>
1

> <Conf_Id>
78

> <Probability>
31.65

> <Sum Probability>
31.65

> <Delta G>
0.000

> <G>
-29.184

> <E>
-40.004

> <-TS>
10.820

> <U+W>
-53.418

> <U>
9.048

> <W>
-62.462

> <W(PB)>
-64.544

> <W(SA)>
2.082

> <Valence>
2.652

> <Coulomb>
5.579

> <VdW>
0.818

> <VdW6>
-4.535

> <VdW12>
5.352

> <Bond>
0.063

> <Angle>
2.579

> <Pdih>
0.010

> <Idih>
0.000

> <Tether>
0.000

$$$$
VeraChem MOL file


 17 16  0  0  0  0  0  0  0  0999 V2000     
   19.6587   19.0431   25.2682 C   0  0  0  0  0  0  0  0  0  0  0  0
   19.4178   19.9508   26.0400 O   0  5  0  0  0  0  0  0  0  0  0  0
   19.5761   17.8703   25.5813 O   0  0  0  0  0  0  0  0  0  0  0  0
   20.0724   19.4073   23.8860 C   0  0  0  0  0  0  0  0  0  0  0  0
   20.1265   20.4723   23.6719 H   0  0  0  0  0  0  0  0  0  0  0  0
   20.3693   18.5031   22.9251 C   0  0  0  0  0  0  0  0  0  0  0  0
   20.3163   17.4337   23.1282 H   0  0  0  0  0  0  0  0  0  0  0  0
   20.7875   18.8820   21.5213 C   0  0  0  0  0  0  0  0  0  0  0  0
   21.3816   18.0691   21.0824 H   0  0  0  0  0  0  0  0  0  0  0  0
   21.4395   19.7657   21.5492 H   0  0  0  0  0  0  0  0  0  0  0  0
   19.5629   19.1667   20.6278 C   0  0  0  0  0  0  0  0  0  0  0  0
   18.9134   18.2808   20.5997 H   0  0  0  0  0  0  0  0  0  0  0  0
   18.9696   19.9827   21.0633 H   0  0  0  0  0  0  0  0  0  0  0  0
   19.9804   19.5446   19.1924 C   0  0  0  0  0  0  0  0  0  0  0  0
   20.5488   18.7318   18.7215 H   0  0  0  0  0  0  0  0  0  0  0  0
   19.0966   19.7435   18.5722 H   0  0  0  0  0  0  0  0  0  0  0  0
   20.6060   20.4469   19.1899 H   0  0  0  0  0  0  0  0  0  0  0  0
  1  2  1  0  0  0  0
  1  3  2  0  0  0  0
  1  4  1  0  0  0  0
  4  5  1  0  0  0  0
  4  6  2  0  0  0  0
  6  7  1  0  0  0  0
  6  8  1  0  0  0  0
  8  9  1  0  0  0  0
  8 10  1  0  0  0  0
  8 11  1  0  0  0  0
 11 12  1  0  0  0  0
 11 13  1  0  0  0  0
 11 14  1  0  0  0  0
 14 15  1  0  0  0  0
 14 16  1  0  0  0  0
 14 17  1  0  0  0  0
M  END
> <VM2 Rank>
2

> <Conf_Id>
166

> <Probability>
29.55

> <Sum Probability>
61.20

> <Delta G>
0.041

> <G>
-29.143

> <E>
-39.962

> <-TS>
10.819

> <U+W>
-53.376

> <U>
9.048

> <W>
-62.424

> <W(PB)>
-64.494

> <W(SA)>
2.070

> <Valence>
2.652

> <Coulomb>
5.578

> <VdW>
0.818

> <VdW6>
-4.534

> <VdW12>
5.352

> <Bond>
0.063

> <Angle>
2.579

> <Pdih>
0.010

> <Idih>
0.000

> <Tether>
0.000

$$$$
VeraChem MOL file


 17 16  0  0  0  0  0  0  0  0999 V2000     
   19.6120   18.9988   25.1047 C   0  0  0  0  0  0  0  0  0  0  0  0
   20.0487   20.0912   25.4152 O   0  5  0  0  0  0  0  0  0  0  0  0
   18.9313   18.3236   25.8521 O   0  0  0  0  0  0  0  0  0  0  0  0
   19.9134   18.4419   23.7582 C   0  0  0  0  0  0  0  0  0  0  0  0
   19.4937   17.4615   23.5452 H   0  0  0  0  0  0  0  0  0  0  0  0
   20.6554   19.0825   22.8266 C   0  0  0  0  0  0  0  0  0  0  0  0
   21.0780   20.0666   23.0283 H   0  0  0  0  0  0  0  0  0  0  0  0
   20.9548   18.5110   21.4566 C   0  0  0  0  0  0  0  0  0  0  0  0
   21.1695   17.4373   21.5443 H   0  0  0  0  0  0  0  0  0  0  0  0
   21.8647   18.9730   21.0505 H   0  0  0  0  0  0  0  0  0  0  0  0
   19.7866   18.7145   20.4669 C   0  0  0  0  0  0  0  0  0  0  0  0
   20.0154   18.1908   19.5286 H   0  0  0  0  0  0  0  0  0  0  0  0
   18.8748   18.2523   20.8700 H   0  0  0  0  0  0  0  0  0  0  0  0
   19.5228   20.2045   20.1616 C   0  0  0  0  0  0  0  0  0  0  0  0
   19.2322   20.7493   21.0693 H   0  0  0  0  0  0  0  0  0  0  0  0
   20.4180   20.6845   19.7454 H   0  0  0  0  0  0  0  0  0  0  0  0
   18.7105   20.3107   19.4310 H   0  0  0  0  0  0  0  0  0  0  0  0
  1  2  1  0  0  0  0
  1  3  2  0  0  0  0
  1  4  1  0  0  0  0
  4  5  1  0  0  0  0
  4  6  2  0  0  0  0
  6  7  1  0  0  0  0
  6  8  1  0  0  0  0
  8  9  1  0  0  0  0
  8 10  1  0  0  0  0
  8 11  1  0  0  0  0
 11 12  1  0  0  0  0
 11 13  1  0  0  0  0
 11 14  1  0  0  0  0
 14 15  1  0  0  0  0
 14 16  1  0  0  0  0
 14 17  1  0  0  0  0
M  END
> <VM2 Rank>
3

> <Conf_Id>
90

> <Probability>
9.88

> <Sum Probability>
71.08

> <Delta G>
0.694

> <G>
-28.490

> <E>
-39.464

> <-TS>
10.974

> <U+W>
-52.878

> <U>
10.067

> <W>
-62.945

> <W(PB)>
-64.982

> <W(SA)>
2.037

> <Valence>
2.779

> <Coulomb>
6.473

> <VdW>
0.815

> <VdW6>
-5.087

> <VdW12>
5.902

> <Bond>
0.078

> <Angle>
2.651

> <Pdih>
0.050

> <Idih>
0.000

> <Tether>
0.000

$$$$
VeraChem MOL file


 17 16  0  0  0  0  0  0  0  0999 V2000     
   19.5814   19.0520   25.1001 C   0  0  0  0  0  0  0  0  0  0  0  0
   19.6101   19.8934   25.9770 O   0  5  0  0  0  0  0  0  0  0  0  0
   18.9772   18.0018   25.2120 O   0  0  0  0  0  0  0  0  0  0  0  0
   20.3282   19.3406   23.8459 C   0  0  0  0  0  0  0  0  0  0  0  0
   20.8470   20.2958   23.8114 H   0  0  0  0  0  0  0  0  0  0  0  0
   20.3820   18.4975   22.7898 C   0  0  0  0  0  0  0  0  0  0  0  0
   19.8633   17.5394   22.8124 H   0  0  0  0  0  0  0  0  0  0  0  0
   21.1414   18.7997   21.5150 C   0  0  0  0  0  0  0  0  0  0  0  0
   21.3883   17.8631   20.9972 H   0  0  0  0  0  0  0  0  0  0  0  0
   22.1003   19.2753   21.7615 H   0  0  0  0  0  0  0  0  0  0  0  0
   20.3485   19.7223   20.5634 C   0  0  0  0  0  0  0  0  0  0  0  0
   20.1009   20.6609   21.0784 H   0  0  0  0  0  0  0  0  0  0  0  0
   20.9861   19.9914   19.7101 H   0  0  0  0  0  0  0  0  0  0  0  0
   19.0563   19.0607   20.0388 C   0  0  0  0  0  0  0  0  0  0  0  0
   18.3666   18.8312   20.8615 H   0  0  0  0  0  0  0  0  0  0  0  0
   18.5363   19.7296   19.3407 H   0  0  0  0  0  0  0  0  0  0  0  0
   19.2809   18.1260   19.5088 H   0  0  0  0  0  0  0  0  0  0  0  0
  1  2  1  0  0  0  0
  1  3  2  0  0  0  0
  1  4  1  0  0  0  0
  4  5  1  0  0  0  0
  4  6  2  0  0  0  0
  6  7  1  0  0  0  0
  6  8  1  0  0  0  0
  8  9  1  0  0  0  0
  8 10  1  0  0  0  0
  8 11  1  0  0  0  0
 11 12  1  0  0  0  0
 11 13  1  0  0  0  0
 11 14  1  0  0  0  0
 14 15  1  0  0  0  0
 14 16  1  0  0  0  0
 14 17  1  0  0  0  0
M  END
> <VM2 Rank>
4

> <Conf_Id>
54

> <Probability>
9.86

> <Sum Probability>
80.94

> <Delta G>
0.695

> <G>
-28.489

> <E>
-39.461

> <-TS>
10.972

> <U+W>
-52.874

> <U>
10.067

> <W>
-62.942

> <W(PB)>
-64.976

> <W(SA)>
2.034

> <Valence>
2.779

> <Coulomb>
6.474

> <VdW>
0.815

> <VdW6>
-5.087

> <VdW12>
5.902

> <Bond>
0.078

> <Angle>
2.651

> <Pdih>
0.050

> <Idih>
0.000

> <Tether>
0.000

$$$$
VeraChem MOL file


 17 16  0  0  0  0  0  0  0  0999 V2000     
   19.5892   19.1221   25.0684 C   0  0  0  0  0  0  0  0  0  0  0  0
   19.4555   20.0594   25.8309 O   0  5  0  0  0  0  0  0  0  0  0  0
   19.2059   17.9975   25.3308 O   0  0  0  0  0  0  0  0  0  0  0  0
   20.2569   19.3861   23.7651 C   0  0  0  0  0  0  0  0  0  0  0  0
   20.5748   20.4121   23.5948 H   0  0  0  0  0  0  0  0  0  0  0  0
   20.4700   18.4400   22.8223 C   0  0  0  0  0  0  0  0  0  0  0  0
   20.1515   17.4103   22.9834 H   0  0  0  0  0  0  0  0  0  0  0  0
   21.1478   18.7124   21.4954 C   0  0  0  0  0  0  0  0  0  0  0  0
   21.8974   17.9318   21.3090 H   0  0  0  0  0  0  0  0  0  0  0  0
   21.6984   19.6623   21.5305 H   0  0  0  0  0  0  0  0  0  0  0  0
   20.1465   18.7362   20.3197 C   0  0  0  0  0  0  0  0  0  0  0  0
   20.7039   18.8089   19.3756 H   0  0  0  0  0  0  0  0  0  0  0  0
   19.5935   17.7873   20.2854 H   0  0  0  0  0  0  0  0  0  0  0  0
   19.1532   19.9144   20.4093 C   0  0  0  0  0  0  0  0  0  0  0  0
   19.6846   20.8745   20.4371 H   0  0  0  0  0  0  0  0  0  0  0  0
   18.4840   19.9221   19.5393 H   0  0  0  0  0  0  0  0  0  0  0  0
   18.5316   19.8407   21.3111 H   0  0  0  0  0  0  0  0  0  0  0  0
  1  2  1  0  0  0  0
  1  3  2  0  0  0  0
  1  4  1  0  0  0  0
  4  5  1  0  0  0  0
  4  6  2  0  0  0  0
  6  7  1  0  0  0  0
  6  8  1  0  0  0  0
  8  9  1  0  0  0  0
  8 10  1  0  0  0  0
  8 11  1  0  0  0  0
 11 12  1  0  0  0  0
 11 13  1  0  0  0  0
 11 14  1  0  0  0  0
 14 15  1  0  0  0  0
 14 16  1  0  0  0  0
 14 17  1  0  0  0  0
M  END
> <VM2 Rank>
5

> <Conf_Id>
164

> <Probability>
9.53

> <Sum Probability>
90.47

> <Delta G>
0.715

> <G>
-28.468

> <E>
-39.436

> <-TS>
10.967

> <U+W>
-52.849

> <U>
10.243

> <W>
-63.092

> <W(PB)>
-65.138

> <W(SA)>
2.046

> <Valence>
2.822

> <Coulomb>
6.636

> <VdW>
0.785

> <VdW6>
-5.214

> <VdW12>
6.000

> <Bond>
0.080

> <Angle>
2.678

> <Pdih>
0.064

> <Idih>
0.000

> <Tether>
0.000

$$$$
VeraChem MOL file


 17 16  0  0  0  0  0  0  0  0999 V2000     
   19.8302   19.1916   25.0913 C   0  0  0  0  0  0  0  0  0  0  0  0
   19.3134   20.0188   25.8169 O   0  5  0  0  0  0  0  0  0  0  0  0
   20.6962   18.4271   25.4734 O   0  0  0  0  0  0  0  0  0  0  0  0
   19.3643   19.1287   23.6796 C   0  0  0  0  0  0  0  0  0  0  0  0
   18.5887   19.8396   23.4044 H   0  0  0  0  0  0  0  0  0  0  0  0
   19.8516   18.2613   22.7632 C   0  0  0  0  0  0  0  0  0  0  0  0
   20.6313   17.5481   23.0295 H   0  0  0  0  0  0  0  0  0  0  0  0
   19.3772   18.2015   21.3259 C   0  0  0  0  0  0  0  0  0  0  0  0
   18.4118   18.7140   21.2160 H   0  0  0  0  0  0  0  0  0  0  0  0
   19.1994   17.1533   21.0505 H   0  0  0  0  0  0  0  0  0  0  0  0
   20.4025   18.8102   20.3444 C   0  0  0  0  0  0  0  0  0  0  0  0
   21.3693   18.2997   20.4556 H   0  0  0  0  0  0  0  0  0  0  0  0
   20.0666   18.6253   19.3148 H   0  0  0  0  0  0  0  0  0  0  0  0
   20.5897   20.3289   20.5473 C   0  0  0  0  0  0  0  0  0  0  0  0
   21.2941   20.7331   19.8088 H   0  0  0  0  0  0  0  0  0  0  0  0
   19.6361   20.8607   20.4329 H   0  0  0  0  0  0  0  0  0  0  0  0
   20.9869   20.5492   21.5466 H   0  0  0  0  0  0  0  0  0  0  0  0
  1  2  1  0  0  0  0
  1  3  2  0  0  0  0
  1  4  1  0  0  0  0
  4  5  1  0  0  0  0
  4  6  2  0  0  0  0
  6  7  1  0  0  0  0
  6  8  1  0  0  0  0
  8  9  1  0  0  0  0
  8 10  1  0  0  0  0
  8 11  1  0  0  0  0
 11 12  1  0  0  0  0
 11 13  1  0  0  0  0
 11 14  1  0  0  0  0
 14 15  1  0  0  0  0
 14 16  1  0  0  0  0
 14 17  1  0  0  0  0
M  END
> <VM2 Rank>
6

> <Conf_Id>
171

> <Probability>
9.53

> <Sum Probability>
100.00

> <Delta G>
0.716

> <G>
-28.468

> <E>
-39.437

> <-TS>
10.969

> <U+W>
-52.851

> <U>
10.243

> <W>
-63.094

> <W(PB)>
-65.120

> <W(SA)>
2.026

> <Valence>
2.822

> <Coulomb>
6.636

> <VdW>
0.785

> <VdW6>
-5.215

> <VdW12>
6.000

> <Bond>
0.080

> <Angle>
2.678

> <Pdih>
0.064

> <Idih>
0.000

> <Tether>
0.000

$$$$
