VeraChem MOL file


 17 16  0  0  0  0  0  0  0  0999 V2000     
   19.7724   19.0787   25.2791 C   0  0  0  0  0  0  0  0  0  0  0  0
   19.3188   19.9200   26.0302 O   0  5  0  0  0  0  0  0  0  0  0  0
   20.4467   18.1426   25.6657 O   0  0  0  0  0  0  0  0  0  0  0  0
   19.4751   19.2205   23.8280 C   0  0  0  0  0  0  0  0  0  0  0  0
   18.8676   20.0786   23.5497 H   0  0  0  0  0  0  0  0  0  0  0  0
   19.9149   18.3608   22.8811 C   0  0  0  0  0  0  0  0  0  0  0  0
   20.5261   17.4991   23.1486 H   0  0  0  0  0  0  0  0  0  0  0  0
   19.6099   18.5135   21.4070 C   0  0  0  0  0  0  0  0  0  0  0  0
   18.5799   18.8709   21.2716 H   0  0  0  0  0  0  0  0  0  0  0  0
   19.6673   17.5327   20.9160 H   0  0  0  0  0  0  0  0  0  0  0  0
   20.5929   19.4890   20.7279 C   0  0  0  0  0  0  0  0  0  0  0  0
   20.5337   20.4721   21.2154 H   0  0  0  0  0  0  0  0  0  0  0  0
   21.6221   19.1283   20.8628 H   0  0  0  0  0  0  0  0  0  0  0  0
   20.2944   19.6430   19.2230 C   0  0  0  0  0  0  0  0  0  0  0  0
   21.0034   20.3401   18.7575 H   0  0  0  0  0  0  0  0  0  0  0  0
   20.3780   18.6785   18.7050 H   0  0  0  0  0  0  0  0  0  0  0  0
   19.2807   20.0324   19.0614 H   0  0  0  0  0  0  0  0  0  0  0  0
  1  2  1  0  0  0  0
  1  3  2  0  0  0  0
  1  4  1  0  0  0  0
  4  5  1  0  0  0  0
  4  6  2  0  0  0  0
  6  7  1  0  0  0  0
  6  8  1  0  0  0  0
  8  9  1  0  0  0  0
  8 10  1  0  0  0  0
  8 11  1  0  0  0  0
 11 12  1  0  0  0  0
 11 13  1  0  0  0  0
 11 14  1  0  0  0  0
 14 15  1  0  0  0  0
 14 16  1  0  0  0  0
 14 17  1  0  0  0  0
M  END
> <VM2 Rank>
1

> <Conf_Id>
117

> <Probability>
31.62

> <Sum Probability>
31.62

> <Delta G>
0.000

> <G>
-29.182

> <E>
-40.002

> <-TS>
10.820

> <U+W>
-53.415

> <U>
9.048

> <W>
-62.461

> <W(PB)>
-64.543

> <W(SA)>
2.082

> <Valence>
2.652

> <Coulomb>
5.579

> <VdW>
0.818

> <VdW6>
-4.535

> <VdW12>
5.352

> <Bond>
0.063

> <Angle>
2.579

> <Pdih>
0.010

> <Idih>
0.000

> <Tether>
0.000

$$$$
VeraChem MOL file


 17 16  0  0  0  0  0  0  0  0999 V2000     
   19.9275   18.8981   25.2799 C   0  0  0  0  0  0  0  0  0  0  0  0
   19.1015   19.7071   25.6588 O   0  5  0  0  0  0  0  0  0  0  0  0
   20.6880   18.3273   26.0373 O   0  0  0  0  0  0  0  0  0  0  0  0
   20.0296   18.5757   23.8309 C   0  0  0  0  0  0  0  0  0  0  0  0
   20.7880   17.8449   23.5595 H   0  0  0  0  0  0  0  0  0  0  0  0
   19.2498   19.1346   22.8776 C   0  0  0  0  0  0  0  0  0  0  0  0
   18.4883   19.8695   23.1381 H   0  0  0  0  0  0  0  0  0  0  0  0
   19.3614   18.8026   21.4057 C   0  0  0  0  0  0  0  0  0  0  0  0
   18.4025   19.0043   20.9094 H   0  0  0  0  0  0  0  0  0  0  0  0
   19.5604   17.7299   21.2767 H   0  0  0  0  0  0  0  0  0  0  0  0
   20.4766   19.6242   20.7273 C   0  0  0  0  0  0  0  0  0  0  0  0
   20.2742   20.6966   20.8559 H   0  0  0  0  0  0  0  0  0  0  0  0
   21.4375   19.4203   21.2200 H   0  0  0  0  0  0  0  0  0  0  0  0
   20.5906   19.2984   19.2245 C   0  0  0  0  0  0  0  0  0  0  0  0
   19.6519   19.5235   18.7013 H   0  0  0  0  0  0  0  0  0  0  0  0
   21.3884   19.8919   18.7595 H   0  0  0  0  0  0  0  0  0  0  0  0
   20.8236   18.2367   19.0693 H   0  0  0  0  0  0  0  0  0  0  0  0
  1  2  1  0  0  0  0
  1  3  2  0  0  0  0
  1  4  1  0  0  0  0
  4  5  1  0  0  0  0
  4  6  2  0  0  0  0
  6  7  1  0  0  0  0
  6  8  1  0  0  0  0
  8  9  1  0  0  0  0
  8 10  1  0  0  0  0
  8 11  1  0  0  0  0
 11 12  1  0  0  0  0
 11 13  1  0  0  0  0
 11 14  1  0  0  0  0
 14 15  1  0  0  0  0
 14 16  1  0  0  0  0
 14 17  1  0  0  0  0
M  END
> <VM2 Rank>
2

> <Conf_Id>
40

> <Probability>
29.57

> <Sum Probability>
61.19

> <Delta G>
0.040

> <G>
-29.142

> <E>
-39.965

> <-TS>
10.823

> <U+W>
-53.378

> <U>
9.048

> <W>
-62.426

> <W(PB)>
-64.506

> <W(SA)>
2.080

> <Valence>
2.652

> <Coulomb>
5.578

> <VdW>
0.818

> <VdW6>
-4.535

> <VdW12>
5.352

> <Bond>
0.063

> <Angle>
2.579

> <Pdih>
0.010

> <Idih>
0.000

> <Tether>
0.000

$$$$
VeraChem MOL file


 17 16  0  0  0  0  0  0  0  0999 V2000     
   19.6119   18.9988   25.1046 C   0  0  0  0  0  0  0  0  0  0  0  0
   20.0488   20.0911   25.4153 O   0  5  0  0  0  0  0  0  0  0  0  0
   18.9310   18.3236   25.8518 O   0  0  0  0  0  0  0  0  0  0  0  0
   19.9134   18.4420   23.7581 C   0  0  0  0  0  0  0  0  0  0  0  0
   19.4936   17.4617   23.5448 H   0  0  0  0  0  0  0  0  0  0  0  0
   20.6557   19.0826   22.8266 C   0  0  0  0  0  0  0  0  0  0  0  0
   21.0783   20.0666   23.0285 H   0  0  0  0  0  0  0  0  0  0  0  0
   20.9552   18.5113   21.4566 C   0  0  0  0  0  0  0  0  0  0  0  0
   21.1703   17.4377   21.5442 H   0  0  0  0  0  0  0  0  0  0  0  0
   21.8649   18.9737   21.0505 H   0  0  0  0  0  0  0  0  0  0  0  0
   19.7868   18.7143   20.4670 C   0  0  0  0  0  0  0  0  0  0  0  0
   20.0159   18.1909   19.5286 H   0  0  0  0  0  0  0  0  0  0  0  0
   18.8753   18.2516   20.8701 H   0  0  0  0  0  0  0  0  0  0  0  0
   19.5222   20.2042   20.1620 C   0  0  0  0  0  0  0  0  0  0  0  0
   18.7099   20.3101   19.4313 H   0  0  0  0  0  0  0  0  0  0  0  0
   19.2313   20.7488   21.0697 H   0  0  0  0  0  0  0  0  0  0  0  0
   20.4172   20.6848   19.7459 H   0  0  0  0  0  0  0  0  0  0  0  0
  1  2  1  0  0  0  0
  1  3  2  0  0  0  0
  1  4  1  0  0  0  0
  4  5  1  0  0  0  0
  4  6  2  0  0  0  0
  6  7  1  0  0  0  0
  6  8  1  0  0  0  0
  8  9  1  0  0  0  0
  8 10  1  0  0  0  0
  8 11  1  0  0  0  0
 11 12  1  0  0  0  0
 11 13  1  0  0  0  0
 11 14  1  0  0  0  0
 14 15  1  0  0  0  0
 14 16  1  0  0  0  0
 14 17  1  0  0  0  0
M  END
> <VM2 Rank>
3

> <Conf_Id>
190

> <Probability>
9.91

> <Sum Probability>
71.10

> <Delta G>
0.692

> <G>
-28.490

> <E>
-39.464

> <-TS>
10.974

> <U+W>
-52.878

> <U>
10.067

> <W>
-62.945

> <W(PB)>
-64.982

> <W(SA)>
2.037

> <Valence>
2.779

> <Coulomb>
6.474

> <VdW>
0.815

> <VdW6>
-5.088

> <VdW12>
5.902

> <Bond>
0.078

> <Angle>
2.651

> <Pdih>
0.050

> <Idih>
0.000

> <Tether>
0.000

$$$$
VeraChem MOL file


 17 16  0  0  0  0  0  0  0  0999 V2000     
   19.5814   19.0519   25.1001 C   0  0  0  0  0  0  0  0  0  0  0  0
   19.6101   19.8932   25.9772 O   0  5  0  0  0  0  0  0  0  0  0  0
   18.9771   18.0018   25.2119 O   0  0  0  0  0  0  0  0  0  0  0  0
   20.3283   19.3406   23.8460 C   0  0  0  0  0  0  0  0  0  0  0  0
   20.8472   20.2958   23.8117 H   0  0  0  0  0  0  0  0  0  0  0  0
   20.3820   18.4977   22.7898 C   0  0  0  0  0  0  0  0  0  0  0  0
   19.8632   17.5396   22.8123 H   0  0  0  0  0  0  0  0  0  0  0  0
   21.1414   18.8000   21.5151 C   0  0  0  0  0  0  0  0  0  0  0  0
   21.3887   17.8635   20.9973 H   0  0  0  0  0  0  0  0  0  0  0  0
   22.1002   19.2760   21.7616 H   0  0  0  0  0  0  0  0  0  0  0  0
   20.3483   19.7224   20.5633 C   0  0  0  0  0  0  0  0  0  0  0  0
   20.1004   20.6609   21.0782 H   0  0  0  0  0  0  0  0  0  0  0  0
   20.9859   19.9916   19.7100 H   0  0  0  0  0  0  0  0  0  0  0  0
   19.0564   19.0603   20.0386 C   0  0  0  0  0  0  0  0  0  0  0  0
   18.5363   19.7289   19.3404 H   0  0  0  0  0  0  0  0  0  0  0  0
   19.2814   18.1256   19.5087 H   0  0  0  0  0  0  0  0  0  0  0  0
   18.3667   18.8306   20.8612 H   0  0  0  0  0  0  0  0  0  0  0  0
  1  2  1  0  0  0  0
  1  3  2  0  0  0  0
  1  4  1  0  0  0  0
  4  5  1  0  0  0  0
  4  6  2  0  0  0  0
  6  7  1  0  0  0  0
  6  8  1  0  0  0  0
  8  9  1  0  0  0  0
  8 10  1  0  0  0  0
  8 11  1  0  0  0  0
 11 12  1  0  0  0  0
 11 13  1  0  0  0  0
 11 14  1  0  0  0  0
 14 15  1  0  0  0  0
 14 16  1  0  0  0  0
 14 17  1  0  0  0  0
M  END
> <VM2 Rank>
4

> <Conf_Id>
184

> <Probability>
9.88

> <Sum Probability>
80.98

> <Delta G>
0.693

> <G>
-28.488

> <E>
-39.460

> <-TS>
10.972

> <U+W>
-52.874

> <U>
10.067

> <W>
-62.941

> <W(PB)>
-64.975

> <W(SA)>
2.034

> <Valence>
2.779

> <Coulomb>
6.473

> <VdW>
0.815

> <VdW6>
-5.087

> <VdW12>
5.902

> <Bond>
0.078

> <Angle>
2.651

> <Pdih>
0.050

> <Idih>
0.000

> <Tether>
0.000

$$$$
VeraChem MOL file


 17 16  0  0  0  0  0  0  0  0999 V2000     
   19.8302   19.1916   25.0913 C   0  0  0  0  0  0  0  0  0  0  0  0
   19.3135   20.0189   25.8169 O   0  5  0  0  0  0  0  0  0  0  0  0
   20.6961   18.4270   25.4734 O   0  0  0  0  0  0  0  0  0  0  0  0
   19.3643   19.1287   23.6796 C   0  0  0  0  0  0  0  0  0  0  0  0
   18.5888   19.8397   23.4044 H   0  0  0  0  0  0  0  0  0  0  0  0
   19.8515   18.2613   22.7632 C   0  0  0  0  0  0  0  0  0  0  0  0
   20.6312   17.5480   23.0295 H   0  0  0  0  0  0  0  0  0  0  0  0
   19.3771   18.2015   21.3259 C   0  0  0  0  0  0  0  0  0  0  0  0
   18.4118   18.7141   21.2160 H   0  0  0  0  0  0  0  0  0  0  0  0
   19.1992   17.1534   21.0505 H   0  0  0  0  0  0  0  0  0  0  0  0
   20.4025   18.8101   20.3444 C   0  0  0  0  0  0  0  0  0  0  0  0
   21.3692   18.2996   20.4556 H   0  0  0  0  0  0  0  0  0  0  0  0
   20.0666   18.6253   19.3148 H   0  0  0  0  0  0  0  0  0  0  0  0
   20.5897   20.3289   20.5473 C   0  0  0  0  0  0  0  0  0  0  0  0
   20.9870   20.5491   21.5467 H   0  0  0  0  0  0  0  0  0  0  0  0
   21.2942   20.7330   19.8089 H   0  0  0  0  0  0  0  0  0  0  0  0
   19.6362   20.8607   20.4329 H   0  0  0  0  0  0  0  0  0  0  0  0
  1  2  1  0  0  0  0
  1  3  2  0  0  0  0
  1  4  1  0  0  0  0
  4  5  1  0  0  0  0
  4  6  2  0  0  0  0
  6  7  1  0  0  0  0
  6  8  1  0  0  0  0
  8  9  1  0  0  0  0
  8 10  1  0  0  0  0
  8 11  1  0  0  0  0
 11 12  1  0  0  0  0
 11 13  1  0  0  0  0
 11 14  1  0  0  0  0
 14 15  1  0  0  0  0
 14 16  1  0  0  0  0
 14 17  1  0  0  0  0
M  END
> <VM2 Rank>
5

> <Conf_Id>
116

> <Probability>
9.52

> <Sum Probability>
90.49

> <Delta G>
0.716

> <G>
-28.466

> <E>
-39.434

> <-TS>
10.968

> <U+W>
-52.848

> <U>
10.243

> <W>
-63.091

> <W(PB)>
-65.117

> <W(SA)>
2.026

> <Valence>
2.822

> <Coulomb>
6.636

> <VdW>
0.785

> <VdW6>
-5.215

> <VdW12>
6.000

> <Bond>
0.080

> <Angle>
2.678

> <Pdih>
0.064

> <Idih>
0.000

> <Tether>
0.000

$$$$
VeraChem MOL file


 17 16  0  0  0  0  0  0  0  0999 V2000     
   19.5892   19.1221   25.0684 C   0  0  0  0  0  0  0  0  0  0  0  0
   19.4557   20.0595   25.8309 O   0  5  0  0  0  0  0  0  0  0  0  0
   19.2057   17.9976   25.3308 O   0  0  0  0  0  0  0  0  0  0  0  0
   20.2569   19.3860   23.7651 C   0  0  0  0  0  0  0  0  0  0  0  0
   20.5750   20.4120   23.5948 H   0  0  0  0  0  0  0  0  0  0  0  0
   20.4699   18.4399   22.8223 C   0  0  0  0  0  0  0  0  0  0  0  0
   20.1513   17.4103   22.9833 H   0  0  0  0  0  0  0  0  0  0  0  0
   21.1477   18.7122   21.4953 C   0  0  0  0  0  0  0  0  0  0  0  0
   21.8972   17.9314   21.3089 H   0  0  0  0  0  0  0  0  0  0  0  0
   21.6985   19.6620   21.5305 H   0  0  0  0  0  0  0  0  0  0  0  0
   20.1465   18.7362   20.3197 C   0  0  0  0  0  0  0  0  0  0  0  0
   20.7038   18.8089   19.3756 H   0  0  0  0  0  0  0  0  0  0  0  0
   19.5933   17.7874   20.2853 H   0  0  0  0  0  0  0  0  0  0  0  0
   19.1533   19.9145   20.4095 C   0  0  0  0  0  0  0  0  0  0  0  0
   19.6849   20.8746   20.4373 H   0  0  0  0  0  0  0  0  0  0  0  0
   18.4841   19.9225   19.5395 H   0  0  0  0  0  0  0  0  0  0  0  0
   18.5317   19.8409   21.3113 H   0  0  0  0  0  0  0  0  0  0  0  0
  1  2  1  0  0  0  0
  1  3  2  0  0  0  0
  1  4  1  0  0  0  0
  4  5  1  0  0  0  0
  4  6  2  0  0  0  0
  6  7  1  0  0  0  0
  6  8  1  0  0  0  0
  8  9  1  0  0  0  0
  8 10  1  0  0  0  0
  8 11  1  0  0  0  0
 11 12  1  0  0  0  0
 11 13  1  0  0  0  0
 11 14  1  0  0  0  0
 14 15  1  0  0  0  0
 14 16  1  0  0  0  0
 14 17  1  0  0  0  0
M  END
> <VM2 Rank>
6

> <Conf_Id>
52

> <Probability>
9.51

> <Sum Probability>
100.00

> <Delta G>
0.716

> <G>
-28.465

> <E>
-39.432

> <-TS>
10.967

> <U+W>
-52.846

> <U>
10.243

> <W>
-63.089

> <W(PB)>
-65.135

> <W(SA)>
2.046

> <Valence>
2.822

> <Coulomb>
6.636

> <VdW>
0.785

> <VdW6>
-5.215

> <VdW12>
6.000

> <Bond>
0.080

> <Angle>
2.678

> <Pdih>
0.063

> <Idih>
0.000

> <Tether>
0.000

$$$$
