VeraChem MOL file


 17 16  0  0  0  0  0  0  0  0999 V2000     
   20.1216   19.0268   25.0643 C   0  0  0  0  0  0  0  0  0  0  0  0
   21.2293   19.3332   25.4595 O   0  5  0  0  0  0  0  0  0  0  0  0
   19.0985   19.5457   25.4655 O   0  0  0  0  0  0  0  0  0  0  0  0
   20.0077   17.9136   24.0272 C   0  0  0  0  0  0  0  0  0  0  0  0
   19.0748   17.3708   24.2188 H   0  0  0  0  0  0  0  0  0  0  0  0
   20.8163   17.1973   24.2139 H   0  0  0  0  0  0  0  0  0  0  0  0
   20.0480   18.3594   22.5719 C   0  0  0  0  0  0  0  0  0  0  0  0
   19.9644   17.5396   21.8613 H   0  0  0  0  0  0  0  0  0  0  0  0
   20.1727   19.6233   22.1417 C   0  0  0  0  0  0  0  0  0  0  0  0
   20.2559   20.4371   22.8608 H   0  0  0  0  0  0  0  0  0  0  0  0
   20.2150   20.0872   20.6950 C   0  0  0  0  0  0  0  0  0  0  0  0
   19.4080   20.8140   20.5307 H   0  0  0  0  0  0  0  0  0  0  0  0
   21.1487   20.6406   20.5260 H   0  0  0  0  0  0  0  0  0  0  0  0
   20.1001   18.9628   19.6420 C   0  0  0  0  0  0  0  0  0  0  0  0
   19.1508   18.4211   19.7459 H   0  0  0  0  0  0  0  0  0  0  0  0
   20.1390   19.3805   18.6276 H   0  0  0  0  0  0  0  0  0  0  0  0
   20.9243   18.2443   19.7411 H   0  0  0  0  0  0  0  0  0  0  0  0
  1  2  1  0  0  0  0
  1  3  2  0  0  0  0
  1  4  1  0  0  0  0
  4  5  1  0  0  0  0
  4  6  1  0  0  0  0
  4  7  1  0  0  0  0
  7  8  1  0  0  0  0
  7  9  2  0  0  0  0
  9 10  1  0  0  0  0
  9 11  1  0  0  0  0
 11 12  1  0  0  0  0
 11 13  1  0  0  0  0
 11 14  1  0  0  0  0
 14 15  1  0  0  0  0
 14 16  1  0  0  0  0
 14 17  1  0  0  0  0
M  END
> <VM2 Rank>
1

> <Conf_Id>
154

> <Probability>
14.27

> <Sum Probability>
14.27

> <Delta G>
0.000

> <G>
-26.660

> <E>
-36.826

> <-TS>
10.165

> <U+W>
-50.239

> <U>
14.007

> <W>
-64.247

> <W(PB)>
-66.286

> <W(SA)>
2.040

> <Valence>
12.998

> <Coulomb>
-0.405

> <VdW>
1.414

> <VdW6>
-5.682

> <VdW12>
7.096

> <Bond>
0.147

> <Angle>
3.367

> <Pdih>
9.484

> <Idih>
0.001

> <Tether>
0.000

$$$$
VeraChem MOL file


 17 16  0  0  0  0  0  0  0  0999 V2000     
   19.9358   19.0109   25.0042 C   0  0  0  0  0  0  0  0  0  0  0  0
   18.8066   18.5760   25.1174 O   0  5  0  0  0  0  0  0  0  0  0  0
   20.3105   20.0473   25.5166 O   0  0  0  0  0  0  0  0  0  0  0  0
   20.9450   18.1982   24.1988 C   0  0  0  0  0  0  0  0  0  0  0  0
   20.6939   17.1377   24.3173 H   0  0  0  0  0  0  0  0  0  0  0  0
   21.9289   18.3287   24.6641 H   0  0  0  0  0  0  0  0  0  0  0  0
   21.0314   18.5395   22.7180 C   0  0  0  0  0  0  0  0  0  0  0  0
   21.7577   17.9480   22.1620 H   0  0  0  0  0  0  0  0  0  0  0  0
   20.3100   19.4700   22.0818 C   0  0  0  0  0  0  0  0  0  0  0  0
   19.5765   20.0746   22.6139 H   0  0  0  0  0  0  0  0  0  0  0  0
   20.4357   19.7719   20.6049 C   0  0  0  0  0  0  0  0  0  0  0  0
   20.5200   20.8567   20.4544 H   0  0  0  0  0  0  0  0  0  0  0  0
   21.3528   19.3250   20.1971 H   0  0  0  0  0  0  0  0  0  0  0  0
   19.2181   19.2382   19.8253 C   0  0  0  0  0  0  0  0  0  0  0  0
   19.3140   19.4612   18.7547 H   0  0  0  0  0  0  0  0  0  0  0  0
   19.1283   18.1500   19.9402 H   0  0  0  0  0  0  0  0  0  0  0  0
   18.2892   19.6980   20.1874 H   0  0  0  0  0  0  0  0  0  0  0  0
  1  2  1  0  0  0  0
  1  3  2  0  0  0  0
  1  4  1  0  0  0  0
  4  5  1  0  0  0  0
  4  6  1  0  0  0  0
  4  7  1  0  0  0  0
  7  8  1  0  0  0  0
  7  9  2  0  0  0  0
  9 10  1  0  0  0  0
  9 11  1  0  0  0  0
 11 12  1  0  0  0  0
 11 13  1  0  0  0  0
 11 14  1  0  0  0  0
 14 15  1  0  0  0  0
 14 16  1  0  0  0  0
 14 17  1  0  0  0  0
M  END
> <VM2 Rank>
2

> <Conf_Id>
39

> <Probability>
12.38

> <Sum Probability>
26.65

> <Delta G>
0.085

> <G>
-26.576

> <E>
-36.435

> <-TS>
9.860

> <U+W>
-49.849

> <U>
14.465

> <W>
-64.314

> <W(PB)>
-66.406

> <W(SA)>
2.093

> <Valence>
14.072

> <Coulomb>
-0.199

> <VdW>
0.592

> <VdW6>
-5.019

> <VdW12>
5.611

> <Bond>
0.085

> <Angle>
2.748

> <Pdih>
11.238

> <Idih>
0.001

> <Tether>
0.000

$$$$
VeraChem MOL file


 17 16  0  0  0  0  0  0  0  0999 V2000     
   20.3003   18.9745   25.0031 C   0  0  0  0  0  0  0  0  0  0  0  0
   20.1402   20.0641   25.5172 O   0  5  0  0  0  0  0  0  0  0  0  0
   21.3223   18.3256   25.1101 O   0  0  0  0  0  0  0  0  0  0  0  0
   19.1462   18.3773   24.2039 C   0  0  0  0  0  0  0  0  0  0  0  0
   18.2099   18.6991   24.6746 H   0  0  0  0  0  0  0  0  0  0  0  0
   19.1839   17.2880   24.3215 H   0  0  0  0  0  0  0  0  0  0  0  0
   19.1205   18.7299   22.7234 C   0  0  0  0  0  0  0  0  0  0  0  0
   18.2888   18.2933   22.1718 H   0  0  0  0  0  0  0  0  0  0  0  0
   20.0076   19.5002   22.0826 C   0  0  0  0  0  0  0  0  0  0  0  0
   20.8489   19.9480   22.6103 H   0  0  0  0  0  0  0  0  0  0  0  0
   19.9358   19.8216   20.6063 C   0  0  0  0  0  0  0  0  0  0  0  0
   18.9464   19.5643   20.2038 H   0  0  0  0  0  0  0  0  0  0  0  0
   20.0661   20.9017   20.4555 H   0  0  0  0  0  0  0  0  0  0  0  0
   21.0201   19.0588   19.8204 C   0  0  0  0  0  0  0  0  0  0  0  0
   22.0234   19.3264   20.1772 H   0  0  0  0  0  0  0  0  0  0  0  0
   20.8944   17.9741   19.9355 H   0  0  0  0  0  0  0  0  0  0  0  0
   20.9642   19.2968   18.7502 H   0  0  0  0  0  0  0  0  0  0  0  0
  1  2  1  0  0  0  0
  1  3  2  0  0  0  0
  1  4  1  0  0  0  0
  4  5  1  0  0  0  0
  4  6  1  0  0  0  0
  4  7  1  0  0  0  0
  7  8  1  0  0  0  0
  7  9  2  0  0  0  0
  9 10  1  0  0  0  0
  9 11  1  0  0  0  0
 11 12  1  0  0  0  0
 11 13  1  0  0  0  0
 11 14  1  0  0  0  0
 14 15  1  0  0  0  0
 14 16  1  0  0  0  0
 14 17  1  0  0  0  0
M  END
> <VM2 Rank>
3

> <Conf_Id>
189

> <Probability>
11.80

> <Sum Probability>
38.45

> <Delta G>
0.113

> <G>
-26.547

> <E>
-36.407

> <-TS>
9.860

> <U+W>
-49.821

> <U>
14.465

> <W>
-64.286

> <W(PB)>
-66.367

> <W(SA)>
2.081

> <Valence>
14.072

> <Coulomb>
-0.199

> <VdW>
0.592

> <VdW6>
-5.019

> <VdW12>
5.611

> <Bond>
0.085

> <Angle>
2.748

> <Pdih>
11.238

> <Idih>
0.001

> <Tether>
0.000

$$$$
VeraChem MOL file


 17 16  0  0  0  0  0  0  0  0999 V2000     
   20.2302   19.0497   25.1478 C   0  0  0  0  0  0  0  0  0  0  0  0
   21.3845   18.9679   25.5193 O   0  5  0  0  0  0  0  0  0  0  0  0
   19.4242   19.8243   25.6244 O   0  0  0  0  0  0  0  0  0  0  0  0
   19.7682   18.1233   24.0306 C   0  0  0  0  0  0  0  0  0  0  0  0
   18.6807   18.0064   24.1098 H   0  0  0  0  0  0  0  0  0  0  0  0
   20.2104   17.1365   24.2096 H   0  0  0  0  0  0  0  0  0  0  0  0
   20.1636   18.6293   22.6562 C   0  0  0  0  0  0  0  0  0  0  0  0
   21.2341   18.6180   22.4586 H   0  0  0  0  0  0  0  0  0  0  0  0
   19.2895   19.0664   21.7410 C   0  0  0  0  0  0  0  0  0  0  0  0
   18.2257   19.0670   21.9765 H   0  0  0  0  0  0  0  0  0  0  0  0
   19.6149   19.5884   20.3517 C   0  0  0  0  0  0  0  0  0  0  0  0
   19.0771   18.9842   19.6086 H   0  0  0  0  0  0  0  0  0  0  0  0
   19.2140   20.6061   20.2505 H   0  0  0  0  0  0  0  0  0  0  0  0
   21.1180   19.6026   19.9959 C   0  0  0  0  0  0  0  0  0  0  0  0
   21.2696   19.9922   18.9810 H   0  0  0  0  0  0  0  0  0  0  0  0
   21.6807   20.2418   20.6889 H   0  0  0  0  0  0  0  0  0  0  0  0
   21.5414   18.5903   20.0340 H   0  0  0  0  0  0  0  0  0  0  0  0
  1  2  1  0  0  0  0
  1  3  2  0  0  0  0
  1  4  1  0  0  0  0
  4  5  1  0  0  0  0
  4  6  1  0  0  0  0
  4  7  1  0  0  0  0
  7  8  1  0  0  0  0
  7  9  2  0  0  0  0
  9 10  1  0  0  0  0
  9 11  1  0  0  0  0
 11 12  1  0  0  0  0
 11 13  1  0  0  0  0
 11 14  1  0  0  0  0
 14 15  1  0  0  0  0
 14 16  1  0  0  0  0
 14 17  1  0  0  0  0
M  END
> <VM2 Rank>
4

> <Conf_Id>
128

> <Probability>
11.64

> <Sum Probability>
50.09

> <Delta G>
0.122

> <G>
-26.539

> <E>
-36.513

> <-TS>
9.974

> <U+W>
-49.927

> <U>
13.863

> <W>
-63.790

> <W(PB)>
-65.860

> <W(SA)>
2.070

> <Valence>
14.117

> <Coulomb>
-1.228

> <VdW>
0.974

> <VdW6>
-4.885

> <VdW12>
5.859

> <Bond>
0.094

> <Angle>
2.818

> <Pdih>
11.205

> <Idih>
0.000

> <Tether>
0.000

$$$$
VeraChem MOL file


 17 16  0  0  0  0  0  0  0  0999 V2000     
   20.1141   18.9946   25.2590 C   0  0  0  0  0  0  0  0  0  0  0  0
   21.1853   19.4020   25.6634 O   0  5  0  0  0  0  0  0  0  0  0  0
   19.0546   19.2356   25.8033 O   0  0  0  0  0  0  0  0  0  0  0  0
   20.0969   18.1296   24.0056 C   0  0  0  0  0  0  0  0  0  0  0  0
   19.3781   17.3182   24.1684 H   0  0  0  0  0  0  0  0  0  0  0  0
   21.0845   17.6658   23.8951 H   0  0  0  0  0  0  0  0  0  0  0  0
   19.7231   18.9150   22.7629 C   0  0  0  0  0  0  0  0  0  0  0  0
   18.6942   19.2722   22.7306 H   0  0  0  0  0  0  0  0  0  0  0  0
   20.5643   19.1754   21.7576 C   0  0  0  0  0  0  0  0  0  0  0  0
   21.5939   18.8205   21.7920 H   0  0  0  0  0  0  0  0  0  0  0  0
   20.1909   19.9620   20.5210 C   0  0  0  0  0  0  0  0  0  0  0  0
   19.2418   20.4936   20.6757 H   0  0  0  0  0  0  0  0  0  0  0  0
   20.9530   20.7283   20.3249 H   0  0  0  0  0  0  0  0  0  0  0  0
   20.0638   19.0379   19.2942 C   0  0  0  0  0  0  0  0  0  0  0  0
   19.2883   18.2780   19.4572 H   0  0  0  0  0  0  0  0  0  0  0  0
   19.7933   19.6144   18.4000 H   0  0  0  0  0  0  0  0  0  0  0  0
   21.0116   18.5216   19.0929 H   0  0  0  0  0  0  0  0  0  0  0  0
  1  2  1  0  0  0  0
  1  3  2  0  0  0  0
  1  4  1  0  0  0  0
  4  5  1  0  0  0  0
  4  6  1  0  0  0  0
  4  7  1  0  0  0  0
  7  8  1  0  0  0  0
  7  9  2  0  0  0  0
  9 10  1  0  0  0  0
  9 11  1  0  0  0  0
 11 12  1  0  0  0  0
 11 13  1  0  0  0  0
 11 14  1  0  0  0  0
 14 15  1  0  0  0  0
 14 16  1  0  0  0  0
 14 17  1  0  0  0  0
M  END
> <VM2 Rank>
5

> <Conf_Id>
186

> <Probability>
10.75

> <Sum Probability>
60.84

> <Delta G>
0.169

> <G>
-26.491

> <E>
-36.127

> <-TS>
9.636

> <U+W>
-49.541

> <U>
13.666

> <W>
-63.207

> <W(PB)>
-65.297

> <W(SA)>
2.090

> <Valence>
15.226

> <Coulomb>
-1.822

> <VdW>
0.261

> <VdW6>
-4.165

> <VdW12>
4.426

> <Bond>
0.044

> <Angle>
2.229

> <Pdih>
12.953

> <Idih>
0.000

> <Tether>
0.000

$$$$
VeraChem MOL file


 17 16  0  0  0  0  0  0  0  0999 V2000     
   20.0343   18.8557   25.1338 C   0  0  0  0  0  0  0  0  0  0  0  0
   20.0800   17.6769   25.4258 O   0  5  0  0  0  0  0  0  0  0  0  0
   19.2332   19.6355   25.6103 O   0  0  0  0  0  0  0  0  0  0  0  0
   21.0426   19.3844   24.1221 C   0  0  0  0  0  0  0  0  0  0  0  0
   22.0104   18.9177   24.3388 H   0  0  0  0  0  0  0  0  0  0  0  0
   21.1621   20.4618   24.2880 H   0  0  0  0  0  0  0  0  0  0  0  0
   20.6342   19.0951   22.6900 C   0  0  0  0  0  0  0  0  0  0  0  0
   20.6514   18.0414   22.4168 H   0  0  0  0  0  0  0  0  0  0  0  0
   20.2714   20.0381   21.8115 C   0  0  0  0  0  0  0  0  0  0  0  0
   20.2623   21.0823   22.1226 H   0  0  0  0  0  0  0  0  0  0  0  0
   19.8489   19.8199   20.3685 C   0  0  0  0  0  0  0  0  0  0  0  0
   18.8445   20.2404   20.2238 H   0  0  0  0  0  0  0  0  0  0  0  0
   20.5096   20.4014   19.7114 H   0  0  0  0  0  0  0  0  0  0  0  0
   19.8484   18.3464   19.9049 C   0  0  0  0  0  0  0  0  0  0  0  0
   19.1562   17.7441   20.5078 H   0  0  0  0  0  0  0  0  0  0  0  0
   19.5320   18.2730   18.8563 H   0  0  0  0  0  0  0  0  0  0  0  0
   20.8518   17.9079   19.9847 H   0  0  0  0  0  0  0  0  0  0  0  0
  1  2  1  0  0  0  0
  1  3  2  0  0  0  0
  1  4  1  0  0  0  0
  4  5  1  0  0  0  0
  4  6  1  0  0  0  0
  4  7  1  0  0  0  0
  7  8  1  0  0  0  0
  7  9  2  0  0  0  0
  9 10  1  0  0  0  0
  9 11  1  0  0  0  0
 11 12  1  0  0  0  0
 11 13  1  0  0  0  0
 11 14  1  0  0  0  0
 14 15  1  0  0  0  0
 14 16  1  0  0  0  0
 14 17  1  0  0  0  0
M  END
> <VM2 Rank>
6

> <Conf_Id>
43

> <Probability>
10.64

> <Sum Probability>
71.48

> <Delta G>
0.175

> <G>
-26.485

> <E>
-36.460

> <-TS>
9.974

> <U+W>
-49.873

> <U>
13.864

> <W>
-63.737

> <W(PB)>
-65.802

> <W(SA)>
2.065

> <Valence>
14.117

> <Coulomb>
-1.227

> <VdW>
0.974

> <VdW6>
-4.885

> <VdW12>
5.859

> <Bond>
0.094

> <Angle>
2.817

> <Pdih>
11.205

> <Idih>
0.000

> <Tether>
0.000

$$$$
VeraChem MOL file


 17 16  0  0  0  0  0  0  0  0999 V2000     
   20.1102   18.9989   25.2592 C   0  0  0  0  0  0  0  0  0  0  0  0
   20.6753   19.9846   25.6904 O   0  5  0  0  0  0  0  0  0  0  0  0
   20.2331   17.8896   25.7402 O   0  0  0  0  0  0  0  0  0  0  0  0
   19.1936   19.1612   24.0538 C   0  0  0  0  0  0  0  0  0  0  0  0
   18.8609   20.2055   24.0139 H   0  0  0  0  0  0  0  0  0  0  0  0
   18.3021   18.5471   24.2259 H   0  0  0  0  0  0  0  0  0  0  0  0
   19.8638   18.7542   22.7554 C   0  0  0  0  0  0  0  0  0  0  0  0
   20.0789   17.6906   22.6566 H   0  0  0  0  0  0  0  0  0  0  0  0
   20.1872   19.6061   21.7778 C   0  0  0  0  0  0  0  0  0  0  0  0
   19.9747   20.6700   21.8786 H   0  0  0  0  0  0  0  0  0  0  0  0
   20.8592   19.1990   20.4855 C   0  0  0  0  0  0  0  0  0  0  0  0
   21.7100   19.8640   20.2846 H   0  0  0  0  0  0  0  0  0  0  0  0
   21.2665   18.1819   20.5679 H   0  0  0  0  0  0  0  0  0  0  0  0
   19.8707   19.2584   19.3047 C   0  0  0  0  0  0  0  0  0  0  0  0
   20.3641   18.9626   18.3697 H   0  0  0  0  0  0  0  0  0  0  0  0
   19.0228   18.5810   19.4715 H   0  0  0  0  0  0  0  0  0  0  0  0
   19.4761   20.2747   19.1748 H   0  0  0  0  0  0  0  0  0  0  0  0
  1  2  1  0  0  0  0
  1  3  2  0  0  0  0
  1  4  1  0  0  0  0
  4  5  1  0  0  0  0
  4  6  1  0  0  0  0
  4  7  1  0  0  0  0
  7  8  1  0  0  0  0
  7  9  2  0  0  0  0
  9 10  1  0  0  0  0
  9 11  1  0  0  0  0
 11 12  1  0  0  0  0
 11 13  1  0  0  0  0
 11 14  1  0  0  0  0
 14 15  1  0  0  0  0
 14 16  1  0  0  0  0
 14 17  1  0  0  0  0
M  END
> <VM2 Rank>
7

> <Conf_Id>
80

> <Probability>
10.58

> <Sum Probability>
82.05

> <Delta G>
0.179

> <G>
-26.482

> <E>
-36.117

> <-TS>
9.636

> <U+W>
-49.531

> <U>
13.666

> <W>
-63.197

> <W(PB)>
-65.301

> <W(SA)>
2.103

> <Valence>
15.226

> <Coulomb>
-1.821

> <VdW>
0.261

> <VdW6>
-4.165

> <VdW12>
4.426

> <Bond>
0.044

> <Angle>
2.229

> <Pdih>
12.953

> <Idih>
0.000

> <Tether>
0.000

$$$$
VeraChem MOL file


 17 16  0  0  0  0  0  0  0  0999 V2000     
   20.1633   19.1351   25.1460 C   0  0  0  0  0  0  0  0  0  0  0  0
   21.2735   19.5657   25.3886 O   0  5  0  0  0  0  0  0  0  0  0  0
   19.1534   19.5353   25.6910 O   0  0  0  0  0  0  0  0  0  0  0  0
   20.0289   18.0259   24.1109 C   0  0  0  0  0  0  0  0  0  0  0  0
   19.3068   17.2959   24.4945 H   0  0  0  0  0  0  0  0  0  0  0  0
   20.9942   17.5114   24.0320 H   0  0  0  0  0  0  0  0  0  0  0  0
   19.5772   18.5446   22.7590 C   0  0  0  0  0  0  0  0  0  0  0  0
   18.5593   18.9320   22.7261 H   0  0  0  0  0  0  0  0  0  0  0  0
   20.3425   18.5522   21.6634 C   0  0  0  0  0  0  0  0  0  0  0  0
   21.3620   18.1694   21.6982 H   0  0  0  0  0  0  0  0  0  0  0  0
   19.8911   19.0726   20.3170 C   0  0  0  0  0  0  0  0  0  0  0  0
   20.1379   18.3418   19.5350 H   0  0  0  0  0  0  0  0  0  0  0  0
   18.7995   19.1970   20.2992 H   0  0  0  0  0  0  0  0  0  0  0  0
   20.5631   20.4206   19.9911 C   0  0  0  0  0  0  0  0  0  0  0  0
   20.2316   20.7939   19.0134 H   0  0  0  0  0  0  0  0  0  0  0  0
   20.3101   21.1751   20.7477 H   0  0  0  0  0  0  0  0  0  0  0  0
   21.6558   20.3170   19.9638 H   0  0  0  0  0  0  0  0  0  0  0  0
  1  2  1  0  0  0  0
  1  3  2  0  0  0  0
  1  4  1  0  0  0  0
  4  5  1  0  0  0  0
  4  6  1  0  0  0  0
  4  7  1  0  0  0  0
  7  8  1  0  0  0  0
  7  9  2  0  0  0  0
  9 10  1  0  0  0  0
  9 11  1  0  0  0  0
 11 12  1  0  0  0  0
 11 13  1  0  0  0  0
 11 14  1  0  0  0  0
 14 15  1  0  0  0  0
 14 16  1  0  0  0  0
 14 17  1  0  0  0  0
M  END
> <VM2 Rank>
8

> <Conf_Id>
48

> <Probability>
9.35

> <Sum Probability>
91.40

> <Delta G>
0.252

> <G>
-26.408

> <E>
-36.055

> <-TS>
9.647

> <U+W>
-49.469

> <U>
14.121

> <W>
-63.590

> <W(PB)>
-65.660

> <W(SA)>
2.071

> <Valence>
15.230

> <Coulomb>
-1.333

> <VdW>
0.224

> <VdW6>
-4.212

> <VdW12>
4.436

> <Bond>
0.044

> <Angle>
2.230

> <Pdih>
12.956

> <Idih>
0.000

> <Tether>
0.000

$$$$
VeraChem MOL file


 17 16  0  0  0  0  0  0  0  0999 V2000     
   20.2086   18.8123   25.1231 C   0  0  0  0  0  0  0  0  0  0  0  0
   21.3987   18.6727   25.3254 O   0  5  0  0  0  0  0  0  0  0  0  0
   19.3575   18.0795   25.5875 O   0  0  0  0  0  0  0  0  0  0  0  0
   19.7559   19.9744   24.2487 C   0  0  0  0  0  0  0  0  0  0  0  0
   20.5418   20.7391   24.2603 H   0  0  0  0  0  0  0  0  0  0  0  0
   18.8691   20.4187   24.7154 H   0  0  0  0  0  0  0  0  0  0  0  0
   19.4371   19.5437   22.8297 C   0  0  0  0  0  0  0  0  0  0  0  0
   18.5636   18.9011   22.7238 H   0  0  0  0  0  0  0  0  0  0  0  0
   20.1541   19.8969   21.7585 C   0  0  0  0  0  0  0  0  0  0  0  0
   21.0306   20.5351   21.8656 H   0  0  0  0  0  0  0  0  0  0  0  0
   19.8365   19.4638   20.3447 C   0  0  0  0  0  0  0  0  0  0  0  0
   18.8202   19.0499   20.2886 H   0  0  0  0  0  0  0  0  0  0  0  0
   19.8595   20.3348   19.6758 H   0  0  0  0  0  0  0  0  0  0  0  0
   20.8447   18.4087   19.8495 C   0  0  0  0  0  0  0  0  0  0  0  0
   20.8216   17.5170   20.4898 H   0  0  0  0  0  0  0  0  0  0  0  0
   20.6093   18.0977   18.8233 H   0  0  0  0  0  0  0  0  0  0  0  0
   21.8669   18.8093   19.8582 H   0  0  0  0  0  0  0  0  0  0  0  0
  1  2  1  0  0  0  0
  1  3  2  0  0  0  0
  1  4  1  0  0  0  0
  4  5  1  0  0  0  0
  4  6  1  0  0  0  0
  4  7  1  0  0  0  0
  7  8  1  0  0  0  0
  7  9  2  0  0  0  0
  9 10  1  0  0  0  0
  9 11  1  0  0  0  0
 11 12  1  0  0  0  0
 11 13  1  0  0  0  0
 11 14  1  0  0  0  0
 14 15  1  0  0  0  0
 14 16  1  0  0  0  0
 14 17  1  0  0  0  0
M  END
> <VM2 Rank>
9

> <Conf_Id>
182

> <Probability>
8.60

> <Sum Probability>
100.00

> <Delta G>
0.302

> <G>
-26.358

> <E>
-36.004

> <-TS>
9.646

> <U+W>
-49.418

> <U>
14.122

> <W>
-63.540

> <W(PB)>
-65.621

> <W(SA)>
2.081

> <Valence>
15.230

> <Coulomb>
-1.332

> <VdW>
0.224

> <VdW6>
-4.212

> <VdW12>
4.436

> <Bond>
0.044

> <Angle>
2.230

> <Pdih>
12.956

> <Idih>
0.000

> <Tether>
0.000

$$$$
