@<TRIPOS>MOLECULE
CD_guest-s9_fast_vm2_single.mol2 : feprocess host+ligand conformer 1
         146         151           2
SMALL
USER_CHARGES
 
@<TRIPOS>ATOM
       1    C1      16.397973   15.402620   22.123731 C.3        1 MOL1         0.2972
       2    H1      15.339544   15.328579   22.405947 H          1 MOL1         0.0751
       3    O1      16.730704   16.717821   21.638966 O.3        1 MOL1        -0.3740
       4    C2      17.292494   15.098205   23.347394 C.3        1 MOL1         0.1003
       5    H2      17.090374   14.065025   23.658811 H          1 MOL1         0.0783
       6    O2      16.995550   15.992325   24.432861 O.3        1 MOL1        -0.5519
       7    H3      16.325282   16.638567   24.099958 H          1 MOL1         0.3769
       8    C3      18.782685   15.207224   22.959363 C.3        1 MOL1         0.1053
       9    H4      18.982901   16.257845   22.720988 H          1 MOL1         0.0783
      10    O3      19.586818   14.806551   24.071784 O.3        1 MOL1        -0.5519
      11    H5      19.152296   15.220354   24.851714 H          1 MOL1         0.3769
      12    C4      19.114215   14.350233   21.710339 C.3        1 MOL1         0.1018
      13    H6      19.173365   13.296983   22.015908 H          1 MOL1         0.0783
      14    C5      18.070851   14.517085   20.567194 C.3        1 MOL1         0.1043
      15    H7      18.232487   15.502053   20.113135 H          1 MOL1         0.0783
      16    O4      16.716354   14.455356   21.083577 O.3        1 MOL1        -0.3740
      17    C6      18.213480   13.467805   19.438916 C.3        1 MOL1         0.0138
      18    H8      19.131871   13.682986   18.876004 H          1 MOL1         0.0794
      19    H9      17.370893   13.582764   18.743754 H          1 MOL1         0.0794
      20    O5      18.259446   12.130017   19.949914 O.3        1 MOL1        -0.5486
      21    H10     18.264887   11.517382   19.182226 H          1 MOL1         0.3769
      22    C7      14.799733   20.273191   20.645309 C.3        1 MOL1         0.2972
      23    H11     14.078997   21.019160   20.288334 H          1 MOL1         0.0751
      24    O6      16.069167   20.866341   20.983471 O.3        1 MOL1        -0.3740
      25    C8      14.260014   19.559609   21.912721 C.3        1 MOL1         0.1003
      26    H12     13.324764   19.057053   21.633475 H          1 MOL1         0.0783
      27    O7      13.989298   20.500357   22.963568 O.3        1 MOL1        -0.5519
      28    H13     14.721624   21.167609   22.965132 H          1 MOL1         0.3769
      29    C9      15.256293   18.476425   22.393971 C.3        1 MOL1         0.1053
      30    H14     16.177870   18.975276   22.723944 H          1 MOL1         0.0783
      31    O8      14.684767   17.746952   23.484826 O.3        1 MOL1        -0.5519
      32    H15     14.268568   18.431389   24.056351 H          1 MOL1         0.3769
      33    C10     15.609780   17.517323   21.230396 C.3        1 MOL1         0.1018
      34    H16     14.730470   16.901935   20.997863 H          1 MOL1         0.0783
      35    C11     16.040688   18.282779   19.952757 C.3        1 MOL1         0.1043
      36    H17     16.989504   18.789467   20.164907 H          1 MOL1         0.0783
      37    O9      15.032842   19.271610   19.629574 O.3        1 MOL1        -0.3740
      38    C12     16.276552   17.375026   18.716731 C.3        1 MOL1         0.0138
      39    H18     17.319424   17.035719   18.729319 H          1 MOL1         0.0794
      40    H19     16.149801   17.978536   17.808066 H          1 MOL1         0.0794
      41    O10     15.408550   16.235398   18.676718 O.3        1 MOL1        -0.5486
      42    H20     15.674867   15.635837   19.410687 H          1 MOL1         0.3769
      43    C13     18.425619   24.222563   20.795829 C.3        1 MOL1         0.2972
      44    H21     18.892300   25.206677   20.659873 H          1 MOL1         0.0751
      45    O11     19.414841   23.197550   21.037221 O.3        1 MOL1        -0.3740
      46    C14     17.381351   24.246216   21.944548 C.3        1 MOL1         0.1003
      47    H22     16.577205   24.925672   21.632983 H          1 MOL1         0.0783
      48    O12     17.935249   24.727818   23.177402 O.3        1 MOL1        -0.5519
      49    H23     18.599772   24.056351   23.473189 H          1 MOL1         0.3769
      50    C15     16.767211   22.838760   22.131709 C.3        1 MOL1         0.1053
      51    H24     17.560609   22.160609   22.474256 H          1 MOL1         0.0783
      52    O13     15.726313   22.895038   23.111606 O.3        1 MOL1        -0.5519
      53    H25     16.090398   23.441765   23.843391 H          1 MOL1         0.3769
      54    C16     16.200862   22.288040   20.798529 C.3        1 MOL1         0.1018
      55    H26     15.236579   22.775745   20.606647 H          1 MOL1         0.0783
      56    C17     17.157913   22.505215   19.590987 C.3        1 MOL1         0.1043
      57    H27     17.983445   21.788952   19.684858 H          1 MOL1         0.0783
      58    O14     17.703607   23.848904   19.603542 O.3        1 MOL1        -0.3740
      59    C18     16.495675   22.257044   18.213464 C.3        1 MOL1         0.0138
      60    H28     16.273884   21.186192   18.112607 H          1 MOL1         0.0794
      61    H29     17.223644   22.510663   17.431464 H          1 MOL1         0.0794
      62    O15     15.298661   23.023584   18.030495 O.3        1 MOL1        -0.5486
      63    H30     14.566883   22.558507   18.486579 H          1 MOL1         0.3769
      64    C19     23.237293   22.413621   22.403095 C.3        1 MOL1         0.2972
      65    H31     24.233845   22.472733   22.858057 H          1 MOL1         0.0751
      66    O16     23.088143   21.213926   21.615109 O.3        1 MOL1        -0.3740
      67    C20     22.149816   22.423721   23.507510 C.3        1 MOL1         0.1003
      68    H32     22.309620   23.326510   24.111547 H          1 MOL1         0.0783
      69    O17     22.250362   21.258299   24.343669 O.3        1 MOL1        -0.5519
      70    H33     23.213293   21.056162   24.435927 H          1 MOL1         0.3769
      71    C21     20.728415   22.483822   22.907510 C.3        1 MOL1         0.1053
      72    H34     20.526996   21.516735   22.441224 H          1 MOL1         0.0783
      73    O18     19.794062   22.694032   23.968840 O.3        1 MOL1        -0.5519
      74    H35     20.102336   22.108694   24.696855 H          1 MOL1         0.3769
      75    C22     20.576895   23.565006   21.808559 C.3        1 MOL1         0.1018
      76    H36     20.469866   24.548674   22.284462 H          1 MOL1         0.0783
      77    C23     21.774970   23.579146   20.819224 C.3        1 MOL1         0.1043
      78    H37     21.709007   22.682977   20.188668 H          1 MOL1         0.0783
      79    O19     23.026927   23.553300   21.544917 O.3        1 MOL1        -0.3740
      80    C24     21.778927   24.804820   19.874281 C.3        1 MOL1         0.0138
      81    H38     20.959453   24.689671   19.151964 H          1 MOL1         0.0794
      82    H39     22.718017   24.805168   19.304806 H          1 MOL1         0.0794
      83    O20     21.627175   26.039129   20.586589 O.3        1 MOL1        -0.5486
      84    H40     21.719072   26.770968   19.937942 H          1 MOL1         0.3769
      85    C25     25.138060   17.632991   21.105348 C.3        1 MOL1         0.2972
      86    H41     25.870407   16.842723   20.898021 H          1 MOL1         0.0751
      87    O21     23.816712   17.103385   21.324931 O.3        1 MOL1        -0.3740
      88    C26     25.536072   18.408919   22.382797 C.3        1 MOL1         0.1003
      89    H42     26.514040   18.872561   22.198741 H          1 MOL1         0.0783
      90    O22     25.636151   17.519644   23.507248 O.3        1 MOL1        -0.5519
      91    H43     24.966101   16.802234   23.378119 H          1 MOL1         0.3769
      92    C27     24.517772   19.536241   22.677457 C.3        1 MOL1         0.1053
      93    H44     23.561444   19.066670   22.933476 H          1 MOL1         0.0783
      94    O23     24.990474   20.296731   23.794696 O.3        1 MOL1        -0.5519
      95    H45     25.357548   19.625661   24.414701 H          1 MOL1         0.3769
      96    C28     24.291279   20.437322   21.429318 C.3        1 MOL1         0.1018
      97    H46     25.166732   21.085075   21.293245 H          1 MOL1         0.0783
      98    C29     24.068145   19.607077   20.134624 C.3        1 MOL1         0.1043
      99    H47     23.083951   19.131842   20.202844 H          1 MOL1         0.0783
     100    O24     25.077858   18.574961   20.013716 O.3        1 MOL1        -0.3740
     101    C30     24.060292   20.458612   18.841099 C.3        1 MOL1         0.0138
     102    H48     23.121674   21.027577   18.803165 H          1 MOL1         0.0794
     103    H49     24.063192   19.780929   17.977144 H          1 MOL1         0.0794
     104    O25     25.172111   21.358236   18.762723 O.3        1 MOL1        -0.5486
     105    H50     25.012609   22.082266   19.405706 H          1 MOL1         0.3769
     106    C31     21.351545   13.837520   20.841334 C.3        1 MOL1         0.2972
     107    H51     20.881929   12.872274   20.611845 H          1 MOL1         0.0751
     108    O26     20.369925   14.837173   21.195121 O.3        1 MOL1        -0.3740
     109    C32     22.379738   13.701794   21.995892 C.3        1 MOL1         0.1003
     110    H52     23.173124   13.027054   21.648779 H          1 MOL1         0.0783
     111    O27     21.785292   13.150173   23.180158 O.3        1 MOL1        -0.5519
     112    H53     21.047864   13.754577   23.448618 H          1 MOL1         0.3769
     113    C33     23.019712   15.077461   22.297230 C.3        1 MOL1         0.1053
     114    H54     22.230827   15.738543   22.677463 H          1 MOL1         0.0783
     115    O28     24.044630   14.936734   23.285527 O.3        1 MOL1        -0.5519
     116    H55     23.666312   14.334716   23.964722 H          1 MOL1         0.3769
     117    C34     23.610846   15.714509   21.015146 C.3        1 MOL1         0.1018
     118    H56     24.546486   15.196131   20.768944 H          1 MOL1         0.0783
     119    C35     22.634717   15.648980   19.807549 C.3        1 MOL1         0.1043
     120    H57     21.819515   16.356139   19.994927 H          1 MOL1         0.0783
     121    O29     22.074856   14.318683   19.688287 O.3        1 MOL1        -0.3740
     122    C36     23.272201   16.043412   18.452416 C.3        1 MOL1         0.0138
     123    H58     23.409224   17.132384   18.429298 H          1 MOL1         0.0794
     124    H59     22.565035   15.790695   17.651237 H          1 MOL1         0.0794
     125    O30     24.527068   15.393635   18.219663 O.3        1 MOL1        -0.5486
     126    H60     25.227560   15.953881   18.616740 H          1 MOL1         0.3769
     127    C1      19.450271   19.520987   18.339716 C.3        1 MOL1        -0.2224
     128    H1      19.465132   19.031859   17.357011 H          1 MOL1         0.1052
     129    H2      18.405477   19.741328   18.586672 H          1 MOL1         0.1052
     130    H3      19.987249   20.474394   18.248061 H          1 MOL1         0.1052
     131    C2      20.101278   18.616723   19.408001 C.3        1 MOL1        -0.1209
     132    H4      21.123036   18.372682   19.089311 H          1 MOL1         0.1041
     133    H5      19.554795   17.665441   19.473095 H          1 MOL1         0.1041
     134    C3      20.138112   19.293382   20.795331 C.3        1 MOL1        -0.1274
     135    H6      20.700435   20.231728   20.718649 H          1 MOL1         0.1041
     136    H7      19.117850   19.550506   21.111167 H          1 MOL1         0.1041
     137    C4      20.792358   18.379949   21.850447 C.3        1 MOL1         0.0313
     138    H8      21.839128   18.212353   21.593139 H          1 MOL1         0.1015
     139    H9      20.288820   17.411288   21.847688 H          1 MOL1         0.1015
     140    N1      20.749795   18.917873   23.269250 N.4        1 MOL1        -0.4809
     141    H10     19.783827   19.159796   23.535839 H          1 MOL1         0.3726
     142    H11     21.294772   19.798827   23.360061 H          1 MOL1         0.3726
     143    C5      21.308436   17.876943   24.229069 C.3        1 MOL1        -0.0677
     144    H12     22.338783   17.644136   23.951512 H          1 MOL1         0.1026
     145    H13     21.283416   18.278868   25.244343 H          1 MOL1         0.1026
     146    H14     20.699470   16.972671   24.174962 H          1 MOL1         0.1026
@<TRIPOS>BOND
    1     1     2    1
    2     1     3    1
    3     1     4    1
    4     4     5    1
    5     4     6    1
    6     6     7    1
    7     4     8    1
    8     8     9    1
    9     8    10    1
   10    10    11    1
   11     8    12    1
   12    12    13    1
   13    12    14    1
   14    14    15    1
   15     1    16    1
   16    14    16    1
   17    14    17    1
   18    17    18    1
   19    17    19    1
   20    17    20    1
   21    20    21    1
   22    22    23    1
   23    22    24    1
   24    22    25    1
   25    25    26    1
   26    25    27    1
   27    27    28    1
   28    25    29    1
   29    29    30    1
   30    29    31    1
   31    31    32    1
   32     3    33    1
   33    29    33    1
   34    33    34    1
   35    33    35    1
   36    35    36    1
   37    22    37    1
   38    35    37    1
   39    35    38    1
   40    38    39    1
   41    38    40    1
   42    38    41    1
   43    41    42    1
   44    43    44    1
   45    43    45    1
   46    43    46    1
   47    46    47    1
   48    46    48    1
   49    48    49    1
   50    46    50    1
   51    50    51    1
   52    50    52    1
   53    52    53    1
   54    24    54    1
   55    50    54    1
   56    54    55    1
   57    54    56    1
   58    56    57    1
   59    43    58    1
   60    56    58    1
   61    56    59    1
   62    59    60    1
   63    59    61    1
   64    59    62    1
   65    62    63    1
   66    64    65    1
   67    64    66    1
   68    64    67    1
   69    67    68    1
   70    67    69    1
   71    69    70    1
   72    67    71    1
   73    71    72    1
   74    71    73    1
   75    73    74    1
   76    45    75    1
   77    71    75    1
   78    75    76    1
   79    75    77    1
   80    77    78    1
   81    64    79    1
   82    77    79    1
   83    77    80    1
   84    80    81    1
   85    80    82    1
   86    80    83    1
   87    83    84    1
   88    85    86    1
   89    85    87    1
   90    85    88    1
   91    88    89    1
   92    88    90    1
   93    90    91    1
   94    88    92    1
   95    92    93    1
   96    92    94    1
   97    94    95    1
   98    66    96    1
   99    92    96    1
  100    96    97    1
  101    96    98    1
  102    98    99    1
  103    85   100    1
  104    98   100    1
  105    98   101    1
  106   101   102    1
  107   101   103    1
  108   101   104    1
  109   104   105    1
  110   106   107    1
  111    12   108    1
  112   106   108    1
  113   106   109    1
  114   109   110    1
  115   109   111    1
  116   111   112    1
  117   109   113    1
  118   113   114    1
  119   113   115    1
  120   115   116    1
  121    87   117    1
  122   113   117    1
  123   117   118    1
  124   117   119    1
  125   119   120    1
  126   106   121    1
  127   119   121    1
  128   119   122    1
  129   122   123    1
  130   122   124    1
  131   122   125    1
  132   125   126    1
  133   127   128    1
  134   127   129    1
  135   127   130    1
  136   127   131    1
  137   131   132    1
  138   131   133    1
  139   131   134    1
  140   134   135    1
  141   134   136    1
  142   134   137    1
  143   137   138    1
  144   137   139    1
  145   137   140    1
  146   140   141    1
  147   140   142    1
  148   140   143    1
  149   143   144    1
  150   143   145    1
  151   143   146    1
@<TRIPOS>SUBSTRUCTURE
       1 MOL1            1 RESIDUE      1      MOL     
       2 MOL1          146 RESIDUE      1      MOL     
@<SCITEGIC>MOL_PROPERTY
feprocess Rank
SciTegic.value.IntegerValue
1

@<SCITEGIC>MOL_PROPERTY
Conf_Id
SciTegic.value.IntegerValue
1

@<SCITEGIC>MOL_PROPERTY
Probability
SciTegic.value.DoubleValue
100.00

@<SCITEGIC>MOL_PROPERTY
G
SciTegic.value.DoubleValue
594.552

@<SCITEGIC>MOL_PROPERTY
E
SciTegic.value.DoubleValue
402.545

@<SCITEGIC>MOL_PROPERTY
-TS
SciTegic.value.DoubleValue
192.008

@<SCITEGIC>MOL_PROPERTY
U+W
SciTegic.value.DoubleValue
273.774

@<SCITEGIC>MOL_PROPERTY
U
SciTegic.value.DoubleValue
356.661

@<SCITEGIC>MOL_PROPERTY
W
SciTegic.value.DoubleValue
-82.887

@<SCITEGIC>MOL_PROPERTY
W(PB)
SciTegic.value.DoubleValue
-88.888

@<SCITEGIC>MOL_PROPERTY
W(SA)
SciTegic.value.DoubleValue
6.001

@<SCITEGIC>MOL_PROPERTY
Valence
SciTegic.value.DoubleValue
146.499

@<SCITEGIC>MOL_PROPERTY
Coulomb
SciTegic.value.DoubleValue
236.132

@<SCITEGIC>MOL_PROPERTY
VdW
SciTegic.value.DoubleValue
-25.970

@<SCITEGIC>MOL_PROPERTY
VdW6
SciTegic.value.DoubleValue
-175.846

@<SCITEGIC>MOL_PROPERTY
VdW12
SciTegic.value.DoubleValue
149.876

@<SCITEGIC>MOL_PROPERTY
Bond
SciTegic.value.DoubleValue
4.502

@<SCITEGIC>MOL_PROPERTY
Angle
SciTegic.value.DoubleValue
11.519

@<SCITEGIC>MOL_PROPERTY
Pdih
SciTegic.value.DoubleValue
130.478

@<SCITEGIC>MOL_PROPERTY
Idih
SciTegic.value.DoubleValue
0.000

@<SCITEGIC>MOL_PROPERTY
Tether
SciTegic.value.DoubleValue
0.000

