@<TRIPOS>MOLECULE
guest-s17_vm2.mol2 : vm2 ligand conformer 1
          25          25           1
SMALL
USER_CHARGES
 
@<TRIPOS>ATOM
       1    C1      21.264951   19.569990   21.138382 C.3        1 MOL1        -0.1684
       2    H1      21.774590   19.741489   20.180289 H          1 MOL1         0.0833
       3    H2      22.046891   19.718303   21.891625 H          1 MOL1         0.0833
       4    C2      20.759537   18.103813   21.158315 C.3        1 MOL1        -0.1684
       5    H3      19.715241   18.040876   20.826514 H          1 MOL1         0.0833
       6    H4      21.332705   17.546830   20.404485 H          1 MOL1         0.0833
       7    C3      20.952977   17.366202   22.509382 C.3        1 MOL1        -0.1684
       8    H5      22.013350   17.400497   22.794724 H          1 MOL1         0.0833
       9    H6      20.726636   16.303861   22.345137 H          1 MOL1         0.0833
      10    C4      20.085767   17.854788   23.700274 C.3        1 MOL1        -0.1760
      11    H7      19.020277   17.798951   23.447819 H          1 MOL1         0.0833
      12    H8      20.224579   17.130962   24.514731 H          1 MOL1         0.0833
      13    C5      20.454440   19.264584   24.230119 C.3        1 MOL1         0.1219
      14    H9      21.470266   19.513816   23.901731 H          1 MOL1         0.0790
      15    C6      19.485795   20.391424   23.794557 C.3        1 MOL1        -0.1760
      16    H10     18.576944   20.318217   24.407049 H          1 MOL1         0.0833
      17    H11     19.939832   21.359808   24.041135 H          1 MOL1         0.0833
      18    C7      19.043645   20.409515   22.308556 C.3        1 MOL1        -0.1684
      19    H12     18.309080   21.218470   22.195838 H          1 MOL1         0.0833
      20    H13     18.489037   19.496668   22.062765 H          1 MOL1         0.0833
      21    C8      20.164504   20.655243   21.267577 C.3        1 MOL1        -0.1684
      22    H14     19.682165   20.760332   20.286093 H          1 MOL1         0.0833
      23    H15     20.641081   21.624371   21.468161 H          1 MOL1         0.0833
      24    O1      20.452384   19.227442   25.652837 O.3        1 MOL1        -0.5508
      25    H16     20.731553   20.115640   25.958792 H          1 MOL1         0.3780
@<TRIPOS>BOND
    1     1     2    1
    2     1     3    1
    3     1     4    1
    4     4     5    1
    5     4     6    1
    6     4     7    1
    7     7     8    1
    8     7     9    1
    9     7    10    1
   10    10    11    1
   11    10    12    1
   12    10    13    1
   13    13    14    1
   14    13    15    1
   15    15    16    1
   16    15    17    1
   17    15    18    1
   18    18    19    1
   19    18    20    1
   20     1    21    1
   21    18    21    1
   22    21    22    1
   23    21    23    1
   24    13    24    1
   25    24    25    1
@<TRIPOS>SUBSTRUCTURE
       1 MOL1            1 RESIDUE      1      MOL     
@<SCITEGIC>MOL_PROPERTY
VM2 Rank
SciTegic.value.IntegerValue
1

@<SCITEGIC>MOL_PROPERTY
Conf_Id
SciTegic.value.IntegerValue
755

@<SCITEGIC>MOL_PROPERTY
Probability
SciTegic.value.DoubleValue
4.84

@<SCITEGIC>MOL_PROPERTY
Sum Probability
SciTegic.value.DoubleValue
4.84

@<SCITEGIC>MOL_PROPERTY
Delta G
SciTegic.value.DoubleValue
0.000

@<SCITEGIC>MOL_PROPERTY
G
SciTegic.value.DoubleValue
62.075

@<SCITEGIC>MOL_PROPERTY
E
SciTegic.value.DoubleValue
29.291

@<SCITEGIC>MOL_PROPERTY
-TS
SciTegic.value.DoubleValue
32.785

@<SCITEGIC>MOL_PROPERTY
U+W
SciTegic.value.DoubleValue
8.723

@<SCITEGIC>MOL_PROPERTY
U
SciTegic.value.DoubleValue
10.905

@<SCITEGIC>MOL_PROPERTY
W
SciTegic.value.DoubleValue
-2.182

@<SCITEGIC>MOL_PROPERTY
W(PB)
SciTegic.value.DoubleValue
-4.296

@<SCITEGIC>MOL_PROPERTY
W(SA)
SciTegic.value.DoubleValue
2.114

@<SCITEGIC>MOL_PROPERTY
Valence
SciTegic.value.DoubleValue
16.377

@<SCITEGIC>MOL_PROPERTY
Coulomb
SciTegic.value.DoubleValue
-8.448

@<SCITEGIC>MOL_PROPERTY
VdW
SciTegic.value.DoubleValue
2.976

@<SCITEGIC>MOL_PROPERTY
VdW6
SciTegic.value.DoubleValue
-12.570

@<SCITEGIC>MOL_PROPERTY
VdW12
SciTegic.value.DoubleValue
15.546

@<SCITEGIC>MOL_PROPERTY
Bond
SciTegic.value.DoubleValue
0.439

@<SCITEGIC>MOL_PROPERTY
Angle
SciTegic.value.DoubleValue
5.049

@<SCITEGIC>MOL_PROPERTY
Pdih
SciTegic.value.DoubleValue
10.889

@<SCITEGIC>MOL_PROPERTY
Idih
SciTegic.value.DoubleValue
0.000

@<SCITEGIC>MOL_PROPERTY
Tether
SciTegic.value.DoubleValue
0.000

@<TRIPOS>MOLECULE
guest-s17_vm2.mol2 : vm2 ligand conformer 2
          25          25           1
SMALL
USER_CHARGES
 
@<TRIPOS>ATOM
       1    C1      21.265593   19.569602   21.138608 C.3        1 MOL1        -0.1684
       2    H1      21.773526   19.740517   20.179502 H          1 MOL1         0.0833
       3    H2      22.049442   19.717758   21.889878 H          1 MOL1         0.0833
       4    C2      20.760045   18.103379   21.159636 C.3        1 MOL1        -0.1684
       5    H3      19.715708   18.040567   20.827910 H          1 MOL1         0.0833
       6    H4      21.332993   17.546048   20.405886 H          1 MOL1         0.0833
       7    C3      20.953493   17.365877   22.510879 C.3        1 MOL1        -0.1684
       8    H5      22.013689   17.400817   22.796754 H          1 MOL1         0.0833
       9    H6      20.727920   16.303421   22.345989 H          1 MOL1         0.0833
      10    C4      20.083263   17.854240   23.699301 C.3        1 MOL1        -0.1760
      11    H7      19.019174   17.802877   23.439454 H          1 MOL1         0.0833
      12    H8      20.211977   17.125998   24.511100 H          1 MOL1         0.0833
      13    C5      20.452859   19.264319   24.228435 C.3        1 MOL1         0.1219
      14    H9      21.465813   19.519067   23.895720 H          1 MOL1         0.0790
      15    C6      19.481494   20.388753   23.795087 C.3        1 MOL1        -0.1760
      16    H10     18.573421   20.311229   24.407846 H          1 MOL1         0.0833
      17    H11     19.934316   21.355560   24.049801 H          1 MOL1         0.0833
      18    C7      19.042947   20.411415   22.307779 C.3        1 MOL1        -0.1684
      19    H12     18.310479   21.222298   22.195526 H          1 MOL1         0.0833
      20    H13     18.486846   19.500415   22.058662 H          1 MOL1         0.0833
      21    C8      20.166533   20.656493   21.269337 C.3        1 MOL1        -0.1684
      22    H14     20.644694   21.624195   21.473024 H          1 MOL1         0.0833
      23    H15     19.685978   20.765032   20.287360 H          1 MOL1         0.0833
      24    O1      20.457773   19.228922   25.650938 O.3        1 MOL1        -0.5508
      25    H16     21.130837   18.566681   25.913433 H          1 MOL1         0.3780
@<TRIPOS>BOND
    1     1     2    1
    2     1     3    1
    3     1     4    1
    4     4     5    1
    5     4     6    1
    6     4     7    1
    7     7     8    1
    8     7     9    1
    9     7    10    1
   10    10    11    1
   11    10    12    1
   12    10    13    1
   13    13    14    1
   14    13    15    1
   15    15    16    1
   16    15    17    1
   17    15    18    1
   18    18    19    1
   19    18    20    1
   20     1    21    1
   21    18    21    1
   22    21    22    1
   23    21    23    1
   24    13    24    1
   25    24    25    1
@<TRIPOS>SUBSTRUCTURE
       1 MOL1            1 RESIDUE      1      MOL     
@<SCITEGIC>MOL_PROPERTY
VM2 Rank
SciTegic.value.IntegerValue
2

@<SCITEGIC>MOL_PROPERTY
Conf_Id
SciTegic.value.IntegerValue
384

@<SCITEGIC>MOL_PROPERTY
Probability
SciTegic.value.DoubleValue
4.56

@<SCITEGIC>MOL_PROPERTY
Sum Probability
SciTegic.value.DoubleValue
9.39

@<SCITEGIC>MOL_PROPERTY
Delta G
SciTegic.value.DoubleValue
0.036

@<SCITEGIC>MOL_PROPERTY
G
SciTegic.value.DoubleValue
62.111

@<SCITEGIC>MOL_PROPERTY
E
SciTegic.value.DoubleValue
29.304

@<SCITEGIC>MOL_PROPERTY
-TS
SciTegic.value.DoubleValue
32.807

@<SCITEGIC>MOL_PROPERTY
U+W
SciTegic.value.DoubleValue
8.736

@<SCITEGIC>MOL_PROPERTY
U
SciTegic.value.DoubleValue
10.865

@<SCITEGIC>MOL_PROPERTY
W
SciTegic.value.DoubleValue
-2.129

@<SCITEGIC>MOL_PROPERTY
W(PB)
SciTegic.value.DoubleValue
-4.247

@<SCITEGIC>MOL_PROPERTY
W(SA)
SciTegic.value.DoubleValue
2.118

@<SCITEGIC>MOL_PROPERTY
Valence
SciTegic.value.DoubleValue
16.387

@<SCITEGIC>MOL_PROPERTY
Coulomb
SciTegic.value.DoubleValue
-8.479

@<SCITEGIC>MOL_PROPERTY
VdW
SciTegic.value.DoubleValue
2.957

@<SCITEGIC>MOL_PROPERTY
VdW6
SciTegic.value.DoubleValue
-12.577

@<SCITEGIC>MOL_PROPERTY
VdW12
SciTegic.value.DoubleValue
15.534

@<SCITEGIC>MOL_PROPERTY
Bond
SciTegic.value.DoubleValue
0.441

@<SCITEGIC>MOL_PROPERTY
Angle
SciTegic.value.DoubleValue
5.030

@<SCITEGIC>MOL_PROPERTY
Pdih
SciTegic.value.DoubleValue
10.916

@<SCITEGIC>MOL_PROPERTY
Idih
SciTegic.value.DoubleValue
0.000

@<SCITEGIC>MOL_PROPERTY
Tether
SciTegic.value.DoubleValue
0.000

@<TRIPOS>MOLECULE
guest-s17_vm2.mol2 : vm2 ligand conformer 3
          25          25           1
SMALL
USER_CHARGES
 
@<TRIPOS>ATOM
       1    C1      21.242635   19.623796   21.138212 C.3        1 MOL1        -0.1684
       2    H1      21.726055   19.858476   20.179925 H          1 MOL1         0.0833
       3    H2      21.898658   20.075904   21.890565 H          1 MOL1         0.0833
       4    C2      21.232517   18.078917   21.274965 C.3        1 MOL1        -0.1684
       5    H3      20.968020   17.658577   20.294985 H          1 MOL1         0.0833
       6    H4      22.254572   17.732220   21.479354 H          1 MOL1         0.0833
       7    C3      20.264413   17.464645   22.316977 C.3        1 MOL1        -0.1684
       8    H5      20.317857   16.372705   22.209698 H          1 MOL1         0.0833
       9    H6      19.227128   17.716164   22.067836 H          1 MOL1         0.0833
      10    C4      20.561043   17.797500   23.801982 C.3        1 MOL1        -0.1760
      11    H7      19.865678   17.209238   24.415928 H          1 MOL1         0.0833
      12    H8      21.566527   17.435547   24.052397 H          1 MOL1         0.0833
      13    C5      20.447516   19.281280   24.230069 C.3        1 MOL1         0.1219
      14    H9      21.342423   19.822213   23.900841 H          1 MOL1         0.0790
      15    C6      19.190628   20.014185   23.694097 C.3        1 MOL1        -0.1760
      16    H10     18.398632   19.298592   23.443521 H          1 MOL1         0.0833
      17    H11     18.774983   20.627899   24.504728 H          1 MOL1         0.0833
      18    C7      19.460249   20.967201   22.499083 C.3        1 MOL1        -0.1684
      19    H12     20.233343   21.694544   22.782430 H          1 MOL1         0.0833
      20    H13     18.549037   21.557047   22.330125 H          1 MOL1         0.0833
      21    C8      19.848091   20.302454   21.152027 C.3        1 MOL1        -0.1684
      22    H14     19.066207   19.606467   20.822073 H          1 MOL1         0.0833
      23    H15     19.860594   21.097893   20.394313 H          1 MOL1         0.0833
      24    O1      20.416907   19.313023   25.652589 O.3        1 MOL1        -0.5508
      25    H16     21.241903   18.884198   25.962316 H          1 MOL1         0.3780
@<TRIPOS>BOND
    1     1     2    1
    2     1     3    1
    3     1     4    1
    4     4     5    1
    5     4     6    1
    6     4     7    1
    7     7     8    1
    8     7     9    1
    9     7    10    1
   10    10    11    1
   11    10    12    1
   12    10    13    1
   13    13    14    1
   14    13    15    1
   15    15    16    1
   16    15    17    1
   17    15    18    1
   18    18    19    1
   19    18    20    1
   20     1    21    1
   21    18    21    1
   22    21    22    1
   23    21    23    1
   24    13    24    1
   25    24    25    1
@<TRIPOS>SUBSTRUCTURE
       1 MOL1            1 RESIDUE      1      MOL     
@<SCITEGIC>MOL_PROPERTY
VM2 Rank
SciTegic.value.IntegerValue
3

@<SCITEGIC>MOL_PROPERTY
Conf_Id
SciTegic.value.IntegerValue
1279

@<SCITEGIC>MOL_PROPERTY
Probability
SciTegic.value.DoubleValue
4.44

@<SCITEGIC>MOL_PROPERTY
Sum Probability
SciTegic.value.DoubleValue
13.84

@<SCITEGIC>MOL_PROPERTY
Delta G
SciTegic.value.DoubleValue
0.051

@<SCITEGIC>MOL_PROPERTY
G
SciTegic.value.DoubleValue
62.126

@<SCITEGIC>MOL_PROPERTY
E
SciTegic.value.DoubleValue
29.342

@<SCITEGIC>MOL_PROPERTY
-TS
SciTegic.value.DoubleValue
32.784

@<SCITEGIC>MOL_PROPERTY
U+W
SciTegic.value.DoubleValue
8.774

@<SCITEGIC>MOL_PROPERTY
U
SciTegic.value.DoubleValue
10.905

@<SCITEGIC>MOL_PROPERTY
W
SciTegic.value.DoubleValue
-2.131

@<SCITEGIC>MOL_PROPERTY
W(PB)
SciTegic.value.DoubleValue
-4.281

@<SCITEGIC>MOL_PROPERTY
W(SA)
SciTegic.value.DoubleValue
2.150

@<SCITEGIC>MOL_PROPERTY
Valence
SciTegic.value.DoubleValue
16.378

@<SCITEGIC>MOL_PROPERTY
Coulomb
SciTegic.value.DoubleValue
-8.448

@<SCITEGIC>MOL_PROPERTY
VdW
SciTegic.value.DoubleValue
2.976

@<SCITEGIC>MOL_PROPERTY
VdW6
SciTegic.value.DoubleValue
-12.570

@<SCITEGIC>MOL_PROPERTY
VdW12
SciTegic.value.DoubleValue
15.546

@<SCITEGIC>MOL_PROPERTY
Bond
SciTegic.value.DoubleValue
0.439

@<SCITEGIC>MOL_PROPERTY
Angle
SciTegic.value.DoubleValue
5.049

@<SCITEGIC>MOL_PROPERTY
Pdih
SciTegic.value.DoubleValue
10.889

@<SCITEGIC>MOL_PROPERTY
Idih
SciTegic.value.DoubleValue
0.000

@<SCITEGIC>MOL_PROPERTY
Tether
SciTegic.value.DoubleValue
0.000

@<TRIPOS>MOLECULE
guest-s17_vm2.mol2 : vm2 ligand conformer 4
          25          25           1
SMALL
USER_CHARGES
 
@<TRIPOS>ATOM
       1    C1      21.243003   19.624541   21.138537 C.3        1 MOL1        -0.1684
       2    H1      21.724899   19.858414   20.179281 H          1 MOL1         0.0833
       3    H2      21.900202   20.078098   21.888972 H          1 MOL1         0.0833
       4    C2      21.234994   18.079492   21.276826 C.3        1 MOL1        -0.1684
       5    H3      20.974322   17.657981   20.296330 H          1 MOL1         0.0833
       6    H4      22.257126   17.734934   21.484434 H          1 MOL1         0.0833
       7    C3      20.265292   17.462814   22.316183 C.3        1 MOL1        -0.1684
       8    H5      20.321573   16.370999   22.209357 H          1 MOL1         0.0833
       9    H6      19.228301   17.711977   22.063604 H          1 MOL1         0.0833
      10    C4      20.555960   17.796317   23.802525 C.3        1 MOL1        -0.1760
      11    H7      19.857970   17.211695   24.416616 H          1 MOL1         0.0833
      12    H8      21.559399   17.434603   24.061203 H          1 MOL1         0.0833
      13    C5      20.446076   19.280314   24.228393 C.3        1 MOL1         0.1219
      14    H9      21.342904   19.815272   23.894940 H          1 MOL1         0.0790
      15    C6      19.188394   20.012786   23.693022 C.3        1 MOL1        -0.1760
      16    H10     18.400587   19.294997   23.434985 H          1 MOL1         0.0833
      17    H11     18.762417   20.622454   24.500963 H          1 MOL1         0.0833
      18    C7      19.460426   20.967807   22.500513 C.3        1 MOL1        -0.1684
      19    H12     20.233814   21.694573   22.784493 H          1 MOL1         0.0833
      20    H13     18.549689   21.558270   22.330819 H          1 MOL1         0.0833
      21    C8      19.848339   20.303160   21.153310 C.3        1 MOL1        -0.1684
      22    H14     19.066547   19.607077   20.823317 H          1 MOL1         0.0833
      23    H15     19.860539   21.098715   20.395700 H          1 MOL1         0.0833
      24    O1      20.421516   19.315768   25.650691 O.3        1 MOL1        -0.5508
      25    H16     20.428017   20.261248   25.908576 H          1 MOL1         0.3780
@<TRIPOS>BOND
    1     1     2    1
    2     1     3    1
    3     1     4    1
    4     4     5    1
    5     4     6    1
    6     4     7    1
    7     7     8    1
    8     7     9    1
    9     7    10    1
   10    10    11    1
   11    10    12    1
   12    10    13    1
   13    13    14    1
   14    13    15    1
   15    15    16    1
   16    15    17    1
   17    15    18    1
   18    18    19    1
   19    18    20    1
   20     1    21    1
   21    18    21    1
   22    21    22    1
   23    21    23    1
   24    13    24    1
   25    24    25    1
@<TRIPOS>SUBSTRUCTURE
       1 MOL1            1 RESIDUE      1      MOL     
@<SCITEGIC>MOL_PROPERTY
VM2 Rank
SciTegic.value.IntegerValue
4

@<SCITEGIC>MOL_PROPERTY
Conf_Id
SciTegic.value.IntegerValue
1494

@<SCITEGIC>MOL_PROPERTY
Probability
SciTegic.value.DoubleValue
4.44

@<SCITEGIC>MOL_PROPERTY
Sum Probability
SciTegic.value.DoubleValue
18.28

@<SCITEGIC>MOL_PROPERTY
Delta G
SciTegic.value.DoubleValue
0.051

@<SCITEGIC>MOL_PROPERTY
G
SciTegic.value.DoubleValue
62.127

@<SCITEGIC>MOL_PROPERTY
E
SciTegic.value.DoubleValue
29.319

@<SCITEGIC>MOL_PROPERTY
-TS
SciTegic.value.DoubleValue
32.807

@<SCITEGIC>MOL_PROPERTY
U+W
SciTegic.value.DoubleValue
8.752

@<SCITEGIC>MOL_PROPERTY
U
SciTegic.value.DoubleValue
10.865

@<SCITEGIC>MOL_PROPERTY
W
SciTegic.value.DoubleValue
-2.113

@<SCITEGIC>MOL_PROPERTY
W(PB)
SciTegic.value.DoubleValue
-4.265

@<SCITEGIC>MOL_PROPERTY
W(SA)
SciTegic.value.DoubleValue
2.152

@<SCITEGIC>MOL_PROPERTY
Valence
SciTegic.value.DoubleValue
16.387

@<SCITEGIC>MOL_PROPERTY
Coulomb
SciTegic.value.DoubleValue
-8.479

@<SCITEGIC>MOL_PROPERTY
VdW
SciTegic.value.DoubleValue
2.957

@<SCITEGIC>MOL_PROPERTY
VdW6
SciTegic.value.DoubleValue
-12.577

@<SCITEGIC>MOL_PROPERTY
VdW12
SciTegic.value.DoubleValue
15.533

@<SCITEGIC>MOL_PROPERTY
Bond
SciTegic.value.DoubleValue
0.441

@<SCITEGIC>MOL_PROPERTY
Angle
SciTegic.value.DoubleValue
5.030

@<SCITEGIC>MOL_PROPERTY
Pdih
SciTegic.value.DoubleValue
10.916

@<SCITEGIC>MOL_PROPERTY
Idih
SciTegic.value.DoubleValue
0.000

@<SCITEGIC>MOL_PROPERTY
Tether
SciTegic.value.DoubleValue
0.000

@<TRIPOS>MOLECULE
guest-s17_vm2.mol2 : vm2 ligand conformer 5
          25          25           1
SMALL
USER_CHARGES
 
@<TRIPOS>ATOM
       1    C1      20.755810   19.241485   20.800559 C.3        1 MOL1        -0.1684
       2    H1      20.701798   19.067012   19.717256 H          1 MOL1         0.0833
       3    H2      21.817455   19.427433   21.008188 H          1 MOL1         0.0833
       4    C2      20.266194   17.950847   21.506581 C.3        1 MOL1        -0.1684
       5    H3      19.204094   18.030579   21.763942 H          1 MOL1         0.0833
       6    H4      20.313662   17.125628   20.782858 H          1 MOL1         0.0833
       7    C3      21.100365   17.525515   22.740625 C.3        1 MOL1        -0.1684
       8    H5      22.042142   17.093633   22.375402 H          1 MOL1         0.0833
       9    H6      20.584903   16.705034   23.257115 H          1 MOL1         0.0833
      10    C4      21.465959   18.639624   23.758509 C.3        1 MOL1        -0.1760
      11    H7      22.104051   18.186215   24.528359 H          1 MOL1         0.0833
      12    H8      22.106844   19.387342   23.279079 H          1 MOL1         0.0833
      13    C5      20.299682   19.346095   24.492399 C.3        1 MOL1         0.1219
      14    H9      20.756076   20.033734   25.218833 H          1 MOL1         0.0790
      15    C6      19.329764   20.186813   23.626039 C.3        1 MOL1        -0.1760
      16    H10     18.553190   19.555601   23.180438 H          1 MOL1         0.0833
      17    H11     18.787328   20.846714   24.315724 H          1 MOL1         0.0833
      18    C7      19.992316   21.075309   22.539599 C.3        1 MOL1        -0.1684
      19    H12     21.029369   21.319648   22.802918 H          1 MOL1         0.0833
      20    H13     19.464111   22.038617   22.533752 H          1 MOL1         0.0833
      21    C8      19.909533   20.506045   21.099412 C.3        1 MOL1        -0.1684
      22    H14     18.859074   20.309532   20.844944 H          1 MOL1         0.0833
      23    H15     20.235951   21.296066   20.409380 H          1 MOL1         0.0833
      24    O1      19.544377   18.371266   25.196279 O.3        1 MOL1        -0.5508
      25    H16     19.250534   17.729692   24.518526 H          1 MOL1         0.3780
@<TRIPOS>BOND
    1     1     2    1
    2     1     3    1
    3     1     4    1
    4     4     5    1
    5     4     6    1
    6     4     7    1
    7     7     8    1
    8     7     9    1
    9     7    10    1
   10    10    11    1
   11    10    12    1
   12    10    13    1
   13    13    14    1
   14    13    15    1
   15    15    16    1
   16    15    17    1
   17    15    18    1
   18    18    19    1
   19    18    20    1
   20     1    21    1
   21    18    21    1
   22    21    22    1
   23    21    23    1
   24    13    24    1
   25    24    25    1
@<TRIPOS>SUBSTRUCTURE
       1 MOL1            1 RESIDUE      1      MOL     
@<SCITEGIC>MOL_PROPERTY
VM2 Rank
SciTegic.value.IntegerValue
5

@<SCITEGIC>MOL_PROPERTY
Conf_Id
SciTegic.value.IntegerValue
924

@<SCITEGIC>MOL_PROPERTY
Probability
SciTegic.value.DoubleValue
3.96

@<SCITEGIC>MOL_PROPERTY
Sum Probability
SciTegic.value.DoubleValue
22.24

@<SCITEGIC>MOL_PROPERTY
Delta G
SciTegic.value.DoubleValue
0.120

@<SCITEGIC>MOL_PROPERTY
G
SciTegic.value.DoubleValue
62.195

@<SCITEGIC>MOL_PROPERTY
E
SciTegic.value.DoubleValue
29.408

@<SCITEGIC>MOL_PROPERTY
-TS
SciTegic.value.DoubleValue
32.788

@<SCITEGIC>MOL_PROPERTY
U+W
SciTegic.value.DoubleValue
8.840

@<SCITEGIC>MOL_PROPERTY
U
SciTegic.value.DoubleValue
10.304

@<SCITEGIC>MOL_PROPERTY
W
SciTegic.value.DoubleValue
-1.464

@<SCITEGIC>MOL_PROPERTY
W(PB)
SciTegic.value.DoubleValue
-3.587

@<SCITEGIC>MOL_PROPERTY
W(SA)
SciTegic.value.DoubleValue
2.123

@<SCITEGIC>MOL_PROPERTY
Valence
SciTegic.value.DoubleValue
17.199

@<SCITEGIC>MOL_PROPERTY
Coulomb
SciTegic.value.DoubleValue
-9.376

@<SCITEGIC>MOL_PROPERTY
VdW
SciTegic.value.DoubleValue
2.481

@<SCITEGIC>MOL_PROPERTY
VdW6
SciTegic.value.DoubleValue
-13.059

@<SCITEGIC>MOL_PROPERTY
VdW12
SciTegic.value.DoubleValue
15.540

@<SCITEGIC>MOL_PROPERTY
Bond
SciTegic.value.DoubleValue
0.429

@<SCITEGIC>MOL_PROPERTY
Angle
SciTegic.value.DoubleValue
5.594

@<SCITEGIC>MOL_PROPERTY
Pdih
SciTegic.value.DoubleValue
11.176

@<SCITEGIC>MOL_PROPERTY
Idih
SciTegic.value.DoubleValue
0.000

@<SCITEGIC>MOL_PROPERTY
Tether
SciTegic.value.DoubleValue
0.000

@<TRIPOS>MOLECULE
guest-s17_vm2.mol2 : vm2 ligand conformer 6
          25          25           1
SMALL
USER_CHARGES
 
@<TRIPOS>ATOM
       1    C1      20.650035   19.497301   20.800113 C.3        1 MOL1        -0.1684
       2    H1      21.526694   20.124506   21.007132 H          1 MOL1         0.0833
       3    H2      20.490594   19.576213   19.716021 H          1 MOL1         0.0833
       4    C2      20.956957   18.008520   21.106597 C.3        1 MOL1        -0.1684
       5    H3      20.080734   17.396486   20.852667 H          1 MOL1         0.0833
       6    H4      21.750780   17.683876   20.420099 H          1 MOL1         0.0833
       7    C3      21.417033   17.674837   22.549525 C.3        1 MOL1        -0.1684
       8    H5      22.317915   18.243811   22.812573 H          1 MOL1         0.0833
       9    H6      21.733143   16.622664   22.549318 H          1 MOL1         0.0833
      10    C4      20.316224   17.830781   23.632416 C.3        1 MOL1        -0.1760
      11    H7      19.322781   17.717936   23.184762 H          1 MOL1         0.0833
      12    H8      20.404325   16.984479   24.326232 H          1 MOL1         0.0833
      13    C5      20.395054   19.115757   24.493088 C.3        1 MOL1         0.1219
      14    H9      21.203371   18.962067   25.222372 H          1 MOL1         0.0790
      15    C6      20.711519   20.439168   23.753947 C.3        1 MOL1        -0.1760
      16    H10     20.833933   21.215517   24.520569 H          1 MOL1         0.0833
      17    H11     21.695231   20.369286   23.277401 H          1 MOL1         0.0833
      18    C7      19.663676   20.955391   22.730953 C.3        1 MOL1        -0.1684
      19    H12     20.017421   21.927869   22.362169 H          1 MOL1         0.0833
      20    H13     18.715994   21.165897   23.244023 H          1 MOL1         0.0833
      21    C8      19.384894   20.056835   21.500310 C.3        1 MOL1        -0.1684
      22    H14     18.831881   20.666152   20.772351 H          1 MOL1         0.0833
      23    H15     18.696086   19.245085   21.759641 H          1 MOL1         0.0833
      24    O1      19.168608   19.264410   25.193050 O.3        1 MOL1        -0.5508
      25    H16     18.507021   19.501867   24.512442 H          1 MOL1         0.3780
@<TRIPOS>BOND
    1     1     2    1
    2     1     3    1
    3     1     4    1
    4     4     5    1
    5     4     6    1
    6     4     7    1
    7     7     8    1
    8     7     9    1
    9     7    10    1
   10    10    11    1
   11    10    12    1
   12    10    13    1
   13    13    14    1
   14    13    15    1
   15    15    16    1
   16    15    17    1
   17    15    18    1
   18    18    19    1
   19    18    20    1
   20     1    21    1
   21    18    21    1
   22    21    22    1
   23    21    23    1
   24    13    24    1
   25    24    25    1
@<TRIPOS>SUBSTRUCTURE
       1 MOL1            1 RESIDUE      1      MOL     
@<SCITEGIC>MOL_PROPERTY
VM2 Rank
SciTegic.value.IntegerValue
6

@<SCITEGIC>MOL_PROPERTY
Conf_Id
SciTegic.value.IntegerValue
88

@<SCITEGIC>MOL_PROPERTY
Probability
SciTegic.value.DoubleValue
3.80

@<SCITEGIC>MOL_PROPERTY
Sum Probability
SciTegic.value.DoubleValue
26.04

@<SCITEGIC>MOL_PROPERTY
Delta G
SciTegic.value.DoubleValue
0.144

@<SCITEGIC>MOL_PROPERTY
G
SciTegic.value.DoubleValue
62.220

@<SCITEGIC>MOL_PROPERTY
E
SciTegic.value.DoubleValue
29.432

@<SCITEGIC>MOL_PROPERTY
-TS
SciTegic.value.DoubleValue
32.788

@<SCITEGIC>MOL_PROPERTY
U+W
SciTegic.value.DoubleValue
8.864

@<SCITEGIC>MOL_PROPERTY
U
SciTegic.value.DoubleValue
10.304

@<SCITEGIC>MOL_PROPERTY
W
SciTegic.value.DoubleValue
-1.439

@<SCITEGIC>MOL_PROPERTY
W(PB)
SciTegic.value.DoubleValue
-3.553

@<SCITEGIC>MOL_PROPERTY
W(SA)
SciTegic.value.DoubleValue
2.114

@<SCITEGIC>MOL_PROPERTY
Valence
SciTegic.value.DoubleValue
17.199

@<SCITEGIC>MOL_PROPERTY
Coulomb
SciTegic.value.DoubleValue
-9.376

@<SCITEGIC>MOL_PROPERTY
VdW
SciTegic.value.DoubleValue
2.481

@<SCITEGIC>MOL_PROPERTY
VdW6
SciTegic.value.DoubleValue
-13.059

@<SCITEGIC>MOL_PROPERTY
VdW12
SciTegic.value.DoubleValue
15.540

@<SCITEGIC>MOL_PROPERTY
Bond
SciTegic.value.DoubleValue
0.429

@<SCITEGIC>MOL_PROPERTY
Angle
SciTegic.value.DoubleValue
5.594

@<SCITEGIC>MOL_PROPERTY
Pdih
SciTegic.value.DoubleValue
11.176

@<SCITEGIC>MOL_PROPERTY
Idih
SciTegic.value.DoubleValue
0.000

@<SCITEGIC>MOL_PROPERTY
Tether
SciTegic.value.DoubleValue
0.000

@<TRIPOS>MOLECULE
guest-s17_vm2.mol2 : vm2 ligand conformer 7
          25          25           1
SMALL
USER_CHARGES
 
@<TRIPOS>ATOM
       1    C1      21.242701   19.623402   21.138990 C.3        1 MOL1        -0.1684
       2    H1      21.727013   19.859198   20.181431 H          1 MOL1         0.0833
       3    H2      21.898215   20.074083   21.892701 H          1 MOL1         0.0833
       4    C2      21.231869   18.078504   21.273959 C.3        1 MOL1        -0.1684
       5    H3      20.966173   17.659140   20.293889 H          1 MOL1         0.0833
       6    H4      22.253988   17.731259   21.477134 H          1 MOL1         0.0833
       7    C3      20.264899   17.463963   22.316765 C.3        1 MOL1        -0.1684
       8    H5      20.319490   16.372050   22.209671 H          1 MOL1         0.0833
       9    H6      19.227281   17.714482   22.067974 H          1 MOL1         0.0833
      10    C4      20.562385   17.797444   23.801472 C.3        1 MOL1        -0.1760
      11    H7      19.873634   17.202082   24.415264 H          1 MOL1         0.0833
      12    H8      21.570746   17.442902   24.051657 H          1 MOL1         0.0833
      13    C5      20.445644   19.280871   24.230257 C.3        1 MOL1         0.1219
      14    H9      21.341726   19.821084   23.903530 H          1 MOL1         0.0790
      15    C6      19.189218   20.015106   23.694363 C.3        1 MOL1        -0.1760
      16    H10     18.396618   19.301118   23.440273 H          1 MOL1         0.0833
      17    H11     18.773100   20.632331   24.502130 H          1 MOL1         0.0833
      18    C7      19.461327   20.967563   22.499651 C.3        1 MOL1        -0.1684
      19    H12     20.235782   21.693412   22.783270 H          1 MOL1         0.0833
      20    H13     18.551427   21.559314   22.330114 H          1 MOL1         0.0833
      21    C8      19.848320   20.302238   21.152734 C.3        1 MOL1        -0.1684
      22    H14     19.860925   21.097408   20.394735 H          1 MOL1         0.0833
      23    H15     19.066157   19.606375   20.823173 H          1 MOL1         0.0833
      24    O1      20.417637   19.313908   25.651808 O.3        1 MOL1        -0.5508
      25    H16     19.603292   18.843048   25.923879 H          1 MOL1         0.3780
@<TRIPOS>BOND
    1     1     2    1
    2     1     3    1
    3     1     4    1
    4     4     5    1
    5     4     6    1
    6     4     7    1
    7     7     8    1
    8     7     9    1
    9     7    10    1
   10    10    11    1
   11    10    12    1
   12    10    13    1
   13    13    14    1
   14    13    15    1
   15    15    16    1
   16    15    17    1
   17    15    18    1
   18    18    19    1
   19    18    20    1
   20     1    21    1
   21    18    21    1
   22    21    22    1
   23    21    23    1
   24    13    24    1
   25    24    25    1
@<TRIPOS>SUBSTRUCTURE
       1 MOL1            1 RESIDUE      1      MOL     
@<SCITEGIC>MOL_PROPERTY
VM2 Rank
SciTegic.value.IntegerValue
7

@<SCITEGIC>MOL_PROPERTY
Conf_Id
SciTegic.value.IntegerValue
1311

@<SCITEGIC>MOL_PROPERTY
Probability
SciTegic.value.DoubleValue
3.71

@<SCITEGIC>MOL_PROPERTY
Sum Probability
SciTegic.value.DoubleValue
29.74

@<SCITEGIC>MOL_PROPERTY
Delta G
SciTegic.value.DoubleValue
0.159

@<SCITEGIC>MOL_PROPERTY
G
SciTegic.value.DoubleValue
62.234

@<SCITEGIC>MOL_PROPERTY
E
SciTegic.value.DoubleValue
29.468

@<SCITEGIC>MOL_PROPERTY
-TS
SciTegic.value.DoubleValue
32.766

@<SCITEGIC>MOL_PROPERTY
U+W
SciTegic.value.DoubleValue
8.900

@<SCITEGIC>MOL_PROPERTY
U
SciTegic.value.DoubleValue
10.935

@<SCITEGIC>MOL_PROPERTY
W
SciTegic.value.DoubleValue
-2.035

@<SCITEGIC>MOL_PROPERTY
W(PB)
SciTegic.value.DoubleValue
-4.170

@<SCITEGIC>MOL_PROPERTY
W(SA)
SciTegic.value.DoubleValue
2.136

@<SCITEGIC>MOL_PROPERTY
Valence
SciTegic.value.DoubleValue
16.757

@<SCITEGIC>MOL_PROPERTY
Coulomb
SciTegic.value.DoubleValue
-8.731

@<SCITEGIC>MOL_PROPERTY
VdW
SciTegic.value.DoubleValue
2.908

@<SCITEGIC>MOL_PROPERTY
VdW6
SciTegic.value.DoubleValue
-12.597

@<SCITEGIC>MOL_PROPERTY
VdW12
SciTegic.value.DoubleValue
15.505

@<SCITEGIC>MOL_PROPERTY
Bond
SciTegic.value.DoubleValue
0.434

@<SCITEGIC>MOL_PROPERTY
Angle
SciTegic.value.DoubleValue
5.069

@<SCITEGIC>MOL_PROPERTY
Pdih
SciTegic.value.DoubleValue
11.254

@<SCITEGIC>MOL_PROPERTY
Idih
SciTegic.value.DoubleValue
0.000

@<SCITEGIC>MOL_PROPERTY
Tether
SciTegic.value.DoubleValue
0.000

@<TRIPOS>MOLECULE
guest-s17_vm2.mol2 : vm2 ligand conformer 8
          25          25           1
SMALL
USER_CHARGES
 
@<TRIPOS>ATOM
       1    C1      21.264785   19.570281   21.139170 C.3        1 MOL1        -0.1684
       2    H1      21.775842   19.741597   20.181805 H          1 MOL1         0.0833
       3    H2      22.045379   19.719164   21.893756 H          1 MOL1         0.0833
       4    C2      20.759494   18.104133   21.159013 C.3        1 MOL1        -0.1684
       5    H3      19.715071   18.040997   20.827635 H          1 MOL1         0.0833
       6    H4      21.332480   17.547376   20.404873 H          1 MOL1         0.0833
       7    C3      20.953927   17.366690   22.509928 C.3        1 MOL1        -0.1684
       8    H5      22.014202   17.402979   22.795541 H          1 MOL1         0.0833
       9    H6      20.729841   16.303935   22.345098 H          1 MOL1         0.0833
      10    C4      20.085343   17.853130   23.700510 C.3        1 MOL1        -0.1760
      11    H7      19.020575   17.795771   23.444506 H          1 MOL1         0.0833
      12    H8      20.226256   17.126450   24.512109 H          1 MOL1         0.0833
      13    C5      20.452782   19.263514   24.230310 C.3        1 MOL1         0.1219
      14    H9      21.468938   19.514088   23.904452 H          1 MOL1         0.0790
      15    C6      19.486702   20.392414   23.794061 C.3        1 MOL1        -0.1760
      16    H10     18.577458   20.328863   24.406282 H          1 MOL1         0.0833
      17    H11     19.948004   21.357572   24.040544 H          1 MOL1         0.0833
      18    C7      19.043605   20.410456   22.308328 C.3        1 MOL1        -0.1684
      19    H12     18.309953   21.220279   22.195794 H          1 MOL1         0.0833
      20    H13     18.487980   19.498147   22.062809 H          1 MOL1         0.0833
      21    C8      20.163928   20.655138   21.266623 C.3        1 MOL1        -0.1684
      22    H14     20.640260   21.624631   21.466070 H          1 MOL1         0.0833
      23    H15     19.681479   20.758806   20.285046 H          1 MOL1         0.0833
      24    O1      20.453435   19.227244   25.652057 O.3        1 MOL1        -0.5508
      25    H16     19.544271   18.985026   25.923421 H          1 MOL1         0.3780
@<TRIPOS>BOND
    1     1     2    1
    2     1     3    1
    3     1     4    1
    4     4     5    1
    5     4     6    1
    6     4     7    1
    7     7     8    1
    8     7     9    1
    9     7    10    1
   10    10    11    1
   11    10    12    1
   12    10    13    1
   13    13    14    1
   14    13    15    1
   15    15    16    1
   16    15    17    1
   17    15    18    1
   18    18    19    1
   19    18    20    1
   20     1    21    1
   21    18    21    1
   22    21    22    1
   23    21    23    1
   24    13    24    1
   25    24    25    1
@<TRIPOS>SUBSTRUCTURE
       1 MOL1            1 RESIDUE      1      MOL     
@<SCITEGIC>MOL_PROPERTY
VM2 Rank
SciTegic.value.IntegerValue
8

@<SCITEGIC>MOL_PROPERTY
Conf_Id
SciTegic.value.IntegerValue
1371

@<SCITEGIC>MOL_PROPERTY
Probability
SciTegic.value.DoubleValue
3.62

@<SCITEGIC>MOL_PROPERTY
Sum Probability
SciTegic.value.DoubleValue
33.36

@<SCITEGIC>MOL_PROPERTY
Delta G
SciTegic.value.DoubleValue
0.173

@<SCITEGIC>MOL_PROPERTY
G
SciTegic.value.DoubleValue
62.249

@<SCITEGIC>MOL_PROPERTY
E
SciTegic.value.DoubleValue
29.482

@<SCITEGIC>MOL_PROPERTY
-TS
SciTegic.value.DoubleValue
32.767

@<SCITEGIC>MOL_PROPERTY
U+W
SciTegic.value.DoubleValue
8.915

@<SCITEGIC>MOL_PROPERTY
U
SciTegic.value.DoubleValue
10.935

@<SCITEGIC>MOL_PROPERTY
W
SciTegic.value.DoubleValue
-2.020

@<SCITEGIC>MOL_PROPERTY
W(PB)
SciTegic.value.DoubleValue
-4.135

@<SCITEGIC>MOL_PROPERTY
W(SA)
SciTegic.value.DoubleValue
2.115

@<SCITEGIC>MOL_PROPERTY
Valence
SciTegic.value.DoubleValue
16.758

@<SCITEGIC>MOL_PROPERTY
Coulomb
SciTegic.value.DoubleValue
-8.731

@<SCITEGIC>MOL_PROPERTY
VdW
SciTegic.value.DoubleValue
2.908

@<SCITEGIC>MOL_PROPERTY
VdW6
SciTegic.value.DoubleValue
-12.597

@<SCITEGIC>MOL_PROPERTY
VdW12
SciTegic.value.DoubleValue
15.505

@<SCITEGIC>MOL_PROPERTY
Bond
SciTegic.value.DoubleValue
0.434

@<SCITEGIC>MOL_PROPERTY
Angle
SciTegic.value.DoubleValue
5.070

@<SCITEGIC>MOL_PROPERTY
Pdih
SciTegic.value.DoubleValue
11.254

@<SCITEGIC>MOL_PROPERTY
Idih
SciTegic.value.DoubleValue
0.000

@<SCITEGIC>MOL_PROPERTY
Tether
SciTegic.value.DoubleValue
0.000

@<TRIPOS>MOLECULE
guest-s17_vm2.mol2 : vm2 ligand conformer 9
          25          25           1
SMALL
USER_CHARGES
 
@<TRIPOS>ATOM
       1    C1      20.080280   19.169738   20.750427 C.3        1 MOL1        -0.1684
       2    H1      19.010733   18.995260   20.924185 H          1 MOL1         0.0833
       3    H2      20.184902   19.240694   19.659131 H          1 MOL1         0.0833
       4    C2      20.918524   17.947061   21.206916 C.3        1 MOL1        -0.1684
       5    H3      20.629947   17.092469   20.579842 H          1 MOL1         0.0833
       6    H4      21.978822   18.129291   20.984689 H          1 MOL1         0.0833
       7    C3      20.770599   17.514348   22.688793 C.3        1 MOL1        -0.1684
       8    H5      21.306530   16.561797   22.799967 H          1 MOL1         0.0833
       9    H6      19.723570   17.282039   22.919982 H          1 MOL1         0.0833
      10    C4      21.372169   18.511014   23.717262 C.3        1 MOL1        -0.1760
      11    H7      21.909717   17.933776   24.481704 H          1 MOL1         0.0833
      12    H8      22.151273   19.119676   23.246520 H          1 MOL1         0.0833
      13    C5      20.359521   19.424433   24.452349 C.3        1 MOL1         0.1219
      14    H9      20.920731   20.248591   24.915317 H          1 MOL1         0.0790
      15    C6      19.224468   20.035360   23.596823 C.3        1 MOL1        -0.1760
      16    H10     18.614185   19.244191   23.148391 H          1 MOL1         0.0833
      17    H11     18.545875   20.559243   24.283076 H          1 MOL1         0.0833
      18    C7      19.655491   21.057891   22.514106 C.3        1 MOL1        -0.1684
      19    H12     20.173047   21.899411   22.994306 H          1 MOL1         0.0833
      20    H13     18.740252   21.481766   22.078700 H          1 MOL1         0.0833
      21    C8      20.531248   20.526402   21.350923 C.3        1 MOL1        -0.1684
      22    H14     20.501647   21.280726   20.552712 H          1 MOL1         0.0833
      23    H15     21.585141   20.483800   21.648265 H          1 MOL1         0.0833
      24    O1      19.751700   18.656753   25.482402 O.3        1 MOL1        -0.5508
      25    H16     19.354127   17.879964   25.039528 H          1 MOL1         0.3780
@<TRIPOS>BOND
    1     1     2    1
    2     1     3    1
    3     1     4    1
    4     4     5    1
    5     4     6    1
    6     4     7    1
    7     7     8    1
    8     7     9    1
    9     7    10    1
   10    10    11    1
   11    10    12    1
   12    10    13    1
   13    13    14    1
   14    13    15    1
   15    15    16    1
   16    15    17    1
   17    15    18    1
   18    18    19    1
   19    18    20    1
   20     1    21    1
   21    18    21    1
   22    21    22    1
   23    21    23    1
   24    13    24    1
   25    24    25    1
@<TRIPOS>SUBSTRUCTURE
       1 MOL1            1 RESIDUE      1      MOL     
@<SCITEGIC>MOL_PROPERTY
VM2 Rank
SciTegic.value.IntegerValue
9

@<SCITEGIC>MOL_PROPERTY
Conf_Id
SciTegic.value.IntegerValue
1355

@<SCITEGIC>MOL_PROPERTY
Probability
SciTegic.value.DoubleValue
3.43

@<SCITEGIC>MOL_PROPERTY
Sum Probability
SciTegic.value.DoubleValue
36.79

@<SCITEGIC>MOL_PROPERTY
Delta G
SciTegic.value.DoubleValue
0.205

@<SCITEGIC>MOL_PROPERTY
G
SciTegic.value.DoubleValue
62.280

@<SCITEGIC>MOL_PROPERTY
E
SciTegic.value.DoubleValue
29.544

@<SCITEGIC>MOL_PROPERTY
-TS
SciTegic.value.DoubleValue
32.736

@<SCITEGIC>MOL_PROPERTY
U+W
SciTegic.value.DoubleValue
8.976

@<SCITEGIC>MOL_PROPERTY
U
SciTegic.value.DoubleValue
10.541

@<SCITEGIC>MOL_PROPERTY
W
SciTegic.value.DoubleValue
-1.565

@<SCITEGIC>MOL_PROPERTY
W(PB)
SciTegic.value.DoubleValue
-3.702

@<SCITEGIC>MOL_PROPERTY
W(SA)
SciTegic.value.DoubleValue
2.137

@<SCITEGIC>MOL_PROPERTY
Valence
SciTegic.value.DoubleValue
17.202

@<SCITEGIC>MOL_PROPERTY
Coulomb
SciTegic.value.DoubleValue
-9.327

@<SCITEGIC>MOL_PROPERTY
VdW
SciTegic.value.DoubleValue
2.666

@<SCITEGIC>MOL_PROPERTY
VdW6
SciTegic.value.DoubleValue
-12.816

@<SCITEGIC>MOL_PROPERTY
VdW12
SciTegic.value.DoubleValue
15.482

@<SCITEGIC>MOL_PROPERTY
Bond
SciTegic.value.DoubleValue
0.428

@<SCITEGIC>MOL_PROPERTY
Angle
SciTegic.value.DoubleValue
5.357

@<SCITEGIC>MOL_PROPERTY
Pdih
SciTegic.value.DoubleValue
11.417

@<SCITEGIC>MOL_PROPERTY
Idih
SciTegic.value.DoubleValue
0.000

@<SCITEGIC>MOL_PROPERTY
Tether
SciTegic.value.DoubleValue
0.000

@<TRIPOS>MOLECULE
guest-s17_vm2.mol2 : vm2 ligand conformer 10
          25          25           1
SMALL
USER_CHARGES
 
@<TRIPOS>ATOM
       1    C1      20.153108   19.066526   20.748465 C.3        1 MOL1        -0.1684
       2    H1      19.296408   18.400154   20.911502 H          1 MOL1         0.0833
       3    H2      20.291396   19.093240   19.658937 H          1 MOL1         0.0833
       4    C2      21.446770   18.477395   21.368036 C.3        1 MOL1        -0.1684
       5    H3      21.991466   17.942077   20.578250 H          1 MOL1         0.0833
       6    H4      22.126940   19.280497   21.673508 H          1 MOL1         0.0833
       7    C3      21.226060   17.475594   22.529972 C.3        1 MOL1        -0.1684
       8    H5      22.188494   17.284839   23.023881 H          1 MOL1         0.0833
       9    H6      20.921693   16.515177   22.091943 H          1 MOL1         0.0833
      10    C4      20.167885   17.855465   23.597483 C.3        1 MOL1        -0.1760
      11    H7      19.178985   17.943927   23.135166 H          1 MOL1         0.0833
      12    H8      20.082146   17.002785   24.284121 H          1 MOL1         0.0833
      13    C5      20.478358   19.105054   24.455178 C.3        1 MOL1         0.1219
      14    H9      21.458000   18.958235   24.931920 H          1 MOL1         0.0790
      15    C6      20.505557   20.467419   23.718036 C.3        1 MOL1        -0.1760
      16    H10     20.436166   21.255317   24.480228 H          1 MOL1         0.0833
      17    H11     21.487850   20.625325   23.260614 H          1 MOL1         0.0833
      18    C7      19.379799   20.700729   22.673423 C.3        1 MOL1        -0.1684
      19    H12     19.042917   21.741155   22.778109 H          1 MOL1         0.0833
      20    H13     18.495169   20.090222   22.893412 H          1 MOL1         0.0833
      21    C8      19.818461   20.512922   21.197824 C.3        1 MOL1        -0.1684
      22    H14     20.675244   21.167160   20.986349 H          1 MOL1         0.0833
      23    H15     19.003959   20.880289   20.558720 H          1 MOL1         0.0833
      24    O1      19.488002   19.181895   25.471582 O.3        1 MOL1        -0.5508
      25    H16     18.653924   19.416560   25.016778 H          1 MOL1         0.3780
@<TRIPOS>BOND
    1     1     2    1
    2     1     3    1
    3     1     4    1
    4     4     5    1
    5     4     6    1
    6     4     7    1
    7     7     8    1
    8     7     9    1
    9     7    10    1
   10    10    11    1
   11    10    12    1
   12    10    13    1
   13    13    14    1
   14    13    15    1
   15    15    16    1
   16    15    17    1
   17    15    18    1
   18    18    19    1
   19    18    20    1
   20     1    21    1
   21    18    21    1
   22    21    22    1
   23    21    23    1
   24    13    24    1
   25    24    25    1
@<TRIPOS>SUBSTRUCTURE
       1 MOL1            1 RESIDUE      1      MOL     
@<SCITEGIC>MOL_PROPERTY
VM2 Rank
SciTegic.value.IntegerValue
10

@<SCITEGIC>MOL_PROPERTY
Conf_Id
SciTegic.value.IntegerValue
180

@<SCITEGIC>MOL_PROPERTY
Probability
SciTegic.value.DoubleValue
3.27

@<SCITEGIC>MOL_PROPERTY
Sum Probability
SciTegic.value.DoubleValue
40.06

@<SCITEGIC>MOL_PROPERTY
Delta G
SciTegic.value.DoubleValue
0.234

@<SCITEGIC>MOL_PROPERTY
G
SciTegic.value.DoubleValue
62.309

@<SCITEGIC>MOL_PROPERTY
E
SciTegic.value.DoubleValue
29.573

@<SCITEGIC>MOL_PROPERTY
-TS
SciTegic.value.DoubleValue
32.736

@<SCITEGIC>MOL_PROPERTY
U+W
SciTegic.value.DoubleValue
9.006

@<SCITEGIC>MOL_PROPERTY
U
SciTegic.value.DoubleValue
10.541

@<SCITEGIC>MOL_PROPERTY
W
SciTegic.value.DoubleValue
-1.536

@<SCITEGIC>MOL_PROPERTY
W(PB)
SciTegic.value.DoubleValue
-3.659

@<SCITEGIC>MOL_PROPERTY
W(SA)
SciTegic.value.DoubleValue
2.123

@<SCITEGIC>MOL_PROPERTY
Valence
SciTegic.value.DoubleValue
17.202

@<SCITEGIC>MOL_PROPERTY
Coulomb
SciTegic.value.DoubleValue
-9.327

@<SCITEGIC>MOL_PROPERTY
VdW
SciTegic.value.DoubleValue
2.666

@<SCITEGIC>MOL_PROPERTY
VdW6
SciTegic.value.DoubleValue
-12.816

@<SCITEGIC>MOL_PROPERTY
VdW12
SciTegic.value.DoubleValue
15.482

@<SCITEGIC>MOL_PROPERTY
Bond
SciTegic.value.DoubleValue
0.428

@<SCITEGIC>MOL_PROPERTY
Angle
SciTegic.value.DoubleValue
5.357

@<SCITEGIC>MOL_PROPERTY
Pdih
SciTegic.value.DoubleValue
11.417

@<SCITEGIC>MOL_PROPERTY
Idih
SciTegic.value.DoubleValue
0.000

@<SCITEGIC>MOL_PROPERTY
Tether
SciTegic.value.DoubleValue
0.000

@<TRIPOS>MOLECULE
guest-s17_vm2.mol2 : vm2 ligand conformer 11
          25          25           1
SMALL
USER_CHARGES
 
@<TRIPOS>ATOM
       1    C1      20.885096   19.438528   20.677186 C.3        1 MOL1        -0.1684
       2    H1      20.083301   19.098481   20.007571 H          1 MOL1         0.0833
       3    H2      21.695925   19.774187   20.016316 H          1 MOL1         0.0833
       4    C2      21.414645   18.231727   21.495582 C.3        1 MOL1        -0.1684
       5    H3      21.847142   17.522500   20.776548 H          1 MOL1         0.0833
       6    H4      22.252252   18.533593   22.137490 H          1 MOL1         0.0833
       7    C3      20.331730   17.472210   22.304816 C.3        1 MOL1        -0.1684
       8    H5      20.519101   16.394456   22.203124 H          1 MOL1         0.0833
       9    H6      19.342509   17.622262   21.857633 H          1 MOL1         0.0833
      10    C4      20.299593   17.791421   23.822250 C.3        1 MOL1        -0.1760
      11    H7      19.373179   17.387634   24.251454 H          1 MOL1         0.0833
      12    H8      21.118598   17.232225   24.293294 H          1 MOL1         0.0833
      13    C5      20.446670   19.275699   24.233389 C.3        1 MOL1         0.1219
      14    H9      21.387671   19.670738   23.831254 H          1 MOL1         0.0790
      15    C6      19.285588   20.204264   23.806739 C.3        1 MOL1        -0.1760
      16    H10     18.347081   19.829784   24.235694 H          1 MOL1         0.0833
      17    H11     19.460324   21.181892   24.275211 H          1 MOL1         0.0833
      18    C7      19.088014   20.440547   22.286347 C.3        1 MOL1        -0.1684
      19    H12     18.453853   21.330813   22.175898 H          1 MOL1         0.0833
      20    H13     18.501091   19.628424   21.842487 H          1 MOL1         0.0833
      21    C8      20.392676   20.670912   21.480583 C.3        1 MOL1        -0.1684
      22    H14     21.192135   21.063023   22.122396 H          1 MOL1         0.0833
      23    H15     20.193902   21.469092   20.752268 H          1 MOL1         0.0833
      24    O1      20.519989   19.317692   25.653110 O.3        1 MOL1        -0.5508
      25    H16     21.292890   18.774304   25.912792 H          1 MOL1         0.3780
@<TRIPOS>BOND
    1     1     2    1
    2     1     3    1
    3     1     4    1
    4     4     5    1
    5     4     6    1
    6     4     7    1
    7     7     8    1
    8     7     9    1
    9     7    10    1
   10    10    11    1
   11    10    12    1
   12    10    13    1
   13    13    14    1
   14    13    15    1
   15    15    16    1
   16    15    17    1
   17    15    18    1
   18    18    19    1
   19    18    20    1
   20     1    21    1
   21    18    21    1
   22    21    22    1
   23    21    23    1
   24    13    24    1
   25    24    25    1
@<TRIPOS>SUBSTRUCTURE
       1 MOL1            1 RESIDUE      1      MOL     
@<SCITEGIC>MOL_PROPERTY
VM2 Rank
SciTegic.value.IntegerValue
11

@<SCITEGIC>MOL_PROPERTY
Conf_Id
SciTegic.value.IntegerValue
273

@<SCITEGIC>MOL_PROPERTY
Probability
SciTegic.value.DoubleValue
3.19

@<SCITEGIC>MOL_PROPERTY
Sum Probability
SciTegic.value.DoubleValue
43.25

@<SCITEGIC>MOL_PROPERTY
Delta G
SciTegic.value.DoubleValue
0.248

@<SCITEGIC>MOL_PROPERTY
G
SciTegic.value.DoubleValue
62.324

@<SCITEGIC>MOL_PROPERTY
E
SciTegic.value.DoubleValue
29.662

@<SCITEGIC>MOL_PROPERTY
-TS
SciTegic.value.DoubleValue
32.661

@<SCITEGIC>MOL_PROPERTY
U+W
SciTegic.value.DoubleValue
9.095

@<SCITEGIC>MOL_PROPERTY
U
SciTegic.value.DoubleValue
11.209

@<SCITEGIC>MOL_PROPERTY
W
SciTegic.value.DoubleValue
-2.114

@<SCITEGIC>MOL_PROPERTY
W(PB)
SciTegic.value.DoubleValue
-4.242

@<SCITEGIC>MOL_PROPERTY
W(SA)
SciTegic.value.DoubleValue
2.128

@<SCITEGIC>MOL_PROPERTY
Valence
SciTegic.value.DoubleValue
16.993

@<SCITEGIC>MOL_PROPERTY
Coulomb
SciTegic.value.DoubleValue
-8.421

@<SCITEGIC>MOL_PROPERTY
VdW
SciTegic.value.DoubleValue
2.637

@<SCITEGIC>MOL_PROPERTY
VdW6
SciTegic.value.DoubleValue
-12.542

@<SCITEGIC>MOL_PROPERTY
VdW12
SciTegic.value.DoubleValue
15.179

@<SCITEGIC>MOL_PROPERTY
Bond
SciTegic.value.DoubleValue
0.410

@<SCITEGIC>MOL_PROPERTY
Angle
SciTegic.value.DoubleValue
5.145

@<SCITEGIC>MOL_PROPERTY
Pdih
SciTegic.value.DoubleValue
11.438

@<SCITEGIC>MOL_PROPERTY
Idih
SciTegic.value.DoubleValue
0.000

@<SCITEGIC>MOL_PROPERTY
Tether
SciTegic.value.DoubleValue
0.000

@<TRIPOS>MOLECULE
guest-s17_vm2.mol2 : vm2 ligand conformer 12
          25          25           1
SMALL
USER_CHARGES
 
@<TRIPOS>ATOM
       1    C1      20.885225   19.438244   20.677189 C.3        1 MOL1        -0.1684
       2    H1      20.083722   19.097515   20.007572 H          1 MOL1         0.0833
       3    H2      21.695807   19.774506   20.016324 H          1 MOL1         0.0833
       4    C2      21.415730   18.231864   21.495669 C.3        1 MOL1        -0.1684
       5    H3      21.849041   17.523112   20.776673 H          1 MOL1         0.0833
       6    H4      22.252858   18.534154   22.138045 H          1 MOL1         0.0833
       7    C3      20.333554   17.471061   22.304704 C.3        1 MOL1        -0.1684
       8    H5      20.524728   16.393690   22.206432 H          1 MOL1         0.0833
       9    H6      19.344873   17.616756   21.854909 H          1 MOL1         0.0833
      10    C4      20.296727   17.793561   23.821641 C.3        1 MOL1        -0.1760
      11    H7      19.369992   17.390997   24.250751 H          1 MOL1         0.0833
      12    H8      21.114497   17.238083   24.299609 H          1 MOL1         0.0833
      13    C5      20.446126   19.276979   24.233383 C.3        1 MOL1         0.1219
      14    H9      21.389154   19.667201   23.831293 H          1 MOL1         0.0790
      15    C6      19.286070   20.207823   23.807307 C.3        1 MOL1        -0.1760
      16    H10     18.346909   19.834450   24.236342 H          1 MOL1         0.0833
      17    H11     19.459070   21.188865   24.268803 H          1 MOL1         0.0833
      18    C7      19.087564   20.438447   22.286474 C.3        1 MOL1        -0.1684
      19    H12     18.450487   21.326238   22.172622 H          1 MOL1         0.0833
      20    H13     18.503352   19.622920   21.845272 H          1 MOL1         0.0833
      21    C8      20.391830   20.670238   21.480503 C.3        1 MOL1        -0.1684
      22    H14     20.192155   21.468171   20.752149 H          1 MOL1         0.0833
      23    H15     21.191320   21.062979   22.121849 H          1 MOL1         0.0833
      24    O1      20.521173   19.314783   25.653130 O.3        1 MOL1        -0.5508
      25    H16     20.673821   20.249664   25.903681 H          1 MOL1         0.3780
@<TRIPOS>BOND
    1     1     2    1
    2     1     3    1
    3     1     4    1
    4     4     5    1
    5     4     6    1
    6     4     7    1
    7     7     8    1
    8     7     9    1
    9     7    10    1
   10    10    11    1
   11    10    12    1
   12    10    13    1
   13    13    14    1
   14    13    15    1
   15    15    16    1
   16    15    17    1
   17    15    18    1
   18    18    19    1
   19    18    20    1
   20     1    21    1
   21    18    21    1
   22    21    22    1
   23    21    23    1
   24    13    24    1
   25    24    25    1
@<TRIPOS>SUBSTRUCTURE
       1 MOL1            1 RESIDUE      1      MOL     
@<SCITEGIC>MOL_PROPERTY
VM2 Rank
SciTegic.value.IntegerValue
12

@<SCITEGIC>MOL_PROPERTY
Conf_Id
SciTegic.value.IntegerValue
937

@<SCITEGIC>MOL_PROPERTY
Probability
SciTegic.value.DoubleValue
3.14

@<SCITEGIC>MOL_PROPERTY
Sum Probability
SciTegic.value.DoubleValue
46.39

@<SCITEGIC>MOL_PROPERTY
Delta G
SciTegic.value.DoubleValue
0.258

@<SCITEGIC>MOL_PROPERTY
G
SciTegic.value.DoubleValue
62.334

@<SCITEGIC>MOL_PROPERTY
E
SciTegic.value.DoubleValue
29.672

@<SCITEGIC>MOL_PROPERTY
-TS
SciTegic.value.DoubleValue
32.661

@<SCITEGIC>MOL_PROPERTY
U+W
SciTegic.value.DoubleValue
9.105

@<SCITEGIC>MOL_PROPERTY
U
SciTegic.value.DoubleValue
11.209

@<SCITEGIC>MOL_PROPERTY
W
SciTegic.value.DoubleValue
-2.104

@<SCITEGIC>MOL_PROPERTY
W(PB)
SciTegic.value.DoubleValue
-4.233

@<SCITEGIC>MOL_PROPERTY
W(SA)
SciTegic.value.DoubleValue
2.129

@<SCITEGIC>MOL_PROPERTY
Valence
SciTegic.value.DoubleValue
16.994

@<SCITEGIC>MOL_PROPERTY
Coulomb
SciTegic.value.DoubleValue
-8.421

@<SCITEGIC>MOL_PROPERTY
VdW
SciTegic.value.DoubleValue
2.637

@<SCITEGIC>MOL_PROPERTY
VdW6
SciTegic.value.DoubleValue
-12.542

@<SCITEGIC>MOL_PROPERTY
VdW12
SciTegic.value.DoubleValue
15.179

@<SCITEGIC>MOL_PROPERTY
Bond
SciTegic.value.DoubleValue
0.410

@<SCITEGIC>MOL_PROPERTY
Angle
SciTegic.value.DoubleValue
5.145

@<SCITEGIC>MOL_PROPERTY
Pdih
SciTegic.value.DoubleValue
11.438

@<SCITEGIC>MOL_PROPERTY
Idih
SciTegic.value.DoubleValue
0.000

@<SCITEGIC>MOL_PROPERTY
Tether
SciTegic.value.DoubleValue
0.000

@<TRIPOS>MOLECULE
guest-s17_vm2.mol2 : vm2 ligand conformer 13
          25          25           1
SMALL
USER_CHARGES
 
@<TRIPOS>ATOM
       1    C1      20.559016   19.223377   20.605383 C.3        1 MOL1        -0.1684
       2    H1      20.076258   18.473839   19.963789 H          1 MOL1         0.0833
       3    H2      21.134003   19.867790   19.926382 H          1 MOL1         0.0833
       4    C2      21.572616   18.518425   21.541504 C.3        1 MOL1        -0.1684
       5    H3      22.321943   18.031698   20.902419 H          1 MOL1         0.0833
       6    H4      22.140200   19.259846   22.115346 H          1 MOL1         0.0833
       7    C3      20.993166   17.430162   22.480008 C.3        1 MOL1        -0.1684
       8    H5      21.838693   16.947314   22.988817 H          1 MOL1         0.0833
       9    H6      20.521195   16.643865   21.875416 H          1 MOL1         0.0833
      10    C4      19.990000   17.901051   23.564761 C.3        1 MOL1        -0.1760
      11    H7      18.990524   18.012511   23.132443 H          1 MOL1         0.0833
      12    H8      19.884144   17.079641   24.285886 H          1 MOL1         0.0833
      13    C5      20.394962   19.197417   24.313204 C.3        1 MOL1         0.1219
      14    H9      21.472827   19.372831   24.196610 H          1 MOL1         0.0790
      15    C6      19.623666   20.459881   23.854185 C.3        1 MOL1        -0.1760
      16    H10     18.544877   20.274810   23.939064 H          1 MOL1         0.0833
      17    H11     19.843480   21.262661   24.570435 H          1 MOL1         0.0833
      18    C7      19.944691   21.000349   22.433945 C.3        1 MOL1        -0.1684
      19    H12     21.013317   21.231800   22.337819 H          1 MOL1         0.0833
      20    H13     19.432047   21.967023   22.335752 H          1 MOL1         0.0833
      21    C8      19.462889   20.096945   21.269224 C.3        1 MOL1        -0.1684
      22    H14     19.048267   20.744429   20.484440 H          1 MOL1         0.0833
      23    H15     18.615791   19.478727   21.587088 H          1 MOL1         0.0833
      24    O1      20.122994   19.015392   25.697785 O.3        1 MOL1        -0.5508
      25    H16     20.668720   18.257021   25.993707 H          1 MOL1         0.3780
@<TRIPOS>BOND
    1     1     2    1
    2     1     3    1
    3     1     4    1
    4     4     5    1
    5     4     6    1
    6     4     7    1
    7     7     8    1
    8     7     9    1
    9     7    10    1
   10    10    11    1
   11    10    12    1
   12    10    13    1
   13    13    14    1
   14    13    15    1
   15    15    16    1
   16    15    17    1
   17    15    18    1
   18    18    19    1
   19    18    20    1
   20     1    21    1
   21    18    21    1
   22    21    22    1
   23    21    23    1
   24    13    24    1
   25    24    25    1
@<TRIPOS>SUBSTRUCTURE
       1 MOL1            1 RESIDUE      1      MOL     
@<SCITEGIC>MOL_PROPERTY
VM2 Rank
SciTegic.value.IntegerValue
13

@<SCITEGIC>MOL_PROPERTY
Conf_Id
SciTegic.value.IntegerValue
1325

@<SCITEGIC>MOL_PROPERTY
Probability
SciTegic.value.DoubleValue
2.74

@<SCITEGIC>MOL_PROPERTY
Sum Probability
SciTegic.value.DoubleValue
49.13

@<SCITEGIC>MOL_PROPERTY
Delta G
SciTegic.value.DoubleValue
0.340

@<SCITEGIC>MOL_PROPERTY
G
SciTegic.value.DoubleValue
62.415

@<SCITEGIC>MOL_PROPERTY
E
SciTegic.value.DoubleValue
29.634

@<SCITEGIC>MOL_PROPERTY
-TS
SciTegic.value.DoubleValue
32.781

@<SCITEGIC>MOL_PROPERTY
U+W
SciTegic.value.DoubleValue
9.067

@<SCITEGIC>MOL_PROPERTY
U
SciTegic.value.DoubleValue
11.150

@<SCITEGIC>MOL_PROPERTY
W
SciTegic.value.DoubleValue
-2.083

@<SCITEGIC>MOL_PROPERTY
W(PB)
SciTegic.value.DoubleValue
-4.217

@<SCITEGIC>MOL_PROPERTY
W(SA)
SciTegic.value.DoubleValue
2.134

@<SCITEGIC>MOL_PROPERTY
Valence
SciTegic.value.DoubleValue
16.583

@<SCITEGIC>MOL_PROPERTY
Coulomb
SciTegic.value.DoubleValue
-8.361

@<SCITEGIC>MOL_PROPERTY
VdW
SciTegic.value.DoubleValue
2.928

@<SCITEGIC>MOL_PROPERTY
VdW6
SciTegic.value.DoubleValue
-12.538

@<SCITEGIC>MOL_PROPERTY
VdW12
SciTegic.value.DoubleValue
15.466

@<SCITEGIC>MOL_PROPERTY
Bond
SciTegic.value.DoubleValue
0.441

@<SCITEGIC>MOL_PROPERTY
Angle
SciTegic.value.DoubleValue
5.093

@<SCITEGIC>MOL_PROPERTY
Pdih
SciTegic.value.DoubleValue
11.049

@<SCITEGIC>MOL_PROPERTY
Idih
SciTegic.value.DoubleValue
0.000

@<SCITEGIC>MOL_PROPERTY
Tether
SciTegic.value.DoubleValue
0.000

@<TRIPOS>MOLECULE
guest-s17_vm2.mol2 : vm2 ligand conformer 14
          25          25           1
SMALL
USER_CHARGES
 
@<TRIPOS>ATOM
       1    C1      20.522429   19.366723   20.607159 C.3        1 MOL1        -0.1684
       2    H1      19.658984   19.552842   19.954223 H          1 MOL1         0.0833
       3    H2      21.392758   19.313871   19.938837 H          1 MOL1         0.0833
       4    C2      20.356137   17.977208   21.275664 C.3        1 MOL1        -0.1684
       5    H3      19.316137   17.817508   21.581767 H          1 MOL1         0.0833
       6    H4      20.529749   17.222361   20.496498 H          1 MOL1         0.0833
       7    C3      21.321304   17.684035   22.453520 C.3        1 MOL1        -0.1684
       8    H5      22.242092   18.274970   22.365675 H          1 MOL1         0.0833
       9    H6      21.642802   16.637343   22.364188 H          1 MOL1         0.0833
      10    C4      20.695154   17.846355   23.865553 C.3        1 MOL1        -0.1760
      11    H7      19.800073   17.215380   23.942648 H          1 MOL1         0.0833
      12    H8      21.409258   17.437097   24.592431 H          1 MOL1         0.0833
      13    C5      20.343334   19.286836   24.313489 C.3        1 MOL1         0.1219
      14    H9      21.231312   19.923841   24.204514 H          1 MOL1         0.0790
      15    C6      19.149835   19.914314   23.547619 C.3        1 MOL1        -0.1760
      16    H10     18.526646   19.127099   23.111498 H          1 MOL1         0.0833
      17    H11     18.485851   20.424112   24.258375 H          1 MOL1         0.0833
      18    C7      19.539960   20.951219   22.462542 C.3        1 MOL1        -0.1684
      19    H12     19.790895   21.892776   22.969936 H          1 MOL1         0.0833
      20    H13     18.657736   21.171151   21.846212 H          1 MOL1         0.0833
      21    C8      20.730200   20.586231   21.540055 C.3        1 MOL1        -0.1684
      22    H14     21.648734   20.465462   22.125598 H          1 MOL1         0.0833
      23    H15     20.924185   21.457083   20.899112 H          1 MOL1         0.0833
      24    O1      20.005646   19.230080   25.694398 O.3        1 MOL1        -0.5508
      25    H16     19.852382   20.153724   25.984067 H          1 MOL1         0.3780
@<TRIPOS>BOND
    1     1     2    1
    2     1     3    1
    3     1     4    1
    4     4     5    1
    5     4     6    1
    6     4     7    1
    7     7     8    1
    8     7     9    1
    9     7    10    1
   10    10    11    1
   11    10    12    1
   12    10    13    1
   13    13    14    1
   14    13    15    1
   15    15    16    1
   16    15    17    1
   17    15    18    1
   18    18    19    1
   19    18    20    1
   20     1    21    1
   21    18    21    1
   22    21    22    1
   23    21    23    1
   24    13    24    1
   25    24    25    1
@<TRIPOS>SUBSTRUCTURE
       1 MOL1            1 RESIDUE      1      MOL     
@<SCITEGIC>MOL_PROPERTY
VM2 Rank
SciTegic.value.IntegerValue
14

@<SCITEGIC>MOL_PROPERTY
Conf_Id
SciTegic.value.IntegerValue
60

@<SCITEGIC>MOL_PROPERTY
Probability
SciTegic.value.DoubleValue
2.70

@<SCITEGIC>MOL_PROPERTY
Sum Probability
SciTegic.value.DoubleValue
51.82

@<SCITEGIC>MOL_PROPERTY
Delta G
SciTegic.value.DoubleValue
0.348

@<SCITEGIC>MOL_PROPERTY
G
SciTegic.value.DoubleValue
62.424

@<SCITEGIC>MOL_PROPERTY
E
SciTegic.value.DoubleValue
29.643

@<SCITEGIC>MOL_PROPERTY
-TS
SciTegic.value.DoubleValue
32.781

@<SCITEGIC>MOL_PROPERTY
U+W
SciTegic.value.DoubleValue
9.075

@<SCITEGIC>MOL_PROPERTY
U
SciTegic.value.DoubleValue
11.150

@<SCITEGIC>MOL_PROPERTY
W
SciTegic.value.DoubleValue
-2.074

@<SCITEGIC>MOL_PROPERTY
W(PB)
SciTegic.value.DoubleValue
-4.196

@<SCITEGIC>MOL_PROPERTY
W(SA)
SciTegic.value.DoubleValue
2.121

@<SCITEGIC>MOL_PROPERTY
Valence
SciTegic.value.DoubleValue
16.582

@<SCITEGIC>MOL_PROPERTY
Coulomb
SciTegic.value.DoubleValue
-8.361

@<SCITEGIC>MOL_PROPERTY
VdW
SciTegic.value.DoubleValue
2.928

@<SCITEGIC>MOL_PROPERTY
VdW6
SciTegic.value.DoubleValue
-12.539

@<SCITEGIC>MOL_PROPERTY
VdW12
SciTegic.value.DoubleValue
15.467

@<SCITEGIC>MOL_PROPERTY
Bond
SciTegic.value.DoubleValue
0.441

@<SCITEGIC>MOL_PROPERTY
Angle
SciTegic.value.DoubleValue
5.093

@<SCITEGIC>MOL_PROPERTY
Pdih
SciTegic.value.DoubleValue
11.049

@<SCITEGIC>MOL_PROPERTY
Idih
SciTegic.value.DoubleValue
0.000

@<SCITEGIC>MOL_PROPERTY
Tether
SciTegic.value.DoubleValue
0.000

@<TRIPOS>MOLECULE
guest-s17_vm2.mol2 : vm2 ligand conformer 15
          25          25           1
SMALL
USER_CHARGES
 
@<TRIPOS>ATOM
       1    C1      20.522007   19.365789   20.605899 C.3        1 MOL1        -0.1684
       2    H1      21.392719   19.311054   19.938233 H          1 MOL1         0.0833
       3    H2      19.659022   19.552000   19.952381 H          1 MOL1         0.0833
       4    C2      20.353540   17.978121   21.277024 C.3        1 MOL1        -0.1684
       5    H3      19.313965   17.822350   21.586609 H          1 MOL1         0.0833
       6    H4      20.522858   17.221197   20.498926 H          1 MOL1         0.0833
       7    C3      21.321585   17.685797   22.452576 C.3        1 MOL1        -0.1684
       8    H5      22.241846   18.277262   22.362640 H          1 MOL1         0.0833
       9    H6      21.643753   16.639391   22.361894 H          1 MOL1         0.0833
      10    C4      20.698362   17.846941   23.865810 C.3        1 MOL1        -0.1760
      11    H7      19.803169   17.215582   23.941543 H          1 MOL1         0.0833
      12    H8      21.414981   17.433085   24.587282 H          1 MOL1         0.0833
      13    C5      20.344651   19.287282   24.315326 C.3        1 MOL1         0.1219
      14    H9      21.229643   19.928999   24.209341 H          1 MOL1         0.0790
      15    C6      19.151999   19.915744   23.549369 C.3        1 MOL1        -0.1760
      16    H10     18.522346   19.130006   23.120159 H          1 MOL1         0.0833
      17    H11     18.497440   20.431015   24.265319 H          1 MOL1         0.0833
      18    C7      19.540130   20.950130   22.460745 C.3        1 MOL1        -0.1684
      19    H12     19.790799   21.892416   22.966950 H          1 MOL1         0.0833
      20    H13     18.656947   21.168515   21.845329 H          1 MOL1         0.0833
      21    C8      20.730135   20.585602   21.538036 C.3        1 MOL1        -0.1684
      22    H14     20.923780   21.456310   20.896809 H          1 MOL1         0.0833
      23    H15     21.648487   20.465315   22.123960 H          1 MOL1         0.0833
      24    O1      20.001591   19.227596   25.695215 O.3        1 MOL1        -0.5508
      25    H16     20.787932   18.883584   26.168018 H          1 MOL1         0.3780
@<TRIPOS>BOND
    1     1     2    1
    2     1     3    1
    3     1     4    1
    4     4     5    1
    5     4     6    1
    6     4     7    1
    7     7     8    1
    8     7     9    1
    9     7    10    1
   10    10    11    1
   11    10    12    1
   12    10    13    1
   13    13    14    1
   14    13    15    1
   15    15    16    1
   16    15    17    1
   17    15    18    1
   18    18    19    1
   19    18    20    1
   20     1    21    1
   21    18    21    1
   22    21    22    1
   23    21    23    1
   24    13    24    1
   25    24    25    1
@<TRIPOS>SUBSTRUCTURE
       1 MOL1            1 RESIDUE      1      MOL     
@<SCITEGIC>MOL_PROPERTY
VM2 Rank
SciTegic.value.IntegerValue
15

@<SCITEGIC>MOL_PROPERTY
Conf_Id
SciTegic.value.IntegerValue
1341

@<SCITEGIC>MOL_PROPERTY
Probability
SciTegic.value.DoubleValue
2.67

@<SCITEGIC>MOL_PROPERTY
Sum Probability
SciTegic.value.DoubleValue
54.49

@<SCITEGIC>MOL_PROPERTY
Delta G
SciTegic.value.DoubleValue
0.354

@<SCITEGIC>MOL_PROPERTY
G
SciTegic.value.DoubleValue
62.430

@<SCITEGIC>MOL_PROPERTY
E
SciTegic.value.DoubleValue
29.684

@<SCITEGIC>MOL_PROPERTY
-TS
SciTegic.value.DoubleValue
32.745

@<SCITEGIC>MOL_PROPERTY
U+W
SciTegic.value.DoubleValue
9.117

@<SCITEGIC>MOL_PROPERTY
U
SciTegic.value.DoubleValue
11.364

@<SCITEGIC>MOL_PROPERTY
W
SciTegic.value.DoubleValue
-2.248

@<SCITEGIC>MOL_PROPERTY
W(PB)
SciTegic.value.DoubleValue
-4.367

@<SCITEGIC>MOL_PROPERTY
W(SA)
SciTegic.value.DoubleValue
2.119

@<SCITEGIC>MOL_PROPERTY
Valence
SciTegic.value.DoubleValue
16.582

@<SCITEGIC>MOL_PROPERTY
Coulomb
SciTegic.value.DoubleValue
-8.150

@<SCITEGIC>MOL_PROPERTY
VdW
SciTegic.value.DoubleValue
2.932

@<SCITEGIC>MOL_PROPERTY
VdW6
SciTegic.value.DoubleValue
-12.531

@<SCITEGIC>MOL_PROPERTY
VdW12
SciTegic.value.DoubleValue
15.464

@<SCITEGIC>MOL_PROPERTY
Bond
SciTegic.value.DoubleValue
0.439

@<SCITEGIC>MOL_PROPERTY
Angle
SciTegic.value.DoubleValue
5.099

@<SCITEGIC>MOL_PROPERTY
Pdih
SciTegic.value.DoubleValue
11.044

@<SCITEGIC>MOL_PROPERTY
Idih
SciTegic.value.DoubleValue
0.000

@<SCITEGIC>MOL_PROPERTY
Tether
SciTegic.value.DoubleValue
0.000

@<TRIPOS>MOLECULE
guest-s17_vm2.mol2 : vm2 ligand conformer 16
          25          25           1
SMALL
USER_CHARGES
 
@<TRIPOS>ATOM
       1    C1      20.557957   19.223602   20.604131 C.3        1 MOL1        -0.1684
       2    H1      20.075542   18.474257   19.962053 H          1 MOL1         0.0833
       3    H2      21.131843   19.869559   19.925672 H          1 MOL1         0.0833
       4    C2      21.572092   18.518769   21.539485 C.3        1 MOL1        -0.1684
       5    H3      22.321073   18.031903   20.900117 H          1 MOL1         0.0833
       6    H4      22.139880   19.259783   22.113648 H          1 MOL1         0.0833
       7    C3      20.992582   17.431030   22.478297 C.3        1 MOL1        -0.1684
       8    H5      21.838471   16.947595   22.985982 H          1 MOL1         0.0833
       9    H6      20.518925   16.645057   21.874693 H          1 MOL1         0.0833
      10    C4      19.992575   17.901616   23.566521 C.3        1 MOL1        -0.1760
      11    H7      18.989626   18.007535   23.141148 H          1 MOL1         0.0833
      12    H8      19.897244   17.083080   24.292775 H          1 MOL1         0.0833
      13    C5      20.396236   19.198106   24.315018 C.3        1 MOL1         0.1219
      14    H9      21.475331   19.368112   24.201456 H          1 MOL1         0.0790
      15    C6      19.626367   20.461777   23.854364 C.3        1 MOL1        -0.1760
      16    H10     18.547220   20.276891   23.937901 H          1 MOL1         0.0833
      17    H11     19.844700   21.269544   24.565128 H          1 MOL1         0.0833
      18    C7      19.946130   20.999282   22.432942 C.3        1 MOL1        -0.1684
      19    H12     21.014748   21.229941   22.334700 H          1 MOL1         0.0833
      20    H13     19.434171   21.966217   22.333368 H          1 MOL1         0.0833
      21    C8      19.461656   20.094437   21.270604 C.3        1 MOL1        -0.1684
      22    H14     18.617631   19.473836   21.592005 H          1 MOL1         0.0833
      23    H15     19.042546   20.740346   20.486905 H          1 MOL1         0.0833
      24    O1      20.118405   19.014381   25.698638 O.3        1 MOL1        -0.5508
      25    H16     20.433953   19.819090   26.160256 H          1 MOL1         0.3780
@<TRIPOS>BOND
    1     1     2    1
    2     1     3    1
    3     1     4    1
    4     4     5    1
    5     4     6    1
    6     4     7    1
    7     7     8    1
    8     7     9    1
    9     7    10    1
   10    10    11    1
   11    10    12    1
   12    10    13    1
   13    13    14    1
   14    13    15    1
   15    15    16    1
   16    15    17    1
   17    15    18    1
   18    18    19    1
   19    18    20    1
   20     1    21    1
   21    18    21    1
   22    21    22    1
   23    21    23    1
   24    13    24    1
   25    24    25    1
@<TRIPOS>SUBSTRUCTURE
       1 MOL1            1 RESIDUE      1      MOL     
@<SCITEGIC>MOL_PROPERTY
VM2 Rank
SciTegic.value.IntegerValue
16

@<SCITEGIC>MOL_PROPERTY
Conf_Id
SciTegic.value.IntegerValue
1026

@<SCITEGIC>MOL_PROPERTY
Probability
SciTegic.value.DoubleValue
2.60

@<SCITEGIC>MOL_PROPERTY
Sum Probability
SciTegic.value.DoubleValue
57.09

@<SCITEGIC>MOL_PROPERTY
Delta G
SciTegic.value.DoubleValue
0.370

@<SCITEGIC>MOL_PROPERTY
G
SciTegic.value.DoubleValue
62.445

@<SCITEGIC>MOL_PROPERTY
E
SciTegic.value.DoubleValue
29.700

@<SCITEGIC>MOL_PROPERTY
-TS
SciTegic.value.DoubleValue
32.745

@<SCITEGIC>MOL_PROPERTY
U+W
SciTegic.value.DoubleValue
9.133

@<SCITEGIC>MOL_PROPERTY
U
SciTegic.value.DoubleValue
11.364

@<SCITEGIC>MOL_PROPERTY
W
SciTegic.value.DoubleValue
-2.232

@<SCITEGIC>MOL_PROPERTY
W(PB)
SciTegic.value.DoubleValue
-4.359

@<SCITEGIC>MOL_PROPERTY
W(SA)
SciTegic.value.DoubleValue
2.127

@<SCITEGIC>MOL_PROPERTY
Valence
SciTegic.value.DoubleValue
16.582

@<SCITEGIC>MOL_PROPERTY
Coulomb
SciTegic.value.DoubleValue
-8.150

@<SCITEGIC>MOL_PROPERTY
VdW
SciTegic.value.DoubleValue
2.932

@<SCITEGIC>MOL_PROPERTY
VdW6
SciTegic.value.DoubleValue
-12.531

@<SCITEGIC>MOL_PROPERTY
VdW12
SciTegic.value.DoubleValue
15.464

@<SCITEGIC>MOL_PROPERTY
Bond
SciTegic.value.DoubleValue
0.439

@<SCITEGIC>MOL_PROPERTY
Angle
SciTegic.value.DoubleValue
5.099

@<SCITEGIC>MOL_PROPERTY
Pdih
SciTegic.value.DoubleValue
11.044

@<SCITEGIC>MOL_PROPERTY
Idih
SciTegic.value.DoubleValue
0.000

@<SCITEGIC>MOL_PROPERTY
Tether
SciTegic.value.DoubleValue
0.000

@<TRIPOS>MOLECULE
guest-s17_vm2.mol2 : vm2 ligand conformer 17
          25          25           1
SMALL
USER_CHARGES
 
@<TRIPOS>ATOM
       1    C1      20.521641   19.365655   20.606640 C.3        1 MOL1        -0.1684
       2    H1      19.658081   19.551841   19.953872 H          1 MOL1         0.0833
       3    H2      21.391799   19.311450   19.938204 H          1 MOL1         0.0833
       4    C2      20.354456   17.977574   21.277259 C.3        1 MOL1        -0.1684
       5    H3      19.314870   17.820569   21.586145 H          1 MOL1         0.0833
       6    H4      20.525043   17.221103   20.498990 H          1 MOL1         0.0833
       7    C3      21.322288   17.685928   22.453181 C.3        1 MOL1        -0.1684
       8    H5      22.241903   18.278566   22.364389 H          1 MOL1         0.0833
       9    H6      21.645879   16.639944   22.362787 H          1 MOL1         0.0833
      10    C4      20.697381   17.846490   23.865527 C.3        1 MOL1        -0.1760
      11    H7      19.805546   17.210570   23.939376 H          1 MOL1         0.0833
      12    H8      21.414947   17.438767   24.590163 H          1 MOL1         0.0833
      13    C5      20.342756   19.286619   24.314036 C.3        1 MOL1         0.1219
      14    H9      21.228954   19.926683   24.209920 H          1 MOL1         0.0790
      15    C6      19.150135   19.916804   23.549118 C.3        1 MOL1        -0.1760
      16    H10     18.520291   19.132987   23.116143 H          1 MOL1         0.0833
      17    H11     18.495701   20.435400   24.262834 H          1 MOL1         0.0833
      18    C7      19.540693   20.951028   22.461403 C.3        1 MOL1        -0.1684
      19    H12     19.792938   21.892618   22.968189 H          1 MOL1         0.0833
      20    H13     18.658286   21.171529   21.845583 H          1 MOL1         0.0833
      21    C8      20.730450   20.585270   21.538921 C.3        1 MOL1        -0.1684
      22    H14     20.924895   21.455813   20.897710 H          1 MOL1         0.0833
      23    H15     21.648639   20.464494   22.125046 H          1 MOL1         0.0833
      24    O1      20.004200   19.227632   25.693914 O.3        1 MOL1        -0.5508
      25    H16     19.216429   18.649830   25.761005 H          1 MOL1         0.3780
@<TRIPOS>BOND
    1     1     2    1
    2     1     3    1
    3     1     4    1
    4     4     5    1
    5     4     6    1
    6     4     7    1
    7     7     8    1
    8     7     9    1
    9     7    10    1
   10    10    11    1
   11    10    12    1
   12    10    13    1
   13    13    14    1
   14    13    15    1
   15    15    16    1
   16    15    17    1
   17    15    18    1
   18    18    19    1
   19    18    20    1
   20     1    21    1
   21    18    21    1
   22    21    22    1
   23    21    23    1
   24    13    24    1
   25    24    25    1
@<TRIPOS>SUBSTRUCTURE
       1 MOL1            1 RESIDUE      1      MOL     
@<SCITEGIC>MOL_PROPERTY
VM2 Rank
SciTegic.value.IntegerValue
17

@<SCITEGIC>MOL_PROPERTY
Conf_Id
SciTegic.value.IntegerValue
1430

@<SCITEGIC>MOL_PROPERTY
Probability
SciTegic.value.DoubleValue
2.56

@<SCITEGIC>MOL_PROPERTY
Sum Probability
SciTegic.value.DoubleValue
59.65

@<SCITEGIC>MOL_PROPERTY
Delta G
SciTegic.value.DoubleValue
0.380

@<SCITEGIC>MOL_PROPERTY
G
SciTegic.value.DoubleValue
62.455

@<SCITEGIC>MOL_PROPERTY
E
SciTegic.value.DoubleValue
29.716

@<SCITEGIC>MOL_PROPERTY
-TS
SciTegic.value.DoubleValue
32.739

@<SCITEGIC>MOL_PROPERTY
U+W
SciTegic.value.DoubleValue
9.148

@<SCITEGIC>MOL_PROPERTY
U
SciTegic.value.DoubleValue
11.181

@<SCITEGIC>MOL_PROPERTY
W
SciTegic.value.DoubleValue
-2.033

@<SCITEGIC>MOL_PROPERTY
W(PB)
SciTegic.value.DoubleValue
-4.147

@<SCITEGIC>MOL_PROPERTY
W(SA)
SciTegic.value.DoubleValue
2.114

@<SCITEGIC>MOL_PROPERTY
Valence
SciTegic.value.DoubleValue
16.955

@<SCITEGIC>MOL_PROPERTY
Coulomb
SciTegic.value.DoubleValue
-8.661

@<SCITEGIC>MOL_PROPERTY
VdW
SciTegic.value.DoubleValue
2.887

@<SCITEGIC>MOL_PROPERTY
VdW6
SciTegic.value.DoubleValue
-12.561

@<SCITEGIC>MOL_PROPERTY
VdW12
SciTegic.value.DoubleValue
15.448

@<SCITEGIC>MOL_PROPERTY
Bond
SciTegic.value.DoubleValue
0.433

@<SCITEGIC>MOL_PROPERTY
Angle
SciTegic.value.DoubleValue
5.120

@<SCITEGIC>MOL_PROPERTY
Pdih
SciTegic.value.DoubleValue
11.402

@<SCITEGIC>MOL_PROPERTY
Idih
SciTegic.value.DoubleValue
0.000

@<SCITEGIC>MOL_PROPERTY
Tether
SciTegic.value.DoubleValue
0.000

@<TRIPOS>MOLECULE
guest-s17_vm2.mol2 : vm2 ligand conformer 18
          25          25           1
SMALL
USER_CHARGES
 
@<TRIPOS>ATOM
       1    C1      20.885998   19.438693   20.678238 C.3        1 MOL1        -0.1684
       2    H1      20.084715   19.098468   20.008110 H          1 MOL1         0.0833
       3    H2      21.697070   19.774770   20.017882 H          1 MOL1         0.0833
       4    C2      21.415741   18.231989   21.496730 C.3        1 MOL1        -0.1684
       5    H3      21.849679   17.523454   20.777897 H          1 MOL1         0.0833
       6    H4      22.252347   18.534180   22.139885 H          1 MOL1         0.0833
       7    C3      20.332826   17.471057   22.304618 C.3        1 MOL1        -0.1684
       8    H5      20.522737   16.393637   22.204170 H          1 MOL1         0.0833
       9    H6      19.344288   17.618906   21.855112 H          1 MOL1         0.0833
      10    C4      20.296836   17.791001   23.821938 C.3        1 MOL1        -0.1760
      11    H7      19.371275   17.382643   24.247959 H          1 MOL1         0.0833
      12    H8      21.117799   17.237053   24.296653 H          1 MOL1         0.0833
      13    C5      20.443706   19.275214   24.232658 C.3        1 MOL1         0.1219
      14    H9      21.385623   19.667762   23.830801 H          1 MOL1         0.0790
      15    C6      19.283908   20.206243   23.806984 C.3        1 MOL1        -0.1760
      16    H10     18.342073   19.836727   24.232798 H          1 MOL1         0.0833
      17    H11     19.462076   21.185041   24.272179 H          1 MOL1         0.0833
      18    C7      19.087589   20.440104   22.286233 C.3        1 MOL1        -0.1684
      19    H12     18.452582   21.329525   22.173595 H          1 MOL1         0.0833
      20    H13     18.502239   19.626610   21.842708 H          1 MOL1         0.0833
      21    C8      20.392869   20.670812   21.481606 C.3        1 MOL1        -0.1684
      22    H14     21.191906   21.062610   22.124188 H          1 MOL1         0.0833
      23    H15     20.194734   21.469271   20.753421 H          1 MOL1         0.0833
      24    O1      20.524527   19.317886   25.650996 O.3        1 MOL1        -0.5508
      25    H16     19.676170   18.964057   25.988222 H          1 MOL1         0.3780
@<TRIPOS>BOND
    1     1     2    1
    2     1     3    1
    3     1     4    1
    4     4     5    1
    5     4     6    1
    6     4     7    1
    7     7     8    1
    8     7     9    1
    9     7    10    1
   10    10    11    1
   11    10    12    1
   12    10    13    1
   13    13    14    1
   14    13    15    1
   15    15    16    1
   16    15    17    1
   17    15    18    1
   18    18    19    1
   19    18    20    1
   20     1    21    1
   21    18    21    1
   22    21    22    1
   23    21    23    1
   24    13    24    1
   25    24    25    1
@<TRIPOS>SUBSTRUCTURE
       1 MOL1            1 RESIDUE      1      MOL     
@<SCITEGIC>MOL_PROPERTY
VM2 Rank
SciTegic.value.IntegerValue
18

@<SCITEGIC>MOL_PROPERTY
Conf_Id
SciTegic.value.IntegerValue
1242

@<SCITEGIC>MOL_PROPERTY
Probability
SciTegic.value.DoubleValue
2.49

@<SCITEGIC>MOL_PROPERTY
Sum Probability
SciTegic.value.DoubleValue
62.14

@<SCITEGIC>MOL_PROPERTY
Delta G
SciTegic.value.DoubleValue
0.397

@<SCITEGIC>MOL_PROPERTY
G
SciTegic.value.DoubleValue
62.472

@<SCITEGIC>MOL_PROPERTY
E
SciTegic.value.DoubleValue
29.826

@<SCITEGIC>MOL_PROPERTY
-TS
SciTegic.value.DoubleValue
32.646

@<SCITEGIC>MOL_PROPERTY
U+W
SciTegic.value.DoubleValue
9.259

@<SCITEGIC>MOL_PROPERTY
U
SciTegic.value.DoubleValue
11.191

@<SCITEGIC>MOL_PROPERTY
W
SciTegic.value.DoubleValue
-1.932

@<SCITEGIC>MOL_PROPERTY
W(PB)
SciTegic.value.DoubleValue
-4.074

@<SCITEGIC>MOL_PROPERTY
W(SA)
SciTegic.value.DoubleValue
2.142

@<SCITEGIC>MOL_PROPERTY
Valence
SciTegic.value.DoubleValue
17.333

@<SCITEGIC>MOL_PROPERTY
Coulomb
SciTegic.value.DoubleValue
-8.749

@<SCITEGIC>MOL_PROPERTY
VdW
SciTegic.value.DoubleValue
2.607

@<SCITEGIC>MOL_PROPERTY
VdW6
SciTegic.value.DoubleValue
-12.571

@<SCITEGIC>MOL_PROPERTY
VdW12
SciTegic.value.DoubleValue
15.178

@<SCITEGIC>MOL_PROPERTY
Bond
SciTegic.value.DoubleValue
0.408

@<SCITEGIC>MOL_PROPERTY
Angle
SciTegic.value.DoubleValue
5.151

@<SCITEGIC>MOL_PROPERTY
Pdih
SciTegic.value.DoubleValue
11.774

@<SCITEGIC>MOL_PROPERTY
Idih
SciTegic.value.DoubleValue
0.000

@<SCITEGIC>MOL_PROPERTY
Tether
SciTegic.value.DoubleValue
0.000

@<TRIPOS>MOLECULE
guest-s17_vm2.mol2 : vm2 ligand conformer 19
          25          25           1
SMALL
USER_CHARGES
 
@<TRIPOS>ATOM
       1    C1      20.557658   19.223487   20.604874 C.3        1 MOL1        -0.1684
       2    H1      20.074757   18.473848   19.963506 H          1 MOL1         0.0833
       3    H2      21.131618   19.868634   19.925701 H          1 MOL1         0.0833
       4    C2      21.572015   18.519117   21.540370 C.3        1 MOL1        -0.1684
       5    H3      22.321405   18.032857   20.901015 H          1 MOL1         0.0833
       6    H4      22.139421   19.260272   22.114776 H          1 MOL1         0.0833
       7    C3      20.993366   17.430721   22.478895 C.3        1 MOL1        -0.1684
       8    H5      21.839800   16.948725   22.987108 H          1 MOL1         0.0833
       9    H6      20.521616   16.643911   21.874842 H          1 MOL1         0.0833
      10    C4      19.991835   17.899563   23.566278 C.3        1 MOL1        -0.1760
      11    H7      18.990089   18.004070   23.137180 H          1 MOL1         0.0833
      12    H8      19.898856   17.078732   24.290300 H          1 MOL1         0.0833
      13    C5      20.394414   19.197174   24.313748 C.3        1 MOL1         0.1219
      14    H9      21.473225   19.369099   24.202032 H          1 MOL1         0.0790
      15    C6      19.625490   20.461448   23.854118 C.3        1 MOL1        -0.1760
      16    H10     18.545466   20.282255   23.935698 H          1 MOL1         0.0833
      17    H11     19.848927   21.265541   24.568083 H          1 MOL1         0.0833
      18    C7      19.946924   20.999740   22.433579 C.3        1 MOL1        -0.1684
      19    H12     21.015943   21.229024   22.336510 H          1 MOL1         0.0833
      20    H13     19.436368   21.967440   22.334299 H          1 MOL1         0.0833
      21    C8      19.462046   20.095603   21.270834 C.3        1 MOL1        -0.1684
      22    H14     19.044227   20.742150   20.486963 H          1 MOL1         0.0833
      23    H15     18.617073   19.475930   21.591500 H          1 MOL1         0.0833
      24    O1      20.120253   19.016146   25.697303 O.3        1 MOL1        -0.5508
      25    H16     19.154889   18.869286   25.771103 H          1 MOL1         0.3780
@<TRIPOS>BOND
    1     1     2    1
    2     1     3    1
    3     1     4    1
    4     4     5    1
    5     4     6    1
    6     4     7    1
    7     7     8    1
    8     7     9    1
    9     7    10    1
   10    10    11    1
   11    10    12    1
   12    10    13    1
   13    13    14    1
   14    13    15    1
   15    15    16    1
   16    15    17    1
   17    15    18    1
   18    18    19    1
   19    18    20    1
   20     1    21    1
   21    18    21    1
   22    21    22    1
   23    21    23    1
   24    13    24    1
   25    24    25    1
@<TRIPOS>SUBSTRUCTURE
       1 MOL1            1 RESIDUE      1      MOL     
@<SCITEGIC>MOL_PROPERTY
VM2 Rank
SciTegic.value.IntegerValue
19

@<SCITEGIC>MOL_PROPERTY
Conf_Id
SciTegic.value.IntegerValue
1241

@<SCITEGIC>MOL_PROPERTY
Probability
SciTegic.value.DoubleValue
2.30

@<SCITEGIC>MOL_PROPERTY
Sum Probability
SciTegic.value.DoubleValue
64.44

@<SCITEGIC>MOL_PROPERTY
Delta G
SciTegic.value.DoubleValue
0.443

@<SCITEGIC>MOL_PROPERTY
G
SciTegic.value.DoubleValue
62.519

@<SCITEGIC>MOL_PROPERTY
E
SciTegic.value.DoubleValue
29.779

@<SCITEGIC>MOL_PROPERTY
-TS
SciTegic.value.DoubleValue
32.740

@<SCITEGIC>MOL_PROPERTY
U+W
SciTegic.value.DoubleValue
9.212

@<SCITEGIC>MOL_PROPERTY
U
SciTegic.value.DoubleValue
11.181

@<SCITEGIC>MOL_PROPERTY
W
SciTegic.value.DoubleValue
-1.969

@<SCITEGIC>MOL_PROPERTY
W(PB)
SciTegic.value.DoubleValue
-4.091

@<SCITEGIC>MOL_PROPERTY
W(SA)
SciTegic.value.DoubleValue
2.122

@<SCITEGIC>MOL_PROPERTY
Valence
SciTegic.value.DoubleValue
16.955

@<SCITEGIC>MOL_PROPERTY
Coulomb
SciTegic.value.DoubleValue
-8.661

@<SCITEGIC>MOL_PROPERTY
VdW
SciTegic.value.DoubleValue
2.887

@<SCITEGIC>MOL_PROPERTY
VdW6
SciTegic.value.DoubleValue
-12.561

@<SCITEGIC>MOL_PROPERTY
VdW12
SciTegic.value.DoubleValue
15.448

@<SCITEGIC>MOL_PROPERTY
Bond
SciTegic.value.DoubleValue
0.433

@<SCITEGIC>MOL_PROPERTY
Angle
SciTegic.value.DoubleValue
5.120

@<SCITEGIC>MOL_PROPERTY
Pdih
SciTegic.value.DoubleValue
11.402

@<SCITEGIC>MOL_PROPERTY
Idih
SciTegic.value.DoubleValue
0.000

@<SCITEGIC>MOL_PROPERTY
Tether
SciTegic.value.DoubleValue
0.000

@<TRIPOS>MOLECULE
guest-s17_vm2.mol2 : vm2 ligand conformer 20
          25          25           1
SMALL
USER_CHARGES
 
@<TRIPOS>ATOM
       1    C1      21.058466   19.529845   20.991360 C.3        1 MOL1        -0.1684
       2    H1      21.420966   19.684228   19.965981 H          1 MOL1         0.0833
       3    H2      21.876574   19.881738   21.630112 H          1 MOL1         0.0833
       4    C2      20.842560   18.007847   21.179821 C.3        1 MOL1        -0.1684
       5    H3      20.092085   17.655500   20.459310 H          1 MOL1         0.0833
       6    H4      21.779368   17.505416   20.902618 H          1 MOL1         0.0833
       7    C3      20.445869   17.523472   22.597553 C.3        1 MOL1        -0.1684
       8    H5      20.621645   16.439473   22.627865 H          1 MOL1         0.0833
       9    H6      19.366774   17.626525   22.748922 H          1 MOL1         0.0833
      10    C4      21.243370   18.171840   23.764104 C.3        1 MOL1        -0.1760
      11    H7      21.466464   17.381957   24.493493 H          1 MOL1         0.0833
      12    H8      22.225109   18.514098   23.414933 H          1 MOL1         0.0833
      13    C5      20.535471   19.309550   24.546084 C.3        1 MOL1         0.1219
      14    H9      21.222790   19.605518   25.351571 H          1 MOL1         0.0790
      15    C6      20.199037   20.604857   23.761238 C.3        1 MOL1        -0.1760
      16    H10     19.779490   21.312137   24.488858 H          1 MOL1         0.0833
      17    H11     21.123709   21.080074   23.411917 H          1 MOL1         0.0833
      18    C7      19.180684   20.471039   22.594071 C.3        1 MOL1        -0.1684
      19    H12     18.515913   21.345204   22.622083 H          1 MOL1         0.0833
      20    H13     18.511958   19.618081   22.746534 H          1 MOL1         0.0833
      21    C8      19.806307   20.422172   21.176980 C.3        1 MOL1        -0.1684
      22    H14     19.034547   20.119487   20.456378 H          1 MOL1         0.0833
      23    H15     20.087692   21.446817   20.898031 H          1 MOL1         0.0833
      24    O1      19.352235   18.802378   25.148790 O.3        1 MOL1        -0.5508
      25    H16     18.767305   18.550472   24.408016 H          1 MOL1         0.3780
@<TRIPOS>BOND
    1     1     2    1
    2     1     3    1
    3     1     4    1
    4     4     5    1
    5     4     6    1
    6     4     7    1
    7     7     8    1
    8     7     9    1
    9     7    10    1
   10    10    11    1
   11    10    12    1
   12    10    13    1
   13    13    14    1
   14    13    15    1
   15    15    16    1
   16    15    17    1
   17    15    18    1
   18    18    19    1
   19    18    20    1
   20     1    21    1
   21    18    21    1
   22    21    22    1
   23    21    23    1
   24    13    24    1
   25    24    25    1
@<TRIPOS>SUBSTRUCTURE
       1 MOL1            1 RESIDUE      1      MOL     
@<SCITEGIC>MOL_PROPERTY
VM2 Rank
SciTegic.value.IntegerValue
20

@<SCITEGIC>MOL_PROPERTY
Conf_Id
SciTegic.value.IntegerValue
1013

@<SCITEGIC>MOL_PROPERTY
Probability
SciTegic.value.DoubleValue
1.96

@<SCITEGIC>MOL_PROPERTY
Sum Probability
SciTegic.value.DoubleValue
66.40

@<SCITEGIC>MOL_PROPERTY
Delta G
SciTegic.value.DoubleValue
0.538

@<SCITEGIC>MOL_PROPERTY
G
SciTegic.value.DoubleValue
62.614

@<SCITEGIC>MOL_PROPERTY
E
SciTegic.value.DoubleValue
29.811

@<SCITEGIC>MOL_PROPERTY
-TS
SciTegic.value.DoubleValue
32.802

@<SCITEGIC>MOL_PROPERTY
U+W
SciTegic.value.DoubleValue
9.243

@<SCITEGIC>MOL_PROPERTY
U
SciTegic.value.DoubleValue
10.674

@<SCITEGIC>MOL_PROPERTY
W
SciTegic.value.DoubleValue
-1.431

@<SCITEGIC>MOL_PROPERTY
W(PB)
SciTegic.value.DoubleValue
-3.548

@<SCITEGIC>MOL_PROPERTY
W(SA)
SciTegic.value.DoubleValue
2.118

@<SCITEGIC>MOL_PROPERTY
Valence
SciTegic.value.DoubleValue
17.246

@<SCITEGIC>MOL_PROPERTY
Coulomb
SciTegic.value.DoubleValue
-9.242

@<SCITEGIC>MOL_PROPERTY
VdW
SciTegic.value.DoubleValue
2.670

@<SCITEGIC>MOL_PROPERTY
VdW6
SciTegic.value.DoubleValue
-13.410

@<SCITEGIC>MOL_PROPERTY
VdW12
SciTegic.value.DoubleValue
16.081

@<SCITEGIC>MOL_PROPERTY
Bond
SciTegic.value.DoubleValue
0.483

@<SCITEGIC>MOL_PROPERTY
Angle
SciTegic.value.DoubleValue
6.110

@<SCITEGIC>MOL_PROPERTY
Pdih
SciTegic.value.DoubleValue
10.652

@<SCITEGIC>MOL_PROPERTY
Idih
SciTegic.value.DoubleValue
0.000

@<SCITEGIC>MOL_PROPERTY
Tether
SciTegic.value.DoubleValue
0.000

@<TRIPOS>MOLECULE
guest-s17_vm2.mol2 : vm2 ligand conformer 21
          25          25           1
SMALL
USER_CHARGES
 
@<TRIPOS>ATOM
       1    C1      20.146002   19.063934   20.750226 C.3        1 MOL1        -0.1684
       2    H1      19.290117   18.398392   20.920691 H          1 MOL1         0.0833
       3    H2      20.276762   19.088320   19.659731 H          1 MOL1         0.0833
       4    C2      21.443647   18.475380   21.362170 C.3        1 MOL1        -0.1684
       5    H3      21.981121   17.935820   20.570335 H          1 MOL1         0.0833
       6    H4      22.127576   19.278856   21.657959 H          1 MOL1         0.0833
       7    C3      21.231680   17.478733   22.530517 C.3        1 MOL1        -0.1684
       8    H5      22.196439   17.295222   23.022540 H          1 MOL1         0.0833
       9    H6      20.931173   16.514687   22.097892 H          1 MOL1         0.0833
      10    C4      20.173675   17.856320   23.599570 C.3        1 MOL1        -0.1760
      11    H7      19.182818   17.944730   23.141343 H          1 MOL1         0.0833
      12    H8      20.088835   17.003957   24.286401 H          1 MOL1         0.0833
      13    C5      20.477250   19.106446   24.458609 C.3        1 MOL1         0.1219
      14    H9      21.453663   18.958988   24.942066 H          1 MOL1         0.0790
      15    C6      20.515548   20.466603   23.716185 C.3        1 MOL1        -0.1760
      16    H10     20.457066   21.261197   24.471525 H          1 MOL1         0.0833
      17    H11     21.496448   20.612213   23.252046 H          1 MOL1         0.0833
      18    C7      19.386089   20.703089   22.677200 C.3        1 MOL1        -0.1684
      19    H12     19.051080   21.743801   22.783426 H          1 MOL1         0.0833
      20    H13     18.502833   20.093684   22.908467 H          1 MOL1         0.0833
      21    C8      19.814771   20.511457   21.198900 C.3        1 MOL1        -0.1684
      22    H14     18.995997   20.877716   20.564692 H          1 MOL1         0.0833
      23    H15     20.670333   21.164914   20.980369 H          1 MOL1         0.0833
      24    O1      19.475338   19.181038   25.466622 O.3        1 MOL1        -0.5508
      25    H16     19.684413   19.964978   26.015071 H          1 MOL1         0.3780
@<TRIPOS>BOND
    1     1     2    1
    2     1     3    1
    3     1     4    1
    4     4     5    1
    5     4     6    1
    6     4     7    1
    7     7     8    1
    8     7     9    1
    9     7    10    1
   10    10    11    1
   11    10    12    1
   12    10    13    1
   13    13    14    1
   14    13    15    1
   15    15    16    1
   16    15    17    1
   17    15    18    1
   18    18    19    1
   19    18    20    1
   20     1    21    1
   21    18    21    1
   22    21    22    1
   23    21    23    1
   24    13    24    1
   25    24    25    1
@<TRIPOS>SUBSTRUCTURE
       1 MOL1            1 RESIDUE      1      MOL     
@<SCITEGIC>MOL_PROPERTY
VM2 Rank
SciTegic.value.IntegerValue
21

@<SCITEGIC>MOL_PROPERTY
Conf_Id
SciTegic.value.IntegerValue
1477

@<SCITEGIC>MOL_PROPERTY
Probability
SciTegic.value.DoubleValue
1.96

@<SCITEGIC>MOL_PROPERTY
Sum Probability
SciTegic.value.DoubleValue
68.36

@<SCITEGIC>MOL_PROPERTY
Delta G
SciTegic.value.DoubleValue
0.538

@<SCITEGIC>MOL_PROPERTY
G
SciTegic.value.DoubleValue
62.614

@<SCITEGIC>MOL_PROPERTY
E
SciTegic.value.DoubleValue
29.895

@<SCITEGIC>MOL_PROPERTY
-TS
SciTegic.value.DoubleValue
32.719

@<SCITEGIC>MOL_PROPERTY
U+W
SciTegic.value.DoubleValue
9.327

@<SCITEGIC>MOL_PROPERTY
U
SciTegic.value.DoubleValue
11.545

@<SCITEGIC>MOL_PROPERTY
W
SciTegic.value.DoubleValue
-2.217

@<SCITEGIC>MOL_PROPERTY
W(PB)
SciTegic.value.DoubleValue
-4.341

@<SCITEGIC>MOL_PROPERTY
W(SA)
SciTegic.value.DoubleValue
2.124

@<SCITEGIC>MOL_PROPERTY
Valence
SciTegic.value.DoubleValue
16.814

@<SCITEGIC>MOL_PROPERTY
Coulomb
SciTegic.value.DoubleValue
-7.999

@<SCITEGIC>MOL_PROPERTY
VdW
SciTegic.value.DoubleValue
2.729

@<SCITEGIC>MOL_PROPERTY
VdW6
SciTegic.value.DoubleValue
-12.749

@<SCITEGIC>MOL_PROPERTY
VdW12
SciTegic.value.DoubleValue
15.478

@<SCITEGIC>MOL_PROPERTY
Bond
SciTegic.value.DoubleValue
0.438

@<SCITEGIC>MOL_PROPERTY
Angle
SciTegic.value.DoubleValue
5.318

@<SCITEGIC>MOL_PROPERTY
Pdih
SciTegic.value.DoubleValue
11.058

@<SCITEGIC>MOL_PROPERTY
Idih
SciTegic.value.DoubleValue
0.000

@<SCITEGIC>MOL_PROPERTY
Tether
SciTegic.value.DoubleValue
0.000

@<TRIPOS>MOLECULE
guest-s17_vm2.mol2 : vm2 ligand conformer 22
          25          25           1
SMALL
USER_CHARGES
 
@<TRIPOS>ATOM
       1    C1      20.763921   19.246431   20.797820 C.3        1 MOL1        -0.1684
       2    H1      20.716029   19.076824   19.713482 H          1 MOL1         0.0833
       3    H2      21.824058   19.433187   21.011647 H          1 MOL1         0.0833
       4    C2      20.271641   17.951588   21.494512 C.3        1 MOL1        -0.1684
       5    H3      19.206539   18.028078   21.741039 H          1 MOL1         0.0833
       6    H4      20.328420   17.128408   20.769290 H          1 MOL1         0.0833
       7    C3      21.086995   17.521728   22.740128 C.3        1 MOL1        -0.1684
       8    H5      22.022102   17.064748   22.389027 H          1 MOL1         0.0833
       9    H6      20.543413   16.721870   23.260851 H          1 MOL1         0.0833
      10    C4      21.463760   18.635614   23.753524 C.3        1 MOL1        -0.1760
      11    H7      22.109056   18.182694   24.517212 H          1 MOL1         0.0833
      12    H8      22.102162   19.381270   23.267843 H          1 MOL1         0.0833
      13    C5      20.302505   19.346852   24.492240 C.3        1 MOL1         0.1219
      14    H9      20.767527   20.045367   25.202846 H          1 MOL1         0.0790
      15    C6      19.326833   20.176875   23.623243 C.3        1 MOL1        -0.1760
      16    H10     18.562543   19.531524   23.176703 H          1 MOL1         0.0833
      17    H11     18.772075   20.829016   24.310202 H          1 MOL1         0.0833
      18    C7      19.985698   21.072667   22.539888 C.3        1 MOL1        -0.1684
      19    H12     21.020505   21.322636   22.806794 H          1 MOL1         0.0833
      20    H13     19.451270   22.032503   22.535442 H          1 MOL1         0.0833
      21    C8      19.911882   20.507308   21.097517 C.3        1 MOL1        -0.1684
      22    H14     18.863193   20.307418   20.838452 H          1 MOL1         0.0833
      23    H15     20.237940   21.300765   20.411295 H          1 MOL1         0.0833
      24    O1      19.550766   18.383938   25.221129 O.3        1 MOL1        -0.5508
      25    H16     20.196696   17.850334   25.727630 H          1 MOL1         0.3780
@<TRIPOS>BOND
    1     1     2    1
    2     1     3    1
    3     1     4    1
    4     4     5    1
    5     4     6    1
    6     4     7    1
    7     7     8    1
    8     7     9    1
    9     7    10    1
   10    10    11    1
   11    10    12    1
   12    10    13    1
   13    13    14    1
   14    13    15    1
   15    15    16    1
   16    15    17    1
   17    15    18    1
   18    18    19    1
   19    18    20    1
   20     1    21    1
   21    18    21    1
   22    21    22    1
   23    21    23    1
   24    13    24    1
   25    24    25    1
@<TRIPOS>SUBSTRUCTURE
       1 MOL1            1 RESIDUE      1      MOL     
@<SCITEGIC>MOL_PROPERTY
VM2 Rank
SciTegic.value.IntegerValue
22

@<SCITEGIC>MOL_PROPERTY
Conf_Id
SciTegic.value.IntegerValue
1369

@<SCITEGIC>MOL_PROPERTY
Probability
SciTegic.value.DoubleValue
1.67

@<SCITEGIC>MOL_PROPERTY
Sum Probability
SciTegic.value.DoubleValue
70.03

@<SCITEGIC>MOL_PROPERTY
Delta G
SciTegic.value.DoubleValue
0.635

@<SCITEGIC>MOL_PROPERTY
G
SciTegic.value.DoubleValue
62.710

@<SCITEGIC>MOL_PROPERTY
E
SciTegic.value.DoubleValue
30.025

@<SCITEGIC>MOL_PROPERTY
-TS
SciTegic.value.DoubleValue
32.685

@<SCITEGIC>MOL_PROPERTY
U+W
SciTegic.value.DoubleValue
9.457

@<SCITEGIC>MOL_PROPERTY
U
SciTegic.value.DoubleValue
11.668

@<SCITEGIC>MOL_PROPERTY
W
SciTegic.value.DoubleValue
-2.211

@<SCITEGIC>MOL_PROPERTY
W(PB)
SciTegic.value.DoubleValue
-4.346

@<SCITEGIC>MOL_PROPERTY
W(SA)
SciTegic.value.DoubleValue
2.135

@<SCITEGIC>MOL_PROPERTY
Valence
SciTegic.value.DoubleValue
16.811

@<SCITEGIC>MOL_PROPERTY
Coulomb
SciTegic.value.DoubleValue
-7.706

@<SCITEGIC>MOL_PROPERTY
VdW
SciTegic.value.DoubleValue
2.563

@<SCITEGIC>MOL_PROPERTY
VdW6
SciTegic.value.DoubleValue
-12.922

@<SCITEGIC>MOL_PROPERTY
VdW12
SciTegic.value.DoubleValue
15.484

@<SCITEGIC>MOL_PROPERTY
Bond
SciTegic.value.DoubleValue
0.437

@<SCITEGIC>MOL_PROPERTY
Angle
SciTegic.value.DoubleValue
5.466

@<SCITEGIC>MOL_PROPERTY
Pdih
SciTegic.value.DoubleValue
10.908

@<SCITEGIC>MOL_PROPERTY
Idih
SciTegic.value.DoubleValue
0.000

@<SCITEGIC>MOL_PROPERTY
Tether
SciTegic.value.DoubleValue
0.000

@<TRIPOS>MOLECULE
guest-s17_vm2.mol2 : vm2 ligand conformer 23
          25          25           1
SMALL
USER_CHARGES
 
@<TRIPOS>ATOM
       1    C1      20.659684   19.500348   20.797560 C.3        1 MOL1        -0.1684
       2    H1      20.508293   19.580477   19.712430 H          1 MOL1         0.0833
       3    H2      21.535562   20.126187   21.011224 H          1 MOL1         0.0833
       4    C2      20.960381   18.010058   21.104510 C.3        1 MOL1        -0.1684
       5    H3      20.083282   17.401402   20.845558 H          1 MOL1         0.0833
       6    H4      21.756679   17.683242   20.421950 H          1 MOL1         0.0833
       7    C3      21.411117   17.672468   22.549632 C.3        1 MOL1        -0.1684
       8    H5      22.314160   18.236150   22.816701 H          1 MOL1         0.0833
       9    H6      21.720752   16.618408   22.550594 H          1 MOL1         0.0833
      10    C4      20.307362   17.835451   23.629151 C.3        1 MOL1        -0.1760
      11    H7      19.312609   17.741127   23.180171 H          1 MOL1         0.0833
      12    H8      20.381370   16.985596   24.319967 H          1 MOL1         0.0833
      13    C5      20.397242   19.116794   24.492925 C.3        1 MOL1         0.1219
      14    H9      21.219351   18.961626   25.206501 H          1 MOL1         0.0790
      15    C6      20.706431   20.440284   23.749388 C.3        1 MOL1        -0.1760
      16    H10     20.833790   21.221228   24.510090 H          1 MOL1         0.0833
      17    H11     21.687081   20.370573   23.266779 H          1 MOL1         0.0833
      18    C7      19.650922   20.948284   22.730809 C.3        1 MOL1        -0.1684
      19    H12     18.697995   21.123699   23.248075 H          1 MOL1         0.0833
      20    H13     19.981710   21.933948   22.376449 H          1 MOL1         0.0833
      21    C8      19.389300   20.060231   21.488208 C.3        1 MOL1        -0.1684
      22    H14     18.844295   20.674807   20.758781 H          1 MOL1         0.0833
      23    H15     18.696300   19.248246   21.736201 H          1 MOL1         0.0833
      24    O1      19.181562   19.259083   25.217816 O.3        1 MOL1        -0.5508
      25    H16     19.252631   20.095900   25.720996 H          1 MOL1         0.3780
@<TRIPOS>BOND
    1     1     2    1
    2     1     3    1
    3     1     4    1
    4     4     5    1
    5     4     6    1
    6     4     7    1
    7     7     8    1
    8     7     9    1
    9     7    10    1
   10    10    11    1
   11    10    12    1
   12    10    13    1
   13    13    14    1
   14    13    15    1
   15    15    16    1
   16    15    17    1
   17    15    18    1
   18    18    19    1
   19    18    20    1
   20     1    21    1
   21    18    21    1
   22    21    22    1
   23    21    23    1
   24    13    24    1
   25    24    25    1
@<TRIPOS>SUBSTRUCTURE
       1 MOL1            1 RESIDUE      1      MOL     
@<SCITEGIC>MOL_PROPERTY
VM2 Rank
SciTegic.value.IntegerValue
23

@<SCITEGIC>MOL_PROPERTY
Conf_Id
SciTegic.value.IntegerValue
134

@<SCITEGIC>MOL_PROPERTY
Probability
SciTegic.value.DoubleValue
1.63

@<SCITEGIC>MOL_PROPERTY
Sum Probability
SciTegic.value.DoubleValue
71.66

@<SCITEGIC>MOL_PROPERTY
Delta G
SciTegic.value.DoubleValue
0.648

@<SCITEGIC>MOL_PROPERTY
G
SciTegic.value.DoubleValue
62.723

@<SCITEGIC>MOL_PROPERTY
E
SciTegic.value.DoubleValue
30.035

@<SCITEGIC>MOL_PROPERTY
-TS
SciTegic.value.DoubleValue
32.688

@<SCITEGIC>MOL_PROPERTY
U+W
SciTegic.value.DoubleValue
9.467

@<SCITEGIC>MOL_PROPERTY
U
SciTegic.value.DoubleValue
11.668

@<SCITEGIC>MOL_PROPERTY
W
SciTegic.value.DoubleValue
-2.201

@<SCITEGIC>MOL_PROPERTY
W(PB)
SciTegic.value.DoubleValue
-4.334

@<SCITEGIC>MOL_PROPERTY
W(SA)
SciTegic.value.DoubleValue
2.133

@<SCITEGIC>MOL_PROPERTY
Valence
SciTegic.value.DoubleValue
16.811

@<SCITEGIC>MOL_PROPERTY
Coulomb
SciTegic.value.DoubleValue
-7.706

@<SCITEGIC>MOL_PROPERTY
VdW
SciTegic.value.DoubleValue
2.563

@<SCITEGIC>MOL_PROPERTY
VdW6
SciTegic.value.DoubleValue
-12.922

@<SCITEGIC>MOL_PROPERTY
VdW12
SciTegic.value.DoubleValue
15.484

@<SCITEGIC>MOL_PROPERTY
Bond
SciTegic.value.DoubleValue
0.437

@<SCITEGIC>MOL_PROPERTY
Angle
SciTegic.value.DoubleValue
5.466

@<SCITEGIC>MOL_PROPERTY
Pdih
SciTegic.value.DoubleValue
10.908

@<SCITEGIC>MOL_PROPERTY
Idih
SciTegic.value.DoubleValue
0.000

@<SCITEGIC>MOL_PROPERTY
Tether
SciTegic.value.DoubleValue
0.000

@<TRIPOS>MOLECULE
guest-s17_vm2.mol2 : vm2 ligand conformer 24
          25          25           1
SMALL
USER_CHARGES
 
@<TRIPOS>ATOM
       1    C1      20.152280   19.065442   20.747649 C.3        1 MOL1        -0.1684
       2    H1      20.289588   19.091051   19.657986 H          1 MOL1         0.0833
       3    H2      19.296293   18.398604   20.912557 H          1 MOL1         0.0833
       4    C2      21.446765   18.478544   21.367387 C.3        1 MOL1        -0.1684
       5    H3      21.992464   17.943873   20.577865 H          1 MOL1         0.0833
       6    H4      22.125484   19.282789   21.673011 H          1 MOL1         0.0833
       7    C3      21.226687   17.476842   22.529436 C.3        1 MOL1        -0.1684
       8    H5      22.189446   17.286187   23.022726 H          1 MOL1         0.0833
       9    H6      20.922502   16.516522   22.091049 H          1 MOL1         0.0833
      10    C4      20.168455   17.855648   23.597558 C.3        1 MOL1        -0.1760
      11    H7      19.179207   17.948670   23.136370 H          1 MOL1         0.0833
      12    H8      20.081345   16.999110   24.278594 H          1 MOL1         0.0833
      13    C5      20.477562   19.105430   24.456232 C.3        1 MOL1         0.1219
      14    H9      21.459024   18.961254   24.930371 H          1 MOL1         0.0790
      15    C6      20.507284   20.467679   23.717287 C.3        1 MOL1        -0.1760
      16    H10     20.432523   21.253484   24.480821 H          1 MOL1         0.0833
      17    H11     21.490128   20.627448   23.262095 H          1 MOL1         0.0833
      18    C7      19.381845   20.701319   22.673025 C.3        1 MOL1        -0.1684
      19    H12     18.498580   20.091226   22.901852 H          1 MOL1         0.0833
      20    H13     19.044906   21.741433   22.778599 H          1 MOL1         0.0833
      21    C8      19.816445   20.511724   21.196190 C.3        1 MOL1        -0.1684
      22    H14     18.999536   20.877081   20.559073 H          1 MOL1         0.0833
      23    H15     20.671713   21.166916   20.981768 H          1 MOL1         0.0833
      24    O1      19.486678   19.180370   25.475238 O.3        1 MOL1        -0.5508
      25    H16     19.525150   18.335898   25.969942 H          1 MOL1         0.3780
@<TRIPOS>BOND
    1     1     2    1
    2     1     3    1
    3     1     4    1
    4     4     5    1
    5     4     6    1
    6     4     7    1
    7     7     8    1
    8     7     9    1
    9     7    10    1
   10    10    11    1
   11    10    12    1
   12    10    13    1
   13    13    14    1
   14    13    15    1
   15    15    16    1
   16    15    17    1
   17    15    18    1
   18    18    19    1
   19    18    20    1
   20     1    21    1
   21    18    21    1
   22    21    22    1
   23    21    23    1
   24    13    24    1
   25    24    25    1
@<TRIPOS>SUBSTRUCTURE
       1 MOL1            1 RESIDUE      1      MOL     
@<SCITEGIC>MOL_PROPERTY
VM2 Rank
SciTegic.value.IntegerValue
24

@<SCITEGIC>MOL_PROPERTY
Conf_Id
SciTegic.value.IntegerValue
1671

@<SCITEGIC>MOL_PROPERTY
Probability
SciTegic.value.DoubleValue
1.60

@<SCITEGIC>MOL_PROPERTY
Sum Probability
SciTegic.value.DoubleValue
73.26

@<SCITEGIC>MOL_PROPERTY
Delta G
SciTegic.value.DoubleValue
0.661

@<SCITEGIC>MOL_PROPERTY
G
SciTegic.value.DoubleValue
62.736

@<SCITEGIC>MOL_PROPERTY
E
SciTegic.value.DoubleValue
29.993

@<SCITEGIC>MOL_PROPERTY
-TS
SciTegic.value.DoubleValue
32.743

@<SCITEGIC>MOL_PROPERTY
U+W
SciTegic.value.DoubleValue
9.425

@<SCITEGIC>MOL_PROPERTY
U
SciTegic.value.DoubleValue
11.687

@<SCITEGIC>MOL_PROPERTY
W
SciTegic.value.DoubleValue
-2.262

@<SCITEGIC>MOL_PROPERTY
W(PB)
SciTegic.value.DoubleValue
-4.388

@<SCITEGIC>MOL_PROPERTY
W(SA)
SciTegic.value.DoubleValue
2.126

@<SCITEGIC>MOL_PROPERTY
Valence
SciTegic.value.DoubleValue
16.789

@<SCITEGIC>MOL_PROPERTY
Coulomb
SciTegic.value.DoubleValue
-7.836

@<SCITEGIC>MOL_PROPERTY
VdW
SciTegic.value.DoubleValue
2.734

@<SCITEGIC>MOL_PROPERTY
VdW6
SciTegic.value.DoubleValue
-12.729

@<SCITEGIC>MOL_PROPERTY
VdW12
SciTegic.value.DoubleValue
15.463

@<SCITEGIC>MOL_PROPERTY
Bond
SciTegic.value.DoubleValue
0.436

@<SCITEGIC>MOL_PROPERTY
Angle
SciTegic.value.DoubleValue
5.314

@<SCITEGIC>MOL_PROPERTY
Pdih
SciTegic.value.DoubleValue
11.039

@<SCITEGIC>MOL_PROPERTY
Idih
SciTegic.value.DoubleValue
0.000

@<SCITEGIC>MOL_PROPERTY
Tether
SciTegic.value.DoubleValue
0.000

@<TRIPOS>MOLECULE
guest-s17_vm2.mol2 : vm2 ligand conformer 25
          25          25           1
SMALL
USER_CHARGES
 
@<TRIPOS>ATOM
       1    C1      20.078901   19.169921   20.749612 C.3        1 MOL1        -0.1684
       2    H1      19.009505   18.996332   20.925227 H          1 MOL1         0.0833
       3    H2      20.182047   19.240946   19.658196 H          1 MOL1         0.0833
       4    C2      20.916209   17.946397   21.205254 C.3        1 MOL1        -0.1684
       5    H3      20.624547   17.091467   20.580138 H          1 MOL1         0.0833
       6    H4      21.976165   18.126827   20.980146 H          1 MOL1         0.0833
       7    C3      20.772306   17.515398   22.688290 C.3        1 MOL1        -0.1684
       8    H5      21.307907   16.562984   22.800310 H          1 MOL1         0.0833
       9    H6      19.726562   17.283970   22.928277 H          1 MOL1         0.0833
      10    C4      21.373490   18.511956   23.716459 C.3        1 MOL1        -0.1760
      11    H7      21.905775   17.932127   24.482313 H          1 MOL1         0.0833
      12    H8      22.154440   19.119694   23.247973 H          1 MOL1         0.0833
      13    C5      20.359332   19.423582   24.453391 C.3        1 MOL1         0.1219
      14    H9      20.923788   20.247243   24.913648 H          1 MOL1         0.0790
      15    C6      19.225027   20.035658   23.596924 C.3        1 MOL1        -0.1760
      16    H10     18.617835   19.241164   23.149645 H          1 MOL1         0.0833
      17    H11     18.542661   20.561094   24.277623 H          1 MOL1         0.0833
      18    C7      19.656828   21.057509   22.513596 C.3        1 MOL1        -0.1684
      19    H12     20.174640   21.899216   22.993168 H          1 MOL1         0.0833
      20    H13     18.741768   21.481407   22.077818 H          1 MOL1         0.0833
      21    C8      20.532110   20.525632   21.350329 C.3        1 MOL1        -0.1684
      22    H14     21.585843   20.481131   21.647894 H          1 MOL1         0.0833
      23    H15     20.503728   21.280286   20.552396 H          1 MOL1         0.0833
      24    O1      19.749797   18.656948   25.486145 O.3        1 MOL1        -0.5508
      25    H16     19.160038   19.264248   25.978806 H          1 MOL1         0.3780
@<TRIPOS>BOND
    1     1     2    1
    2     1     3    1
    3     1     4    1
    4     4     5    1
    5     4     6    1
    6     4     7    1
    7     7     8    1
    8     7     9    1
    9     7    10    1
   10    10    11    1
   11    10    12    1
   12    10    13    1
   13    13    14    1
   14    13    15    1
   15    15    16    1
   16    15    17    1
   17    15    18    1
   18    18    19    1
   19    18    20    1
   20     1    21    1
   21    18    21    1
   22    21    22    1
   23    21    23    1
   24    13    24    1
   25    24    25    1
@<TRIPOS>SUBSTRUCTURE
       1 MOL1            1 RESIDUE      1      MOL     
@<SCITEGIC>MOL_PROPERTY
VM2 Rank
SciTegic.value.IntegerValue
25

@<SCITEGIC>MOL_PROPERTY
Conf_Id
SciTegic.value.IntegerValue
606

@<SCITEGIC>MOL_PROPERTY
Probability
SciTegic.value.DoubleValue
1.51

@<SCITEGIC>MOL_PROPERTY
Sum Probability
SciTegic.value.DoubleValue
74.77

@<SCITEGIC>MOL_PROPERTY
Delta G
SciTegic.value.DoubleValue
0.696

@<SCITEGIC>MOL_PROPERTY
G
SciTegic.value.DoubleValue
62.771

@<SCITEGIC>MOL_PROPERTY
E
SciTegic.value.DoubleValue
30.029

@<SCITEGIC>MOL_PROPERTY
-TS
SciTegic.value.DoubleValue
32.742

@<SCITEGIC>MOL_PROPERTY
U+W
SciTegic.value.DoubleValue
9.462

@<SCITEGIC>MOL_PROPERTY
U
SciTegic.value.DoubleValue
11.687

@<SCITEGIC>MOL_PROPERTY
W
SciTegic.value.DoubleValue
-2.226

@<SCITEGIC>MOL_PROPERTY
W(PB)
SciTegic.value.DoubleValue
-4.372

@<SCITEGIC>MOL_PROPERTY
W(SA)
SciTegic.value.DoubleValue
2.147

@<SCITEGIC>MOL_PROPERTY
Valence
SciTegic.value.DoubleValue
16.789

@<SCITEGIC>MOL_PROPERTY
Coulomb
SciTegic.value.DoubleValue
-7.836

@<SCITEGIC>MOL_PROPERTY
VdW
SciTegic.value.DoubleValue
2.734

@<SCITEGIC>MOL_PROPERTY
VdW6
SciTegic.value.DoubleValue
-12.729

@<SCITEGIC>MOL_PROPERTY
VdW12
SciTegic.value.DoubleValue
15.463

@<SCITEGIC>MOL_PROPERTY
Bond
SciTegic.value.DoubleValue
0.436

@<SCITEGIC>MOL_PROPERTY
Angle
SciTegic.value.DoubleValue
5.314

@<SCITEGIC>MOL_PROPERTY
Pdih
SciTegic.value.DoubleValue
11.039

@<SCITEGIC>MOL_PROPERTY
Idih
SciTegic.value.DoubleValue
0.000

@<SCITEGIC>MOL_PROPERTY
Tether
SciTegic.value.DoubleValue
0.000

@<TRIPOS>MOLECULE
guest-s17_vm2.mol2 : vm2 ligand conformer 26
          25          25           1
SMALL
USER_CHARGES
 
@<TRIPOS>ATOM
       1    C1      21.055492   19.512968   21.007019 C.3        1 MOL1        -0.1684
       2    H1      21.365304   19.741648   19.977965 H          1 MOL1         0.0833
       3    H2      21.845151   19.931528   21.644676 H          1 MOL1         0.0833
       4    C2      21.011467   17.971480   21.141370 C.3        1 MOL1        -0.1684
       5    H3      20.088600   17.581737   20.690699 H          1 MOL1         0.0833
       6    H4      21.831087   17.554460   20.540234 H          1 MOL1         0.0833
       7    C3      21.167763   17.424601   22.580637 C.3        1 MOL1        -0.1684
       8    H5      22.162595   17.675855   22.973132 H          1 MOL1         0.0833
       9    H6      21.139998   16.327827   22.522879 H          1 MOL1         0.0833
      10    C4      20.072946   17.883071   23.572863 C.3        1 MOL1        -0.1760
      11    H7      19.095190   17.874380   23.075309 H          1 MOL1         0.0833
      12    H8      19.998966   17.123580   24.362797 H          1 MOL1         0.0833
      13    C5      20.357508   19.263553   24.221877 C.3        1 MOL1         0.1219
      14    H9      21.358845   19.611571   23.932388 H          1 MOL1         0.0790
      15    C6      19.331922   20.352553   23.834906 C.3        1 MOL1        -0.1760
      16    H10     18.324519   19.919312   23.790032 H          1 MOL1         0.0833
      17    H11     19.297489   21.100645   24.638356 H          1 MOL1         0.0833
      18    C7      19.644146   21.103281   22.516727 C.3        1 MOL1        -0.1684
      19    H12     20.582307   21.665562   22.619023 H          1 MOL1         0.0833
      20    H13     18.860402   21.859851   22.374255 H          1 MOL1         0.0833
      21    C8      19.693588   20.218802   21.247831 C.3        1 MOL1        -0.1684
      22    H14     18.863593   19.499956   21.250819 H          1 MOL1         0.0833
      23    H15     19.505530   20.873303   20.385564 H          1 MOL1         0.0833
      24    O1      20.329168   19.112691   25.636768 O.3        1 MOL1        -0.5508
      25    H16     21.026889   18.462475   25.862684 H          1 MOL1         0.3780
@<TRIPOS>BOND
    1     1     2    1
    2     1     3    1
    3     1     4    1
    4     4     5    1
    5     4     6    1
    6     4     7    1
    7     7     8    1
    8     7     9    1
    9     7    10    1
   10    10    11    1
   11    10    12    1
   12    10    13    1
   13    13    14    1
   14    13    15    1
   15    15    16    1
   16    15    17    1
   17    15    18    1
   18    18    19    1
   19    18    20    1
   20     1    21    1
   21    18    21    1
   22    21    22    1
   23    21    23    1
   24    13    24    1
   25    24    25    1
@<TRIPOS>SUBSTRUCTURE
       1 MOL1            1 RESIDUE      1      MOL     
@<SCITEGIC>MOL_PROPERTY
VM2 Rank
SciTegic.value.IntegerValue
26

@<SCITEGIC>MOL_PROPERTY
Conf_Id
SciTegic.value.IntegerValue
1346

@<SCITEGIC>MOL_PROPERTY
Probability
SciTegic.value.DoubleValue
1.49

@<SCITEGIC>MOL_PROPERTY
Sum Probability
SciTegic.value.DoubleValue
76.26

@<SCITEGIC>MOL_PROPERTY
Delta G
SciTegic.value.DoubleValue
0.703

@<SCITEGIC>MOL_PROPERTY
G
SciTegic.value.DoubleValue
62.778

@<SCITEGIC>MOL_PROPERTY
E
SciTegic.value.DoubleValue
30.568

@<SCITEGIC>MOL_PROPERTY
-TS
SciTegic.value.DoubleValue
32.210

@<SCITEGIC>MOL_PROPERTY
U+W
SciTegic.value.DoubleValue
10.000

@<SCITEGIC>MOL_PROPERTY
U
SciTegic.value.DoubleValue
12.140

@<SCITEGIC>MOL_PROPERTY
W
SciTegic.value.DoubleValue
-2.139

@<SCITEGIC>MOL_PROPERTY
W(PB)
SciTegic.value.DoubleValue
-4.284

@<SCITEGIC>MOL_PROPERTY
W(SA)
SciTegic.value.DoubleValue
2.144

@<SCITEGIC>MOL_PROPERTY
Valence
SciTegic.value.DoubleValue
18.247

@<SCITEGIC>MOL_PROPERTY
Coulomb
SciTegic.value.DoubleValue
-8.720

@<SCITEGIC>MOL_PROPERTY
VdW
SciTegic.value.DoubleValue
2.612

@<SCITEGIC>MOL_PROPERTY
VdW6
SciTegic.value.DoubleValue
-11.959

@<SCITEGIC>MOL_PROPERTY
VdW12
SciTegic.value.DoubleValue
14.571

@<SCITEGIC>MOL_PROPERTY
Bond
SciTegic.value.DoubleValue
0.338

@<SCITEGIC>MOL_PROPERTY
Angle
SciTegic.value.DoubleValue
3.151

@<SCITEGIC>MOL_PROPERTY
Pdih
SciTegic.value.DoubleValue
14.759

@<SCITEGIC>MOL_PROPERTY
Idih
SciTegic.value.DoubleValue
0.000

@<SCITEGIC>MOL_PROPERTY
Tether
SciTegic.value.DoubleValue
0.000

@<TRIPOS>MOLECULE
guest-s17_vm2.mol2 : vm2 ligand conformer 27
          25          25           1
SMALL
USER_CHARGES
 
@<TRIPOS>ATOM
       1    C1      19.706348   18.990767   20.935781 C.3        1 MOL1        -0.1684
       2    H1      18.875855   18.677704   21.578739 H          1 MOL1         0.0833
       3    H2      19.330816   18.853611   19.912648 H          1 MOL1         0.0833
       4    C2      20.915576   18.039012   21.113505 C.3        1 MOL1        -0.1684
       5    H3      20.582637   17.029190   20.837281 H          1 MOL1         0.0833
       6    H4      21.695490   18.303656   20.386737 H          1 MOL1         0.0833
       7    C3      21.550114   17.958938   22.525478 C.3        1 MOL1        -0.1684
       8    H5      22.258426   18.781480   22.676184 H          1 MOL1         0.0833
       9    H6      22.171818   17.053449   22.549935 H          1 MOL1         0.0833
      10    C4      20.541131   17.886307   23.702758 C.3        1 MOL1        -0.1760
      11    H7      19.575341   17.486114   23.370574 H          1 MOL1         0.0833
      12    H8      20.929407   17.148799   24.417368 H          1 MOL1         0.0833
      13    C5      20.341625   19.215463   24.474078 C.3        1 MOL1         0.1219
      14    H9      21.329657   19.586834   24.782067 H          1 MOL1         0.0790
      15    C6      19.616631   20.352260   23.711196 C.3        1 MOL1        -0.1760
      16    H10     18.623978   20.022177   23.381840 H          1 MOL1         0.0833
      17    H11     19.427513   21.154326   24.436961 H          1 MOL1         0.0833
      18    C7      20.420633   20.970782   22.536212 C.3        1 MOL1        -0.1684
      19    H12     21.495740   20.818369   22.684072 H          1 MOL1         0.0833
      20    H13     20.290902   22.061224   22.568652 H          1 MOL1         0.0833
      21    C8      19.993474   20.501609   21.121881 C.3        1 MOL1        -0.1684
      22    H14     19.078782   21.045889   20.849890 H          1 MOL1         0.0833
      23    H15     20.754508   20.818620   20.396062 H          1 MOL1         0.0833
      24    O1      19.578467   18.927862   25.639110 O.3        1 MOL1        -0.5508
      25    H16     20.080119   18.257253   26.147810 H          1 MOL1         0.3780
@<TRIPOS>BOND
    1     1     2    1
    2     1     3    1
    3     1     4    1
    4     4     5    1
    5     4     6    1
    6     4     7    1
    7     7     8    1
    8     7     9    1
    9     7    10    1
   10    10    11    1
   11    10    12    1
   12    10    13    1
   13    13    14    1
   14    13    15    1
   15    15    16    1
   16    15    17    1
   17    15    18    1
   18    18    19    1
   19    18    20    1
   20     1    21    1
   21    18    21    1
   22    21    22    1
   23    21    23    1
   24    13    24    1
   25    24    25    1
@<TRIPOS>SUBSTRUCTURE
       1 MOL1            1 RESIDUE      1      MOL     
@<SCITEGIC>MOL_PROPERTY
VM2 Rank
SciTegic.value.IntegerValue
27

@<SCITEGIC>MOL_PROPERTY
Conf_Id
SciTegic.value.IntegerValue
1669

@<SCITEGIC>MOL_PROPERTY
Probability
SciTegic.value.DoubleValue
1.31

@<SCITEGIC>MOL_PROPERTY
Sum Probability
SciTegic.value.DoubleValue
77.57

@<SCITEGIC>MOL_PROPERTY
Delta G
SciTegic.value.DoubleValue
0.777

@<SCITEGIC>MOL_PROPERTY
G
SciTegic.value.DoubleValue
62.852

@<SCITEGIC>MOL_PROPERTY
E
SciTegic.value.DoubleValue
30.198

@<SCITEGIC>MOL_PROPERTY
-TS
SciTegic.value.DoubleValue
32.655

@<SCITEGIC>MOL_PROPERTY
U+W
SciTegic.value.DoubleValue
9.630

@<SCITEGIC>MOL_PROPERTY
U
SciTegic.value.DoubleValue
11.876

@<SCITEGIC>MOL_PROPERTY
W
SciTegic.value.DoubleValue
-2.246

@<SCITEGIC>MOL_PROPERTY
W(PB)
SciTegic.value.DoubleValue
-4.376

@<SCITEGIC>MOL_PROPERTY
W(SA)
SciTegic.value.DoubleValue
2.130

@<SCITEGIC>MOL_PROPERTY
Valence
SciTegic.value.DoubleValue
17.153

@<SCITEGIC>MOL_PROPERTY
Coulomb
SciTegic.value.DoubleValue
-7.966

@<SCITEGIC>MOL_PROPERTY
VdW
SciTegic.value.DoubleValue
2.689

@<SCITEGIC>MOL_PROPERTY
VdW6
SciTegic.value.DoubleValue
-12.458

@<SCITEGIC>MOL_PROPERTY
VdW12
SciTegic.value.DoubleValue
15.147

@<SCITEGIC>MOL_PROPERTY
Bond
SciTegic.value.DoubleValue
0.421

@<SCITEGIC>MOL_PROPERTY
Angle
SciTegic.value.DoubleValue
5.258

@<SCITEGIC>MOL_PROPERTY
Pdih
SciTegic.value.DoubleValue
11.475

@<SCITEGIC>MOL_PROPERTY
Idih
SciTegic.value.DoubleValue
0.000

@<SCITEGIC>MOL_PROPERTY
Tether
SciTegic.value.DoubleValue
0.000

@<TRIPOS>MOLECULE
guest-s17_vm2.mol2 : vm2 ligand conformer 28
          25          25           1
SMALL
USER_CHARGES
 
@<TRIPOS>ATOM
       1    C1      19.707284   18.990715   20.935914 C.3        1 MOL1        -0.1684
       2    H1      18.876313   18.676929   21.577745 H          1 MOL1         0.0833
       3    H2      19.332738   18.853829   19.912366 H          1 MOL1         0.0833
       4    C2      20.916903   18.039467   21.113866 C.3        1 MOL1        -0.1684
       5    H3      20.584879   17.029801   20.835949 H          1 MOL1         0.0833
       6    H4      21.697472   18.305393   20.388262 H          1 MOL1         0.0833
       7    C3      21.550057   17.957790   22.526382 C.3        1 MOL1        -0.1684
       8    H5      22.259107   18.779468   22.678554 H          1 MOL1         0.0833
       9    H6      22.170561   17.051501   22.551266 H          1 MOL1         0.0833
      10    C4      20.539732   17.885796   23.702324 C.3        1 MOL1        -0.1760
      11    H7      19.577156   17.479756   23.368619 H          1 MOL1         0.0833
      12    H8      20.929349   17.154030   24.422710 H          1 MOL1         0.0833
      13    C5      20.339368   19.215457   24.471951 C.3        1 MOL1         0.1219
      14    H9      21.327801   19.584996   24.780240 H          1 MOL1         0.0790
      15    C6      19.614389   20.353730   23.710889 C.3        1 MOL1        -0.1760
      16    H10     18.621376   20.028855   23.377480 H          1 MOL1         0.0833
      17    H11     19.428517   21.156864   24.436607 H          1 MOL1         0.0833
      18    C7      20.420292   20.970889   22.536830 C.3        1 MOL1        -0.1684
      19    H12     21.495124   20.817078   22.685634 H          1 MOL1         0.0833
      20    H13     20.291999   22.061547   22.568619 H          1 MOL1         0.0833
      21    C8      19.993734   20.501639   21.122398 C.3        1 MOL1        -0.1684
      22    H14     20.755085   20.818857   20.396985 H          1 MOL1         0.0833
      23    H15     19.079125   21.045791   20.849835 H          1 MOL1         0.0833
      24    O1      19.582241   18.927517   25.639447 O.3        1 MOL1        -0.5508
      25    H16     18.711798   18.602131   25.330840 H          1 MOL1         0.3780
@<TRIPOS>BOND
    1     1     2    1
    2     1     3    1
    3     1     4    1
    4     4     5    1
    5     4     6    1
    6     4     7    1
    7     7     8    1
    8     7     9    1
    9     7    10    1
   10    10    11    1
   11    10    12    1
   12    10    13    1
   13    13    14    1
   14    13    15    1
   15    15    16    1
   16    15    17    1
   17    15    18    1
   18    18    19    1
   19    18    20    1
   20     1    21    1
   21    18    21    1
   22    21    22    1
   23    21    23    1
   24    13    24    1
   25    24    25    1
@<TRIPOS>SUBSTRUCTURE
       1 MOL1            1 RESIDUE      1      MOL     
@<SCITEGIC>MOL_PROPERTY
VM2 Rank
SciTegic.value.IntegerValue
28

@<SCITEGIC>MOL_PROPERTY
Conf_Id
SciTegic.value.IntegerValue
77

@<SCITEGIC>MOL_PROPERTY
Probability
SciTegic.value.DoubleValue
1.31

@<SCITEGIC>MOL_PROPERTY
Sum Probability
SciTegic.value.DoubleValue
78.89

@<SCITEGIC>MOL_PROPERTY
Delta G
SciTegic.value.DoubleValue
0.777

@<SCITEGIC>MOL_PROPERTY
G
SciTegic.value.DoubleValue
62.852

@<SCITEGIC>MOL_PROPERTY
E
SciTegic.value.DoubleValue
30.210

@<SCITEGIC>MOL_PROPERTY
-TS
SciTegic.value.DoubleValue
32.642

@<SCITEGIC>MOL_PROPERTY
U+W
SciTegic.value.DoubleValue
9.643

@<SCITEGIC>MOL_PROPERTY
U
SciTegic.value.DoubleValue
11.413

@<SCITEGIC>MOL_PROPERTY
W
SciTegic.value.DoubleValue
-1.770

@<SCITEGIC>MOL_PROPERTY
W(PB)
SciTegic.value.DoubleValue
-3.908

@<SCITEGIC>MOL_PROPERTY
W(SA)
SciTegic.value.DoubleValue
2.138

@<SCITEGIC>MOL_PROPERTY
Valence
SciTegic.value.DoubleValue
17.496

@<SCITEGIC>MOL_PROPERTY
Coulomb
SciTegic.value.DoubleValue
-8.736

@<SCITEGIC>MOL_PROPERTY
VdW
SciTegic.value.DoubleValue
2.653

@<SCITEGIC>MOL_PROPERTY
VdW6
SciTegic.value.DoubleValue
-12.485

@<SCITEGIC>MOL_PROPERTY
VdW12
SciTegic.value.DoubleValue
15.138

@<SCITEGIC>MOL_PROPERTY
Bond
SciTegic.value.DoubleValue
0.414

@<SCITEGIC>MOL_PROPERTY
Angle
SciTegic.value.DoubleValue
5.295

@<SCITEGIC>MOL_PROPERTY
Pdih
SciTegic.value.DoubleValue
11.787

@<SCITEGIC>MOL_PROPERTY
Idih
SciTegic.value.DoubleValue
0.000

@<SCITEGIC>MOL_PROPERTY
Tether
SciTegic.value.DoubleValue
0.000

@<TRIPOS>MOLECULE
guest-s17_vm2.mol2 : vm2 ligand conformer 29
          25          25           1
SMALL
USER_CHARGES
 
@<TRIPOS>ATOM
       1    C1      21.073317   19.515324   21.014822 C.3        1 MOL1        -0.1684
       2    H1      21.465003   19.568439   19.989644 H          1 MOL1         0.0833
       3    H2      21.924477   19.766725   21.661107 H          1 MOL1         0.0833
       4    C2      20.588818   18.059000   21.250103 C.3        1 MOL1        -0.1684
       5    H3      19.492752   17.994080   21.242097 H          1 MOL1         0.0833
       6    H4      20.919793   17.459570   20.390811 H          1 MOL1         0.0833
       7    C3      21.158276   17.390667   22.524426 C.3        1 MOL1        -0.1684
       8    H5      22.221425   17.643079   22.637441 H          1 MOL1         0.0833
       9    H6      21.126829   16.301894   22.381116 H          1 MOL1         0.0833
      10    C4      20.397504   17.709503   23.835242 C.3        1 MOL1        -0.1760
      11    H7      19.374307   17.316328   23.779983 H          1 MOL1         0.0833
      12    H8      20.887135   17.149510   24.643344 H          1 MOL1         0.0833
      13    C5      20.367546   19.204999   24.222646 C.3        1 MOL1         0.1219
      14    H9      21.330216   19.655121   23.942906 H          1 MOL1         0.0790
      15    C6      19.206466   19.994906   23.562448 C.3        1 MOL1        -0.1760
      16    H10     18.505410   19.318691   23.057578 H          1 MOL1         0.0833
      17    H11     18.615404   20.486588   24.346788 H          1 MOL1         0.0833
      18    C7      19.679959   21.088005   22.575399 C.3        1 MOL1        -0.1684
      19    H12     20.563625   21.602560   22.976948 H          1 MOL1         0.0833
      20    H13     18.894903   21.853809   22.510190 H          1 MOL1         0.0833
      21    C8      19.964217   20.588050   21.138655 C.3        1 MOL1        -0.1684
      22    H14     19.035955   20.222916   20.678550 H          1 MOL1         0.0833
      23    H15     20.265762   21.459147   20.540903 H          1 MOL1         0.0833
      24    O1      20.227896   19.292546   25.636261 O.3        1 MOL1        -0.5508
      25    H16     20.271306   20.245071   25.863081 H          1 MOL1         0.3780
@<TRIPOS>BOND
    1     1     2    1
    2     1     3    1
    3     1     4    1
    4     4     5    1
    5     4     6    1
    6     4     7    1
    7     7     8    1
    8     7     9    1
    9     7    10    1
   10    10    11    1
   11    10    12    1
   12    10    13    1
   13    13    14    1
   14    13    15    1
   15    15    16    1
   16    15    17    1
   17    15    18    1
   18    18    19    1
   19    18    20    1
   20     1    21    1
   21    18    21    1
   22    21    22    1
   23    21    23    1
   24    13    24    1
   25    24    25    1
@<TRIPOS>SUBSTRUCTURE
       1 MOL1            1 RESIDUE      1      MOL     
@<SCITEGIC>MOL_PROPERTY
VM2 Rank
SciTegic.value.IntegerValue
29

@<SCITEGIC>MOL_PROPERTY
Conf_Id
SciTegic.value.IntegerValue
471

@<SCITEGIC>MOL_PROPERTY
Probability
SciTegic.value.DoubleValue
1.31

@<SCITEGIC>MOL_PROPERTY
Sum Probability
SciTegic.value.DoubleValue
80.20

@<SCITEGIC>MOL_PROPERTY
Delta G
SciTegic.value.DoubleValue
0.779

@<SCITEGIC>MOL_PROPERTY
G
SciTegic.value.DoubleValue
62.855

@<SCITEGIC>MOL_PROPERTY
E
SciTegic.value.DoubleValue
30.645

@<SCITEGIC>MOL_PROPERTY
-TS
SciTegic.value.DoubleValue
32.210

@<SCITEGIC>MOL_PROPERTY
U+W
SciTegic.value.DoubleValue
10.077

@<SCITEGIC>MOL_PROPERTY
U
SciTegic.value.DoubleValue
12.140

@<SCITEGIC>MOL_PROPERTY
W
SciTegic.value.DoubleValue
-2.063

@<SCITEGIC>MOL_PROPERTY
W(PB)
SciTegic.value.DoubleValue
-4.217

@<SCITEGIC>MOL_PROPERTY
W(SA)
SciTegic.value.DoubleValue
2.155

@<SCITEGIC>MOL_PROPERTY
Valence
SciTegic.value.DoubleValue
18.247

@<SCITEGIC>MOL_PROPERTY
Coulomb
SciTegic.value.DoubleValue
-8.720

@<SCITEGIC>MOL_PROPERTY
VdW
SciTegic.value.DoubleValue
2.612

@<SCITEGIC>MOL_PROPERTY
VdW6
SciTegic.value.DoubleValue
-11.959

@<SCITEGIC>MOL_PROPERTY
VdW12
SciTegic.value.DoubleValue
14.570

@<SCITEGIC>MOL_PROPERTY
Bond
SciTegic.value.DoubleValue
0.338

@<SCITEGIC>MOL_PROPERTY
Angle
SciTegic.value.DoubleValue
3.151

@<SCITEGIC>MOL_PROPERTY
Pdih
SciTegic.value.DoubleValue
14.759

@<SCITEGIC>MOL_PROPERTY
Idih
SciTegic.value.DoubleValue
0.000

@<SCITEGIC>MOL_PROPERTY
Tether
SciTegic.value.DoubleValue
0.000

@<TRIPOS>MOLECULE
guest-s17_vm2.mol2 : vm2 ligand conformer 30
          25          25           1
SMALL
USER_CHARGES
 
@<TRIPOS>ATOM
       1    C1      21.053511   19.512007   21.002352 C.3        1 MOL1        -0.1684
       2    H1      21.360771   19.738052   19.971950 H          1 MOL1         0.0833
       3    H2      21.846572   19.928495   21.637189 H          1 MOL1         0.0833
       4    C2      21.003910   17.971216   21.139185 C.3        1 MOL1        -0.1684
       5    H3      20.076303   17.583771   20.696375 H          1 MOL1         0.0833
       6    H4      21.817510   17.550238   20.532663 H          1 MOL1         0.0833
       7    C3      21.170024   17.426916   22.578060 C.3        1 MOL1        -0.1684
       8    H5      22.165717   17.682432   22.965632 H          1 MOL1         0.0833
       9    H6      21.146653   16.330015   22.521801 H          1 MOL1         0.0833
      10    C4      20.079889   17.880305   23.578147 C.3        1 MOL1        -0.1760
      11    H7      19.096602   17.859902   23.092255 H          1 MOL1         0.0833
      12    H8      20.025560   17.124509   24.373461 H          1 MOL1         0.0833
      13    C5      20.358000   19.262983   24.225358 C.3        1 MOL1         0.1219
      14    H9      21.361678   19.608041   23.940340 H          1 MOL1         0.0790
      15    C6      19.331187   20.349568   23.831888 C.3        1 MOL1        -0.1760
      16    H10     18.326240   19.911532   23.775706 H          1 MOL1         0.0833
      17    H11     19.281930   21.099204   24.632752 H          1 MOL1         0.0833
      18    C7      19.650820   21.103254   22.517704 C.3        1 MOL1        -0.1684
      19    H12     20.592029   21.659950   22.622610 H          1 MOL1         0.0833
      20    H13     18.871537   21.864685   22.376306 H          1 MOL1         0.0833
      21    C8      19.695039   20.222401   21.246533 C.3        1 MOL1        -0.1684
      22    H14     19.508508   20.879971   20.386262 H          1 MOL1         0.0833
      23    H15     18.862380   19.506550   21.248918 H          1 MOL1         0.0833
      24    O1      20.321621   19.114351   25.640772 O.3        1 MOL1        -0.5508
      25    H16     20.571173   19.981671   26.022621 H          1 MOL1         0.3780
@<TRIPOS>BOND
    1     1     2    1
    2     1     3    1
    3     1     4    1
    4     4     5    1
    5     4     6    1
    6     4     7    1
    7     7     8    1
    8     7     9    1
    9     7    10    1
   10    10    11    1
   11    10    12    1
   12    10    13    1
   13    13    14    1
   14    13    15    1
   15    15    16    1
   16    15    17    1
   17    15    18    1
   18    18    19    1
   19    18    20    1
   20     1    21    1
   21    18    21    1
   22    21    22    1
   23    21    23    1
   24    13    24    1
   25    24    25    1
@<TRIPOS>SUBSTRUCTURE
       1 MOL1            1 RESIDUE      1      MOL     
@<SCITEGIC>MOL_PROPERTY
VM2 Rank
SciTegic.value.IntegerValue
30

@<SCITEGIC>MOL_PROPERTY
Conf_Id
SciTegic.value.IntegerValue
960

@<SCITEGIC>MOL_PROPERTY
Probability
SciTegic.value.DoubleValue
1.26

@<SCITEGIC>MOL_PROPERTY
Sum Probability
SciTegic.value.DoubleValue
81.45

@<SCITEGIC>MOL_PROPERTY
Delta G
SciTegic.value.DoubleValue
0.803

@<SCITEGIC>MOL_PROPERTY
G
SciTegic.value.DoubleValue
62.878

@<SCITEGIC>MOL_PROPERTY
E
SciTegic.value.DoubleValue
30.759

@<SCITEGIC>MOL_PROPERTY
-TS
SciTegic.value.DoubleValue
32.119

@<SCITEGIC>MOL_PROPERTY
U+W
SciTegic.value.DoubleValue
10.192

@<SCITEGIC>MOL_PROPERTY
U
SciTegic.value.DoubleValue
12.424

@<SCITEGIC>MOL_PROPERTY
W
SciTegic.value.DoubleValue
-2.232

@<SCITEGIC>MOL_PROPERTY
W(PB)
SciTegic.value.DoubleValue
-4.375

@<SCITEGIC>MOL_PROPERTY
W(SA)
SciTegic.value.DoubleValue
2.143

@<SCITEGIC>MOL_PROPERTY
Valence
SciTegic.value.DoubleValue
18.277

@<SCITEGIC>MOL_PROPERTY
Coulomb
SciTegic.value.DoubleValue
-8.429

@<SCITEGIC>MOL_PROPERTY
VdW
SciTegic.value.DoubleValue
2.575

@<SCITEGIC>MOL_PROPERTY
VdW6
SciTegic.value.DoubleValue
-11.900

@<SCITEGIC>MOL_PROPERTY
VdW12
SciTegic.value.DoubleValue
14.475

@<SCITEGIC>MOL_PROPERTY
Bond
SciTegic.value.DoubleValue
0.331

@<SCITEGIC>MOL_PROPERTY
Angle
SciTegic.value.DoubleValue
3.180

@<SCITEGIC>MOL_PROPERTY
Pdih
SciTegic.value.DoubleValue
14.766

@<SCITEGIC>MOL_PROPERTY
Idih
SciTegic.value.DoubleValue
0.000

@<SCITEGIC>MOL_PROPERTY
Tether
SciTegic.value.DoubleValue
0.000

@<TRIPOS>MOLECULE
guest-s17_vm2.mol2 : vm2 ligand conformer 31
          25          25           1
SMALL
USER_CHARGES
 
@<TRIPOS>ATOM
       1    C1      21.070923   19.514210   21.009908 C.3        1 MOL1        -0.1684
       2    H1      21.923380   19.769116   21.653155 H          1 MOL1         0.0833
       3    H2      21.458715   19.567198   19.983241 H          1 MOL1         0.0833
       4    C2      20.591413   18.057256   21.248822 C.3        1 MOL1        -0.1684
       5    H3      19.495501   17.988855   21.240586 H          1 MOL1         0.0833
       6    H4      20.925026   17.456496   20.391471 H          1 MOL1         0.0833
       7    C3      21.162165   17.394974   22.525283 C.3        1 MOL1        -0.1684
       8    H5      22.223708   17.653091   22.640577 H          1 MOL1         0.0833
       9    H6      21.136817   16.305841   22.383157 H          1 MOL1         0.0833
      10    C4      20.394569   17.711120   23.832241 C.3        1 MOL1        -0.1760
      11    H7      19.369722   17.323505   23.765976 H          1 MOL1         0.0833
      12    H8      20.874700   17.139513   24.637538 H          1 MOL1         0.0833
      13    C5      20.367819   19.205769   24.226126 C.3        1 MOL1         0.1219
      14    H9      21.330183   19.659232   23.950633 H          1 MOL1         0.0790
      15    C6      19.209997   20.002234   23.568007 C.3        1 MOL1        -0.1760
      16    H10     18.496263   19.330828   23.074897 H          1 MOL1         0.0833
      17    H11     18.635947   20.505283   24.358013 H          1 MOL1         0.0833
      18    C7      19.683995   21.088182   22.572932 C.3        1 MOL1        -0.1684
      19    H12     20.571639   21.599898   22.969341 H          1 MOL1         0.0833
      20    H13     18.902318   21.857498   22.509435 H          1 MOL1         0.0833
      21    C8      19.958814   20.583052   21.136431 C.3        1 MOL1        -0.1684
      22    H14     20.253580   21.452626   20.533115 H          1 MOL1         0.0833
      23    H15     19.028401   20.213364   20.684422 H          1 MOL1         0.0833
      24    O1      20.224303   19.286203   25.640249 O.3        1 MOL1        -0.5508
      25    H16     21.004565   18.838978   26.029492 H          1 MOL1         0.3780
@<TRIPOS>BOND
    1     1     2    1
    2     1     3    1
    3     1     4    1
    4     4     5    1
    5     4     6    1
    6     4     7    1
    7     7     8    1
    8     7     9    1
    9     7    10    1
   10    10    11    1
   11    10    12    1
   12    10    13    1
   13    13    14    1
   14    13    15    1
   15    15    16    1
   16    15    17    1
   17    15    18    1
   18    18    19    1
   19    18    20    1
   20     1    21    1
   21    18    21    1
   22    21    22    1
   23    21    23    1
   24    13    24    1
   25    24    25    1
@<TRIPOS>SUBSTRUCTURE
       1 MOL1            1 RESIDUE      1      MOL     
@<SCITEGIC>MOL_PROPERTY
VM2 Rank
SciTegic.value.IntegerValue
31

@<SCITEGIC>MOL_PROPERTY
Conf_Id
SciTegic.value.IntegerValue
1335

@<SCITEGIC>MOL_PROPERTY
Probability
SciTegic.value.DoubleValue
1.24

@<SCITEGIC>MOL_PROPERTY
Sum Probability
SciTegic.value.DoubleValue
82.70

@<SCITEGIC>MOL_PROPERTY
Delta G
SciTegic.value.DoubleValue
0.809

@<SCITEGIC>MOL_PROPERTY
G
SciTegic.value.DoubleValue
62.885

@<SCITEGIC>MOL_PROPERTY
E
SciTegic.value.DoubleValue
30.766

@<SCITEGIC>MOL_PROPERTY
-TS
SciTegic.value.DoubleValue
32.119

@<SCITEGIC>MOL_PROPERTY
U+W
SciTegic.value.DoubleValue
10.199

@<SCITEGIC>MOL_PROPERTY
U
SciTegic.value.DoubleValue
12.424

@<SCITEGIC>MOL_PROPERTY
W
SciTegic.value.DoubleValue
-2.225

@<SCITEGIC>MOL_PROPERTY
W(PB)
SciTegic.value.DoubleValue
-4.391

@<SCITEGIC>MOL_PROPERTY
W(SA)
SciTegic.value.DoubleValue
2.165

@<SCITEGIC>MOL_PROPERTY
Valence
SciTegic.value.DoubleValue
18.277

@<SCITEGIC>MOL_PROPERTY
Coulomb
SciTegic.value.DoubleValue
-8.429

@<SCITEGIC>MOL_PROPERTY
VdW
SciTegic.value.DoubleValue
2.575

@<SCITEGIC>MOL_PROPERTY
VdW6
SciTegic.value.DoubleValue
-11.900

@<SCITEGIC>MOL_PROPERTY
VdW12
SciTegic.value.DoubleValue
14.476

@<SCITEGIC>MOL_PROPERTY
Bond
SciTegic.value.DoubleValue
0.331

@<SCITEGIC>MOL_PROPERTY
Angle
SciTegic.value.DoubleValue
3.180

@<SCITEGIC>MOL_PROPERTY
Pdih
SciTegic.value.DoubleValue
14.767

@<SCITEGIC>MOL_PROPERTY
Idih
SciTegic.value.DoubleValue
0.000

@<SCITEGIC>MOL_PROPERTY
Tether
SciTegic.value.DoubleValue
0.000

@<TRIPOS>MOLECULE
guest-s17_vm2.mol2 : vm2 ligand conformer 32
          25          25           1
SMALL
USER_CHARGES
 
@<TRIPOS>ATOM
       1    C1      19.706588   18.990027   20.935781 C.3        1 MOL1        -0.1684
       2    H1      18.876460   18.675991   21.578738 H          1 MOL1         0.0833
       3    H2      19.331129   18.852679   19.912645 H          1 MOL1         0.0833
       4    C2      20.916676   18.039305   21.113358 C.3        1 MOL1        -0.1684
       5    H3      20.584684   17.029485   20.835999 H          1 MOL1         0.0833
       6    H4      21.696870   18.305192   20.387353 H          1 MOL1         0.0833
       7    C3      21.550230   17.958054   22.525779 C.3        1 MOL1        -0.1684
       8    H5      22.260461   18.778818   22.676992 H          1 MOL1         0.0833
       9    H6      22.169454   17.050939   22.551303 H          1 MOL1         0.0833
      10    C4      20.540463   17.888390   23.702677 C.3        1 MOL1        -0.1760
      11    H7      19.574736   17.486479   23.373088 H          1 MOL1         0.0833
      12    H8      20.926936   17.155318   24.423131 H          1 MOL1         0.0833
      13    C5      20.341104   19.216962   24.474082 C.3        1 MOL1         0.1219
      14    H9      21.330446   19.584866   24.782029 H          1 MOL1         0.0790
      15    C6      19.615794   20.354274   23.711302 C.3        1 MOL1        -0.1760
      16    H10     18.624211   20.022851   23.379379 H          1 MOL1         0.0833
      17    H11     19.425120   21.160911   24.431250 H          1 MOL1         0.0833
      18    C7      20.421102   20.970038   22.535878 C.3        1 MOL1        -0.1684
      19    H12     21.495938   20.815037   22.683174 H          1 MOL1         0.0833
      20    H13     20.294294   22.060891   22.567238 H          1 MOL1         0.0833
      21    C8      19.992376   20.501085   21.122020 C.3        1 MOL1        -0.1684
      22    H14     20.752337   20.818872   20.395409 H          1 MOL1         0.0833
      23    H15     19.076946   21.044720   20.851208 H          1 MOL1         0.0833
      24    O1      19.579668   18.924864   25.639123 O.3        1 MOL1        -0.5508
      25    H16     19.517913   19.756890   26.153000 H          1 MOL1         0.3780
@<TRIPOS>BOND
    1     1     2    1
    2     1     3    1
    3     1     4    1
    4     4     5    1
    5     4     6    1
    6     4     7    1
    7     7     8    1
    8     7     9    1
    9     7    10    1
   10    10    11    1
   11    10    12    1
   12    10    13    1
   13    13    14    1
   14    13    15    1
   15    15    16    1
   16    15    17    1
   17    15    18    1
   18    18    19    1
   19    18    20    1
   20     1    21    1
   21    18    21    1
   22    21    22    1
   23    21    23    1
   24    13    24    1
   25    24    25    1
@<TRIPOS>SUBSTRUCTURE
       1 MOL1            1 RESIDUE      1      MOL     
@<SCITEGIC>MOL_PROPERTY
VM2 Rank
SciTegic.value.IntegerValue
32

@<SCITEGIC>MOL_PROPERTY
Conf_Id
SciTegic.value.IntegerValue
24

@<SCITEGIC>MOL_PROPERTY
Probability
SciTegic.value.DoubleValue
1.21

@<SCITEGIC>MOL_PROPERTY
Sum Probability
SciTegic.value.DoubleValue
83.91

@<SCITEGIC>MOL_PROPERTY
Delta G
SciTegic.value.DoubleValue
0.824

@<SCITEGIC>MOL_PROPERTY
G
SciTegic.value.DoubleValue
62.899

@<SCITEGIC>MOL_PROPERTY
E
SciTegic.value.DoubleValue
30.245

@<SCITEGIC>MOL_PROPERTY
-TS
SciTegic.value.DoubleValue
32.654

@<SCITEGIC>MOL_PROPERTY
U+W
SciTegic.value.DoubleValue
9.678

@<SCITEGIC>MOL_PROPERTY
U
SciTegic.value.DoubleValue
11.876

@<SCITEGIC>MOL_PROPERTY
W
SciTegic.value.DoubleValue
-2.199

@<SCITEGIC>MOL_PROPERTY
W(PB)
SciTegic.value.DoubleValue
-4.335

@<SCITEGIC>MOL_PROPERTY
W(SA)
SciTegic.value.DoubleValue
2.137

@<SCITEGIC>MOL_PROPERTY
Valence
SciTegic.value.DoubleValue
17.153

@<SCITEGIC>MOL_PROPERTY
Coulomb
SciTegic.value.DoubleValue
-7.966

@<SCITEGIC>MOL_PROPERTY
VdW
SciTegic.value.DoubleValue
2.689

@<SCITEGIC>MOL_PROPERTY
VdW6
SciTegic.value.DoubleValue
-12.458

@<SCITEGIC>MOL_PROPERTY
VdW12
SciTegic.value.DoubleValue
15.147

@<SCITEGIC>MOL_PROPERTY
Bond
SciTegic.value.DoubleValue
0.421

@<SCITEGIC>MOL_PROPERTY
Angle
SciTegic.value.DoubleValue
5.258

@<SCITEGIC>MOL_PROPERTY
Pdih
SciTegic.value.DoubleValue
11.475

@<SCITEGIC>MOL_PROPERTY
Idih
SciTegic.value.DoubleValue
0.000

@<SCITEGIC>MOL_PROPERTY
Tether
SciTegic.value.DoubleValue
0.000

@<TRIPOS>MOLECULE
guest-s17_vm2.mol2 : vm2 ligand conformer 33
          25          25           1
SMALL
USER_CHARGES
 
@<TRIPOS>ATOM
       1    C1      21.051436   19.511214   20.999378 C.3        1 MOL1        -0.1684
       2    H1      21.356134   19.735799   19.967898 H          1 MOL1         0.0833
       3    H2      21.846361   19.927833   21.631887 H          1 MOL1         0.0833
       4    C2      21.001289   17.970845   21.138488 C.3        1 MOL1        -0.1684
       5    H3      20.072166   17.582911   20.699297 H          1 MOL1         0.0833
       6    H4      21.812860   17.548746   20.530019 H          1 MOL1         0.0833
       7    C3      21.172473   17.429391   22.577669 C.3        1 MOL1        -0.1684
       8    H5      22.167865   17.689701   22.962943 H          1 MOL1         0.0833
       9    H6      21.154030   16.332315   22.522435 H          1 MOL1         0.0833
      10    C4      20.082209   17.878666   23.579304 C.3        1 MOL1        -0.1760
      11    H7      19.099008   17.856407   23.092798 H          1 MOL1         0.0833
      12    H8      20.032992   17.118900   24.371085 H          1 MOL1         0.0833
      13    C5      20.357548   19.261877   24.226938 C.3        1 MOL1         0.1219
      14    H9      21.362413   19.608380   23.948467 H          1 MOL1         0.0790
      15    C6      19.333451   20.350227   23.832217 C.3        1 MOL1        -0.1760
      16    H10     18.326038   19.918023   23.776014 H          1 MOL1         0.0833
      17    H11     19.292666   21.100167   24.633881 H          1 MOL1         0.0833
      18    C7      19.654622   21.103098   22.518099 C.3        1 MOL1        -0.1684
      19    H12     20.598110   21.655957   22.623006 H          1 MOL1         0.0833
      20    H13     18.878356   21.867812   22.377934 H          1 MOL1         0.0833
      21    C8      19.694300   20.222794   21.246535 C.3        1 MOL1        -0.1684
      22    H14     18.860733   19.508023   21.250249 H          1 MOL1         0.0833
      23    H15     19.506922   20.881122   20.387025 H          1 MOL1         0.0833
      24    O1      20.316672   19.114889   25.641371 O.3        1 MOL1        -0.5508
      25    H16     19.407116   18.827428   25.863255 H          1 MOL1         0.3780
@<TRIPOS>BOND
    1     1     2    1
    2     1     3    1
    3     1     4    1
    4     4     5    1
    5     4     6    1
    6     4     7    1
    7     7     8    1
    8     7     9    1
    9     7    10    1
   10    10    11    1
   11    10    12    1
   12    10    13    1
   13    13    14    1
   14    13    15    1
   15    15    16    1
   16    15    17    1
   17    15    18    1
   18    18    19    1
   19    18    20    1
   20     1    21    1
   21    18    21    1
   22    21    22    1
   23    21    23    1
   24    13    24    1
   25    24    25    1
@<TRIPOS>SUBSTRUCTURE
       1 MOL1            1 RESIDUE      1      MOL     
@<SCITEGIC>MOL_PROPERTY
VM2 Rank
SciTegic.value.IntegerValue
33

@<SCITEGIC>MOL_PROPERTY
Conf_Id
SciTegic.value.IntegerValue
1025

@<SCITEGIC>MOL_PROPERTY
Probability
SciTegic.value.DoubleValue
1.21

@<SCITEGIC>MOL_PROPERTY
Sum Probability
SciTegic.value.DoubleValue
85.13

@<SCITEGIC>MOL_PROPERTY
Delta G
SciTegic.value.DoubleValue
0.825

@<SCITEGIC>MOL_PROPERTY
G
SciTegic.value.DoubleValue
62.900

@<SCITEGIC>MOL_PROPERTY
E
SciTegic.value.DoubleValue
30.812

@<SCITEGIC>MOL_PROPERTY
-TS
SciTegic.value.DoubleValue
32.088

@<SCITEGIC>MOL_PROPERTY
U+W
SciTegic.value.DoubleValue
10.244

@<SCITEGIC>MOL_PROPERTY
U
SciTegic.value.DoubleValue
12.337

@<SCITEGIC>MOL_PROPERTY
W
SciTegic.value.DoubleValue
-2.092

@<SCITEGIC>MOL_PROPERTY
W(PB)
SciTegic.value.DoubleValue
-4.240

@<SCITEGIC>MOL_PROPERTY
W(SA)
SciTegic.value.DoubleValue
2.147

@<SCITEGIC>MOL_PROPERTY
Valence
SciTegic.value.DoubleValue
18.677

@<SCITEGIC>MOL_PROPERTY
Coulomb
SciTegic.value.DoubleValue
-8.851

@<SCITEGIC>MOL_PROPERTY
VdW
SciTegic.value.DoubleValue
2.511

@<SCITEGIC>MOL_PROPERTY
VdW6
SciTegic.value.DoubleValue
-11.905

@<SCITEGIC>MOL_PROPERTY
VdW12
SciTegic.value.DoubleValue
14.417

@<SCITEGIC>MOL_PROPERTY
Bond
SciTegic.value.DoubleValue
0.323

@<SCITEGIC>MOL_PROPERTY
Angle
SciTegic.value.DoubleValue
3.227

@<SCITEGIC>MOL_PROPERTY
Pdih
SciTegic.value.DoubleValue
15.127

@<SCITEGIC>MOL_PROPERTY
Idih
SciTegic.value.DoubleValue
0.000

@<SCITEGIC>MOL_PROPERTY
Tether
SciTegic.value.DoubleValue
0.000

@<TRIPOS>MOLECULE
guest-s17_vm2.mol2 : vm2 ligand conformer 34
          25          25           1
SMALL
USER_CHARGES
 
@<TRIPOS>ATOM
       1    C1      20.769609   19.249871   20.796729 C.3        1 MOL1        -0.1684
       2    H1      20.727607   19.084000   19.711570 H          1 MOL1         0.0833
       3    H2      21.828395   19.436717   21.016995 H          1 MOL1         0.0833
       4    C2      20.274475   17.952441   21.486244 C.3        1 MOL1        -0.1684
       5    H3      19.206901   18.025704   21.722632 H          1 MOL1         0.0833
       6    H4      20.339666   17.131053   20.759708 H          1 MOL1         0.0833
       7    C3      21.078843   17.520502   22.738567 C.3        1 MOL1        -0.1684
       8    H5      22.011844   17.053787   22.395029 H          1 MOL1         0.0833
       9    H6      20.525382   16.728012   23.260446 H          1 MOL1         0.0833
      10    C4      21.460251   18.631842   23.753277 C.3        1 MOL1        -0.1760
      11    H7      22.094035   18.170886   24.521880 H          1 MOL1         0.0833
      12    H8      22.107215   19.373183   23.272554 H          1 MOL1         0.0833
      13    C5      20.302864   19.348552   24.492170 C.3        1 MOL1         0.1219
      14    H9      20.772760   20.053410   25.193243 H          1 MOL1         0.0790
      15    C6      19.322786   20.169851   23.619681 C.3        1 MOL1        -0.1760
      16    H10     18.566899   19.518780   23.167021 H          1 MOL1         0.0833
      17    H11     18.759727   20.821614   24.300281 H          1 MOL1         0.0833
      18    C7      19.982966   21.069616   22.540524 C.3        1 MOL1        -0.1684
      19    H12     21.017082   21.319339   22.810649 H          1 MOL1         0.0833
      20    H13     19.448000   22.029192   22.537264 H          1 MOL1         0.0833
      21    C8      19.914494   20.508568   21.096396 C.3        1 MOL1        -0.1684
      22    H14     18.867016   20.308084   20.832931 H          1 MOL1         0.0833
      23    H15     20.242071   21.304386   20.413632 H          1 MOL1         0.0833
      24    O1      19.557713   18.391756   25.236411 O.3        1 MOL1        -0.5508
      25    H16     18.867006   18.887873   25.722009 H          1 MOL1         0.3780
@<TRIPOS>BOND
    1     1     2    1
    2     1     3    1
    3     1     4    1
    4     4     5    1
    5     4     6    1
    6     4     7    1
    7     7     8    1
    8     7     9    1
    9     7    10    1
   10    10    11    1
   11    10    12    1
   12    10    13    1
   13    13    14    1
   14    13    15    1
   15    15    16    1
   16    15    17    1
   17    15    18    1
   18    18    19    1
   19    18    20    1
   20     1    21    1
   21    18    21    1
   22    21    22    1
   23    21    23    1
   24    13    24    1
   25    24    25    1
@<TRIPOS>SUBSTRUCTURE
       1 MOL1            1 RESIDUE      1      MOL     
@<SCITEGIC>MOL_PROPERTY
VM2 Rank
SciTegic.value.IntegerValue
34

@<SCITEGIC>MOL_PROPERTY
Conf_Id
SciTegic.value.IntegerValue
1208

@<SCITEGIC>MOL_PROPERTY
Probability
SciTegic.value.DoubleValue
0.91

@<SCITEGIC>MOL_PROPERTY
Sum Probability
SciTegic.value.DoubleValue
86.03

@<SCITEGIC>MOL_PROPERTY
Delta G
SciTegic.value.DoubleValue
0.998

@<SCITEGIC>MOL_PROPERTY
G
SciTegic.value.DoubleValue
63.074

@<SCITEGIC>MOL_PROPERTY
E
SciTegic.value.DoubleValue
30.342

@<SCITEGIC>MOL_PROPERTY
-TS
SciTegic.value.DoubleValue
32.731

@<SCITEGIC>MOL_PROPERTY
U+W
SciTegic.value.DoubleValue
9.775

@<SCITEGIC>MOL_PROPERTY
U
SciTegic.value.DoubleValue
11.974

@<SCITEGIC>MOL_PROPERTY
W
SciTegic.value.DoubleValue
-2.199

@<SCITEGIC>MOL_PROPERTY
W(PB)
SciTegic.value.DoubleValue
-4.332

@<SCITEGIC>MOL_PROPERTY
W(SA)
SciTegic.value.DoubleValue
2.133

@<SCITEGIC>MOL_PROPERTY
Valence
SciTegic.value.DoubleValue
16.772

@<SCITEGIC>MOL_PROPERTY
Coulomb
SciTegic.value.DoubleValue
-7.357

@<SCITEGIC>MOL_PROPERTY
VdW
SciTegic.value.DoubleValue
2.559

@<SCITEGIC>MOL_PROPERTY
VdW6
SciTegic.value.DoubleValue
-12.877

@<SCITEGIC>MOL_PROPERTY
VdW12
SciTegic.value.DoubleValue
15.436

@<SCITEGIC>MOL_PROPERTY
Bond
SciTegic.value.DoubleValue
0.436

@<SCITEGIC>MOL_PROPERTY
Angle
SciTegic.value.DoubleValue
5.452

@<SCITEGIC>MOL_PROPERTY
Pdih
SciTegic.value.DoubleValue
10.883

@<SCITEGIC>MOL_PROPERTY
Idih
SciTegic.value.DoubleValue
0.000

@<SCITEGIC>MOL_PROPERTY
Tether
SciTegic.value.DoubleValue
0.000

@<TRIPOS>MOLECULE
guest-s17_vm2.mol2 : vm2 ligand conformer 35
          25          25           1
SMALL
USER_CHARGES
 
@<TRIPOS>ATOM
       1    C1      20.666167   19.502289   20.796520 C.3        1 MOL1        -0.1684
       2    H1      20.521589   19.584154   19.710591 H          1 MOL1         0.0833
       3    H2      21.541155   20.127078   21.016728 H          1 MOL1         0.0833
       4    C2      20.963124   18.011282   21.103212 C.3        1 MOL1        -0.1684
       5    H3      20.086473   17.403932   20.839720 H          1 MOL1         0.0833
       6    H4      21.762190   17.684011   20.424105 H          1 MOL1         0.0833
       7    C3      21.406977   17.672681   22.550038 C.3        1 MOL1        -0.1684
       8    H5      22.309356   18.235998   22.820431 H          1 MOL1         0.0833
       9    H6      21.716015   16.618415   22.552046 H          1 MOL1         0.0833
      10    C4      20.299451   17.837376   23.625328 C.3        1 MOL1        -0.1760
      11    H7      19.306540   17.753191   23.170139 H          1 MOL1         0.0833
      12    H8      20.367293   16.981714   24.309642 H          1 MOL1         0.0833
      13    C5      20.398693   19.115601   24.492852 C.3        1 MOL1         0.1219
      14    H9      21.228778   18.959278   25.196877 H          1 MOL1         0.0790
      15    C6      20.701289   20.440287   23.749331 C.3        1 MOL1        -0.1760
      16    H10     20.814812   21.218554   24.515051 H          1 MOL1         0.0833
      17    H11     21.684863   20.379804   23.271662 H          1 MOL1         0.0833
      18    C7      19.644365   20.943352   22.729513 C.3        1 MOL1        -0.1684
      19    H12     19.966729   21.934431   22.382846 H          1 MOL1         0.0833
      20    H13     18.689755   21.106485   23.247993 H          1 MOL1         0.0833
      21    C8      19.391964   20.061863   21.480041 C.3        1 MOL1        -0.1684
      22    H14     18.854195   20.681326   20.749388 H          1 MOL1         0.0833
      23    H15     18.694908   19.250328   21.717706 H          1 MOL1         0.0833
      24    O1      19.191969   19.258269   25.233164 O.3        1 MOL1        -0.5508
      25    H16     19.060025   18.419937   25.721843 H          1 MOL1         0.3780
@<TRIPOS>BOND
    1     1     2    1
    2     1     3    1
    3     1     4    1
    4     4     5    1
    5     4     6    1
    6     4     7    1
    7     7     8    1
    8     7     9    1
    9     7    10    1
   10    10    11    1
   11    10    12    1
   12    10    13    1
   13    13    14    1
   14    13    15    1
   15    15    16    1
   16    15    17    1
   17    15    18    1
   18    18    19    1
   19    18    20    1
   20     1    21    1
   21    18    21    1
   22    21    22    1
   23    21    23    1
   24    13    24    1
   25    24    25    1
@<TRIPOS>SUBSTRUCTURE
       1 MOL1            1 RESIDUE      1      MOL     
@<SCITEGIC>MOL_PROPERTY
VM2 Rank
SciTegic.value.IntegerValue
35

@<SCITEGIC>MOL_PROPERTY
Conf_Id
SciTegic.value.IntegerValue
285

@<SCITEGIC>MOL_PROPERTY
Probability
SciTegic.value.DoubleValue
0.87

@<SCITEGIC>MOL_PROPERTY
Sum Probability
SciTegic.value.DoubleValue
86.90

@<SCITEGIC>MOL_PROPERTY
Delta G
SciTegic.value.DoubleValue
1.022

@<SCITEGIC>MOL_PROPERTY
G
SciTegic.value.DoubleValue
63.097

@<SCITEGIC>MOL_PROPERTY
E
SciTegic.value.DoubleValue
30.367

@<SCITEGIC>MOL_PROPERTY
-TS
SciTegic.value.DoubleValue
32.730

@<SCITEGIC>MOL_PROPERTY
U+W
SciTegic.value.DoubleValue
9.799

@<SCITEGIC>MOL_PROPERTY
U
SciTegic.value.DoubleValue
11.974

@<SCITEGIC>MOL_PROPERTY
W
SciTegic.value.DoubleValue
-2.174

@<SCITEGIC>MOL_PROPERTY
W(PB)
SciTegic.value.DoubleValue
-4.302

@<SCITEGIC>MOL_PROPERTY
W(SA)
SciTegic.value.DoubleValue
2.128

@<SCITEGIC>MOL_PROPERTY
Valence
SciTegic.value.DoubleValue
16.772

@<SCITEGIC>MOL_PROPERTY
Coulomb
SciTegic.value.DoubleValue
-7.357

@<SCITEGIC>MOL_PROPERTY
VdW
SciTegic.value.DoubleValue
2.559

@<SCITEGIC>MOL_PROPERTY
VdW6
SciTegic.value.DoubleValue
-12.877

@<SCITEGIC>MOL_PROPERTY
VdW12
SciTegic.value.DoubleValue
15.436

@<SCITEGIC>MOL_PROPERTY
Bond
SciTegic.value.DoubleValue
0.436

@<SCITEGIC>MOL_PROPERTY
Angle
SciTegic.value.DoubleValue
5.453

@<SCITEGIC>MOL_PROPERTY
Pdih
SciTegic.value.DoubleValue
10.883

@<SCITEGIC>MOL_PROPERTY
Idih
SciTegic.value.DoubleValue
0.000

@<SCITEGIC>MOL_PROPERTY
Tether
SciTegic.value.DoubleValue
0.000

@<TRIPOS>MOLECULE
guest-s17_vm2.mol2 : vm2 ligand conformer 36
          25          25           1
SMALL
USER_CHARGES
 
@<TRIPOS>ATOM
       1    C1      20.689394   19.360483   20.551758 C.3        1 MOL1        -0.1684
       2    H1      20.407458   19.228548   19.498150 H          1 MOL1         0.0833
       3    H2      21.757277   19.617340   20.540513 H          1 MOL1         0.0833
       4    C2      20.471499   18.010291   21.274277 C.3        1 MOL1        -0.1684
       5    H3      19.407883   17.867422   21.506957 H          1 MOL1         0.0833
       6    H4      20.721736   17.213894   20.559897 H          1 MOL1         0.0833
       7    C3      21.360454   17.803793   22.528515 C.3        1 MOL1        -0.1684
       8    H5      22.186559   18.526794   22.557672 H          1 MOL1         0.0833
       9    H6      21.839120   16.819425   22.432964 H          1 MOL1         0.0833
      10    C4      20.588670   17.812087   23.870509 C.3        1 MOL1        -0.1760
      11    H7      19.635881   17.277367   23.761625 H          1 MOL1         0.0833
      12    H8      21.176163   17.231225   24.593602 H          1 MOL1         0.0833
      13    C5      20.342305   19.207924   24.484816 C.3        1 MOL1         0.1219
      14    H9      21.310395   19.704042   24.644003 H          1 MOL1         0.0790
      15    C6      19.438868   20.133761   23.639486 C.3        1 MOL1        -0.1760
      16    H10     18.616734   19.555614   23.199428 H          1 MOL1         0.0833
      17    H11     18.960227   20.850785   24.320175 H          1 MOL1         0.0833
      18    C7      20.193087   20.954432   22.558935 C.3        1 MOL1        -0.1684
      19    H12     21.278551   20.934445   22.724304 H          1 MOL1         0.0833
      20    H13     19.899433   22.006334   22.679074 H          1 MOL1         0.0833
      21    C8      19.863953   20.545678   21.104466 C.3        1 MOL1        -0.1684
      22    H14     18.790231   20.337520   21.002545 H          1 MOL1         0.0833
      23    H15     20.059166   21.411822   20.457407 H          1 MOL1         0.0833
      24    O1      19.715770   19.014552   25.747238 O.3        1 MOL1        -0.5508
      25    H16     20.327222   18.470922   26.286615 H          1 MOL1         0.3780
@<TRIPOS>BOND
    1     1     2    1
    2     1     3    1
    3     1     4    1
    4     4     5    1
    5     4     6    1
    6     4     7    1
    7     7     8    1
    8     7     9    1
    9     7    10    1
   10    10    11    1
   11    10    12    1
   12    10    13    1
   13    13    14    1
   14    13    15    1
   15    15    16    1
   16    15    17    1
   17    15    18    1
   18    18    19    1
   19    18    20    1
   20     1    21    1
   21    18    21    1
   22    21    22    1
   23    21    23    1
   24    13    24    1
   25    24    25    1
@<TRIPOS>SUBSTRUCTURE
       1 MOL1            1 RESIDUE      1      MOL     
@<SCITEGIC>MOL_PROPERTY
VM2 Rank
SciTegic.value.IntegerValue
36

@<SCITEGIC>MOL_PROPERTY
Conf_Id
SciTegic.value.IntegerValue
777

@<SCITEGIC>MOL_PROPERTY
Probability
SciTegic.value.DoubleValue
0.79

@<SCITEGIC>MOL_PROPERTY
Sum Probability
SciTegic.value.DoubleValue
87.69

@<SCITEGIC>MOL_PROPERTY
Delta G
SciTegic.value.DoubleValue
1.084

@<SCITEGIC>MOL_PROPERTY
G
SciTegic.value.DoubleValue
63.159

@<SCITEGIC>MOL_PROPERTY
E
SciTegic.value.DoubleValue
31.416

@<SCITEGIC>MOL_PROPERTY
-TS
SciTegic.value.DoubleValue
31.743

@<SCITEGIC>MOL_PROPERTY
U+W
SciTegic.value.DoubleValue
10.849

@<SCITEGIC>MOL_PROPERTY
U
SciTegic.value.DoubleValue
13.140

@<SCITEGIC>MOL_PROPERTY
W
SciTegic.value.DoubleValue
-2.291

@<SCITEGIC>MOL_PROPERTY
W(PB)
SciTegic.value.DoubleValue
-4.428

@<SCITEGIC>MOL_PROPERTY
W(SA)
SciTegic.value.DoubleValue
2.137

@<SCITEGIC>MOL_PROPERTY
Valence
SciTegic.value.DoubleValue
19.156

@<SCITEGIC>MOL_PROPERTY
Coulomb
SciTegic.value.DoubleValue
-8.157

@<SCITEGIC>MOL_PROPERTY
VdW
SciTegic.value.DoubleValue
2.141

@<SCITEGIC>MOL_PROPERTY
VdW6
SciTegic.value.DoubleValue
-11.576

@<SCITEGIC>MOL_PROPERTY
VdW12
SciTegic.value.DoubleValue
13.717

@<SCITEGIC>MOL_PROPERTY
Bond
SciTegic.value.DoubleValue
0.294

@<SCITEGIC>MOL_PROPERTY
Angle
SciTegic.value.DoubleValue
3.548

@<SCITEGIC>MOL_PROPERTY
Pdih
SciTegic.value.DoubleValue
15.314

@<SCITEGIC>MOL_PROPERTY
Idih
SciTegic.value.DoubleValue
0.000

@<SCITEGIC>MOL_PROPERTY
Tether
SciTegic.value.DoubleValue
0.000

@<TRIPOS>MOLECULE
guest-s17_vm2.mol2 : vm2 ligand conformer 37
          25          25           1
SMALL
USER_CHARGES
 
@<TRIPOS>ATOM
       1    C1      20.694866   19.362603   20.554929 C.3        1 MOL1        -0.1684
       2    H1      20.419643   19.232649   19.499297 H          1 MOL1         0.0833
       3    H2      21.762418   19.621022   20.550667 H          1 MOL1         0.0833
       4    C2      20.474415   18.010045   21.272487 C.3        1 MOL1        -0.1684
       5    H3      19.410049   17.865681   21.500756 H          1 MOL1         0.0833
       6    H4      20.727686   17.216252   20.556282 H          1 MOL1         0.0833
       7    C3      21.358649   17.798659   22.529239 C.3        1 MOL1        -0.1684
       8    H5      22.189161   18.516488   22.560263 H          1 MOL1         0.0833
       9    H6      21.831178   16.811154   22.435913 H          1 MOL1         0.0833
      10    C4      20.583695   17.812313   23.869486 C.3        1 MOL1        -0.1760
      11    H7      19.629616   17.280067   23.761925 H          1 MOL1         0.0833
      12    H8      21.166290   17.234013   24.598806 H          1 MOL1         0.0833
      13    C5      20.341690   19.208924   24.482242 C.3        1 MOL1         0.1219
      14    H9      21.312747   19.701128   24.635362 H          1 MOL1         0.0790
      15    C6      19.434255   20.132640   23.638222 C.3        1 MOL1        -0.1760
      16    H10     18.617697   19.549690   23.193644 H          1 MOL1         0.0833
      17    H11     18.946879   20.848778   24.313112 H          1 MOL1         0.0833
      18    C7      20.188023   20.956080   22.559738 C.3        1 MOL1        -0.1684
      19    H12     21.273294   20.939895   22.727144 H          1 MOL1         0.0833
      20    H13     19.890480   22.007084   22.678467 H          1 MOL1         0.0833
      21    C8      19.864216   20.545591   21.104623 C.3        1 MOL1        -0.1684
      22    H14     18.791391   20.334546   20.999225 H          1 MOL1         0.0833
      23    H15     20.059172   21.412006   20.457836 H          1 MOL1         0.0833
      24    O1      19.724192   19.016145   25.749034 O.3        1 MOL1        -0.5508
      25    H16     19.641574   19.901649   26.160717 H          1 MOL1         0.3780
@<TRIPOS>BOND
    1     1     2    1
    2     1     3    1
    3     1     4    1
    4     4     5    1
    5     4     6    1
    6     4     7    1
    7     7     8    1
    8     7     9    1
    9     7    10    1
   10    10    11    1
   11    10    12    1
   12    10    13    1
   13    13    14    1
   14    13    15    1
   15    15    16    1
   16    15    17    1
   17    15    18    1
   18    18    19    1
   19    18    20    1
   20     1    21    1
   21    18    21    1
   22    21    22    1
   23    21    23    1
   24    13    24    1
   25    24    25    1
@<TRIPOS>SUBSTRUCTURE
       1 MOL1            1 RESIDUE      1      MOL     
@<SCITEGIC>MOL_PROPERTY
VM2 Rank
SciTegic.value.IntegerValue
37

@<SCITEGIC>MOL_PROPERTY
Conf_Id
SciTegic.value.IntegerValue
1342

@<SCITEGIC>MOL_PROPERTY
Probability
SciTegic.value.DoubleValue
0.78

@<SCITEGIC>MOL_PROPERTY
Sum Probability
SciTegic.value.DoubleValue
88.47

@<SCITEGIC>MOL_PROPERTY
Delta G
SciTegic.value.DoubleValue
1.087

@<SCITEGIC>MOL_PROPERTY
G
SciTegic.value.DoubleValue
63.162

@<SCITEGIC>MOL_PROPERTY
E
SciTegic.value.DoubleValue
31.434

@<SCITEGIC>MOL_PROPERTY
-TS
SciTegic.value.DoubleValue
31.729

@<SCITEGIC>MOL_PROPERTY
U+W
SciTegic.value.DoubleValue
10.866

@<SCITEGIC>MOL_PROPERTY
U
SciTegic.value.DoubleValue
13.061

@<SCITEGIC>MOL_PROPERTY
W
SciTegic.value.DoubleValue
-2.195

@<SCITEGIC>MOL_PROPERTY
W(PB)
SciTegic.value.DoubleValue
-4.334

@<SCITEGIC>MOL_PROPERTY
W(SA)
SciTegic.value.DoubleValue
2.139

@<SCITEGIC>MOL_PROPERTY
Valence
SciTegic.value.DoubleValue
19.172

@<SCITEGIC>MOL_PROPERTY
Coulomb
SciTegic.value.DoubleValue
-8.232

@<SCITEGIC>MOL_PROPERTY
VdW
SciTegic.value.DoubleValue
2.121

@<SCITEGIC>MOL_PROPERTY
VdW6
SciTegic.value.DoubleValue
-11.563

@<SCITEGIC>MOL_PROPERTY
VdW12
SciTegic.value.DoubleValue
13.683

@<SCITEGIC>MOL_PROPERTY
Bond
SciTegic.value.DoubleValue
0.293

@<SCITEGIC>MOL_PROPERTY
Angle
SciTegic.value.DoubleValue
3.543

@<SCITEGIC>MOL_PROPERTY
Pdih
SciTegic.value.DoubleValue
15.336

@<SCITEGIC>MOL_PROPERTY
Idih
SciTegic.value.DoubleValue
0.000

@<SCITEGIC>MOL_PROPERTY
Tether
SciTegic.value.DoubleValue
0.000

@<TRIPOS>MOLECULE
guest-s17_vm2.mol2 : vm2 ligand conformer 38
          25          25           1
SMALL
USER_CHARGES
 
@<TRIPOS>ATOM
       1    C1      20.694511   19.362171   20.554681 C.3        1 MOL1        -0.1684
       2    H1      20.418649   19.232070   19.499230 H          1 MOL1         0.0833
       3    H2      21.761866   19.621419   20.549741 H          1 MOL1         0.0833
       4    C2      20.475438   18.009635   21.272352 C.3        1 MOL1        -0.1684
       5    H3      19.411053   17.864189   21.499728 H          1 MOL1         0.0833
       6    H4      20.730177   17.215969   20.556509 H          1 MOL1         0.0833
       7    C3      21.359468   17.800151   22.529491 C.3        1 MOL1        -0.1684
       8    H5      22.187787   18.520521   22.561641 H          1 MOL1         0.0833
       9    H6      21.835223   16.814197   22.435824 H          1 MOL1         0.0833
      10    C4      20.583082   17.810834   23.868541 C.3        1 MOL1        -0.1760
      11    H7      19.631790   17.274789   23.755970 H          1 MOL1         0.0833
      12    H8      21.167596   17.232896   24.596920 H          1 MOL1         0.0833
      13    C5      20.340492   19.207520   24.481507 C.3        1 MOL1         0.1219
      14    H9      21.310618   19.700214   24.637659 H          1 MOL1         0.0790
      15    C6      19.435063   20.135601   23.640544 C.3        1 MOL1        -0.1760
      16    H10     18.611234   19.561292   23.198321 H          1 MOL1         0.0833
      17    H11     18.960722   20.854848   24.322136 H          1 MOL1         0.0833
      18    C7      20.188598   20.956093   22.559660 C.3        1 MOL1        -0.1684
      19    H12     21.273874   20.939884   22.727014 H          1 MOL1         0.0833
      20    H13     19.891660   22.007407   22.677105 H          1 MOL1         0.0833
      21    C8      19.863299   20.544261   21.105185 C.3        1 MOL1        -0.1684
      22    H14     18.790571   20.332180   21.001032 H          1 MOL1         0.0833
      23    H15     20.056556   21.410591   20.457770 H          1 MOL1         0.0833
      24    O1      19.724050   19.016735   25.748039 O.3        1 MOL1        -0.5508
      25    H16     18.862326   18.585309   25.574001 H          1 MOL1         0.3780
@<TRIPOS>BOND
    1     1     2    1
    2     1     3    1
    3     1     4    1
    4     4     5    1
    5     4     6    1
    6     4     7    1
    7     7     8    1
    8     7     9    1
    9     7    10    1
   10    10    11    1
   11    10    12    1
   12    10    13    1
   13    13    14    1
   14    13    15    1
   15    15    16    1
   16    15    17    1
   17    15    18    1
   18    18    19    1
   19    18    20    1
   20     1    21    1
   21    18    21    1
   22    21    22    1
   23    21    23    1
   24    13    24    1
   25    24    25    1
@<TRIPOS>SUBSTRUCTURE
       1 MOL1            1 RESIDUE      1      MOL     
@<SCITEGIC>MOL_PROPERTY
VM2 Rank
SciTegic.value.IntegerValue
38

@<SCITEGIC>MOL_PROPERTY
Conf_Id
SciTegic.value.IntegerValue
949

@<SCITEGIC>MOL_PROPERTY
Probability
SciTegic.value.DoubleValue
0.71

@<SCITEGIC>MOL_PROPERTY
Sum Probability
SciTegic.value.DoubleValue
89.18

@<SCITEGIC>MOL_PROPERTY
Delta G
SciTegic.value.DoubleValue
1.146

@<SCITEGIC>MOL_PROPERTY
G
SciTegic.value.DoubleValue
63.222

@<SCITEGIC>MOL_PROPERTY
E
SciTegic.value.DoubleValue
31.524

@<SCITEGIC>MOL_PROPERTY
-TS
SciTegic.value.DoubleValue
31.698

@<SCITEGIC>MOL_PROPERTY
U+W
SciTegic.value.DoubleValue
10.956

@<SCITEGIC>MOL_PROPERTY
U
SciTegic.value.DoubleValue
12.791

@<SCITEGIC>MOL_PROPERTY
W
SciTegic.value.DoubleValue
-1.835

@<SCITEGIC>MOL_PROPERTY
W(PB)
SciTegic.value.DoubleValue
-3.980

@<SCITEGIC>MOL_PROPERTY
W(SA)
SciTegic.value.DoubleValue
2.145

@<SCITEGIC>MOL_PROPERTY
Valence
SciTegic.value.DoubleValue
19.529

@<SCITEGIC>MOL_PROPERTY
Coulomb
SciTegic.value.DoubleValue
-8.823

@<SCITEGIC>MOL_PROPERTY
VdW
SciTegic.value.DoubleValue
2.086

@<SCITEGIC>MOL_PROPERTY
VdW6
SciTegic.value.DoubleValue
-11.579

@<SCITEGIC>MOL_PROPERTY
VdW12
SciTegic.value.DoubleValue
13.666

@<SCITEGIC>MOL_PROPERTY
Bond
SciTegic.value.DoubleValue
0.287

@<SCITEGIC>MOL_PROPERTY
Angle
SciTegic.value.DoubleValue
3.589

@<SCITEGIC>MOL_PROPERTY
Pdih
SciTegic.value.DoubleValue
15.653

@<SCITEGIC>MOL_PROPERTY
Idih
SciTegic.value.DoubleValue
0.000

@<SCITEGIC>MOL_PROPERTY
Tether
SciTegic.value.DoubleValue
0.000

@<TRIPOS>MOLECULE
guest-s17_vm2.mol2 : vm2 ligand conformer 39
          25          25           1
SMALL
USER_CHARGES
 
@<TRIPOS>ATOM
       1    C1      19.892752   19.017952   21.011279 C.3        1 MOL1        -0.1684
       2    H1      18.996655   18.566137   21.454617 H          1 MOL1         0.0833
       3    H2      19.772508   18.883392   19.927318 H          1 MOL1         0.0833
       4    C2      21.181914   18.262873   21.420373 C.3        1 MOL1        -0.1684
       5    H3      21.435098   17.582799   20.595233 H          1 MOL1         0.0833
       6    H4      22.036941   18.947121   21.503475 H          1 MOL1         0.0833
       7    C3      21.053712   17.398991   22.694897 C.3        1 MOL1        -0.1684
       8    H5      21.795095   16.591797   22.618489 H          1 MOL1         0.0833
       9    H6      20.080617   16.890889   22.724107 H          1 MOL1         0.0833
      10    C4      21.332801   18.139808   24.027661 C.3        1 MOL1        -0.1760
      11    H7      21.387241   17.379828   24.818147 H          1 MOL1         0.0833
      12    H8      22.332205   18.592447   23.994451 H          1 MOL1         0.0833
      13    C5      20.301513   19.196639   24.488312 C.3        1 MOL1         0.1219
      14    H9      20.483191   19.339077   25.563474 H          1 MOL1         0.0790
      15    C6      20.472447   20.597084   23.837916 C.3        1 MOL1        -0.1760
      16    H10     20.319415   21.328001   24.642674 H          1 MOL1         0.0833
      17    H11     21.512443   20.743419   23.519375 H          1 MOL1         0.0833
      18    C7      19.510201   20.994679   22.684892 C.3        1 MOL1        -0.1684
      19    H12     19.471153   22.092420   22.663445 H          1 MOL1         0.0833
      20    H13     18.478484   20.684645   22.895038 H          1 MOL1         0.0833
      21    C8      19.934366   20.541085   21.270075 C.3        1 MOL1        -0.1684
      22    H14     19.247336   21.018124   20.557559 H          1 MOL1         0.0833
      23    H15     20.928544   20.940993   21.028727 H          1 MOL1         0.0833
      24    O1      18.984294   18.693890   24.324594 O.3        1 MOL1        -0.5508
      25    H16     18.873736   18.626987   23.355405 H          1 MOL1         0.3780
@<TRIPOS>BOND
    1     1     2    1
    2     1     3    1
    3     1     4    1
    4     4     5    1
    5     4     6    1
    6     4     7    1
    7     7     8    1
    8     7     9    1
    9     7    10    1
   10    10    11    1
   11    10    12    1
   12    10    13    1
   13    13    14    1
   14    13    15    1
   15    15    16    1
   16    15    17    1
   17    15    18    1
   18    18    19    1
   19    18    20    1
   20     1    21    1
   21    18    21    1
   22    21    22    1
   23    21    23    1
   24    13    24    1
   25    24    25    1
@<TRIPOS>SUBSTRUCTURE
       1 MOL1            1 RESIDUE      1      MOL     
@<SCITEGIC>MOL_PROPERTY
VM2 Rank
SciTegic.value.IntegerValue
39

@<SCITEGIC>MOL_PROPERTY
Conf_Id
SciTegic.value.IntegerValue
986

@<SCITEGIC>MOL_PROPERTY
Probability
SciTegic.value.DoubleValue
0.65

@<SCITEGIC>MOL_PROPERTY
Sum Probability
SciTegic.value.DoubleValue
89.83

@<SCITEGIC>MOL_PROPERTY
Delta G
SciTegic.value.DoubleValue
1.197

@<SCITEGIC>MOL_PROPERTY
G
SciTegic.value.DoubleValue
63.273

@<SCITEGIC>MOL_PROPERTY
E
SciTegic.value.DoubleValue
31.218

@<SCITEGIC>MOL_PROPERTY
-TS
SciTegic.value.DoubleValue
32.054

@<SCITEGIC>MOL_PROPERTY
U+W
SciTegic.value.DoubleValue
10.651

@<SCITEGIC>MOL_PROPERTY
U
SciTegic.value.DoubleValue
11.809

@<SCITEGIC>MOL_PROPERTY
W
SciTegic.value.DoubleValue
-1.158

@<SCITEGIC>MOL_PROPERTY
W(PB)
SciTegic.value.DoubleValue
-3.264

@<SCITEGIC>MOL_PROPERTY
W(SA)
SciTegic.value.DoubleValue
2.105

@<SCITEGIC>MOL_PROPERTY
Valence
SciTegic.value.DoubleValue
19.951

@<SCITEGIC>MOL_PROPERTY
Coulomb
SciTegic.value.DoubleValue
-10.074

@<SCITEGIC>MOL_PROPERTY
VdW
SciTegic.value.DoubleValue
1.932

@<SCITEGIC>MOL_PROPERTY
VdW6
SciTegic.value.DoubleValue
-12.999

@<SCITEGIC>MOL_PROPERTY
VdW12
SciTegic.value.DoubleValue
14.931

@<SCITEGIC>MOL_PROPERTY
Bond
SciTegic.value.DoubleValue
0.347

@<SCITEGIC>MOL_PROPERTY
Angle
SciTegic.value.DoubleValue
6.175

@<SCITEGIC>MOL_PROPERTY
Pdih
SciTegic.value.DoubleValue
13.429

@<SCITEGIC>MOL_PROPERTY
Idih
SciTegic.value.DoubleValue
0.000

@<SCITEGIC>MOL_PROPERTY
Tether
SciTegic.value.DoubleValue
0.000

@<TRIPOS>MOLECULE
guest-s17_vm2.mol2 : vm2 ligand conformer 40
          25          25           1
SMALL
USER_CHARGES
 
@<TRIPOS>ATOM
       1    C1      21.053856   19.528450   20.987458 C.3        1 MOL1        -0.1684
       2    H1      21.409959   19.680499   19.959521 H          1 MOL1         0.0833
       3    H2      21.876186   19.880998   21.620256 H          1 MOL1         0.0833
       4    C2      20.839545   18.006610   21.180759 C.3        1 MOL1        -0.1684
       5    H3      20.084093   17.652869   20.466245 H          1 MOL1         0.0833
       6    H4      21.774462   17.503648   20.898427 H          1 MOL1         0.0833
       7    C3      20.451842   17.523888   22.602035 C.3        1 MOL1        -0.1684
       8    H5      20.625872   16.439923   22.634747 H          1 MOL1         0.0833
       9    H6      19.373728   17.630253   22.764862 H          1 MOL1         0.0833
      10    C4      21.250103   18.175461   23.765675 C.3        1 MOL1        -0.1760
      11    H7      21.475643   17.386780   24.495254 H          1 MOL1         0.0833
      12    H8      22.229183   18.523383   23.415196 H          1 MOL1         0.0833
      13    C5      20.532029   19.308008   24.547063 C.3        1 MOL1         0.1219
      14    H9      21.213623   19.601307   25.358525 H          1 MOL1         0.0790
      15    C6      20.208920   20.606406   23.760671 C.3        1 MOL1        -0.1760
      16    H10     19.802885   21.326234   24.483147 H          1 MOL1         0.0833
      17    H11     21.137972   21.066735   23.403380 H          1 MOL1         0.0833
      18    C7      19.184627   20.473480   22.599520 C.3        1 MOL1        -0.1684
      19    H12     18.516714   21.344919   22.630984 H          1 MOL1         0.0833
      20    H13     18.521775   19.616276   22.760860 H          1 MOL1         0.0833
      21    C8      19.802811   20.421950   21.178855 C.3        1 MOL1        -0.1684
      22    H14     20.082557   21.446011   20.896342 H          1 MOL1         0.0833
      23    H15     19.026745   20.117628   20.463657 H          1 MOL1         0.0833
      24    O1      19.340267   18.798748   25.137963 O.3        1 MOL1        -0.5508
      25    H16     18.903312   19.553966   25.581380 H          1 MOL1         0.3780
@<TRIPOS>BOND
    1     1     2    1
    2     1     3    1
    3     1     4    1
    4     4     5    1
    5     4     6    1
    6     4     7    1
    7     7     8    1
    8     7     9    1
    9     7    10    1
   10    10    11    1
   11    10    12    1
   12    10    13    1
   13    13    14    1
   14    13    15    1
   15    15    16    1
   16    15    17    1
   17    15    18    1
   18    18    19    1
   19    18    20    1
   20     1    21    1
   21    18    21    1
   22    21    22    1
   23    21    23    1
   24    13    24    1
   25    24    25    1
@<TRIPOS>SUBSTRUCTURE
       1 MOL1            1 RESIDUE      1      MOL     
@<SCITEGIC>MOL_PROPERTY
VM2 Rank
SciTegic.value.IntegerValue
40

@<SCITEGIC>MOL_PROPERTY
Conf_Id
SciTegic.value.IntegerValue
1277

@<SCITEGIC>MOL_PROPERTY
Probability
SciTegic.value.DoubleValue
0.61

@<SCITEGIC>MOL_PROPERTY
Sum Probability
SciTegic.value.DoubleValue
90.43

@<SCITEGIC>MOL_PROPERTY
Delta G
SciTegic.value.DoubleValue
1.238

@<SCITEGIC>MOL_PROPERTY
G
SciTegic.value.DoubleValue
63.314

@<SCITEGIC>MOL_PROPERTY
E
SciTegic.value.DoubleValue
30.500

@<SCITEGIC>MOL_PROPERTY
-TS
SciTegic.value.DoubleValue
32.814

@<SCITEGIC>MOL_PROPERTY
U+W
SciTegic.value.DoubleValue
9.932

@<SCITEGIC>MOL_PROPERTY
U
SciTegic.value.DoubleValue
12.093

@<SCITEGIC>MOL_PROPERTY
W
SciTegic.value.DoubleValue
-2.161

@<SCITEGIC>MOL_PROPERTY
W(PB)
SciTegic.value.DoubleValue
-4.282

@<SCITEGIC>MOL_PROPERTY
W(SA)
SciTegic.value.DoubleValue
2.121

@<SCITEGIC>MOL_PROPERTY
Valence
SciTegic.value.DoubleValue
16.788

@<SCITEGIC>MOL_PROPERTY
Coulomb
SciTegic.value.DoubleValue
-7.596

@<SCITEGIC>MOL_PROPERTY
VdW
SciTegic.value.DoubleValue
2.902

@<SCITEGIC>MOL_PROPERTY
VdW6
SciTegic.value.DoubleValue
-13.303

@<SCITEGIC>MOL_PROPERTY
VdW12
SciTegic.value.DoubleValue
16.205

@<SCITEGIC>MOL_PROPERTY
Bond
SciTegic.value.DoubleValue
0.495

@<SCITEGIC>MOL_PROPERTY
Angle
SciTegic.value.DoubleValue
5.823

@<SCITEGIC>MOL_PROPERTY
Pdih
SciTegic.value.DoubleValue
10.470

@<SCITEGIC>MOL_PROPERTY
Idih
SciTegic.value.DoubleValue
0.000

@<SCITEGIC>MOL_PROPERTY
Tether
SciTegic.value.DoubleValue
0.000

@<TRIPOS>MOLECULE
guest-s17_vm2.mol2 : vm2 ligand conformer 41
          25          25           1
SMALL
USER_CHARGES
 
@<TRIPOS>ATOM
       1    C1      20.518504   19.200490   20.742205 C.3        1 MOL1        -0.1684
       2    H1      19.576203   18.660417   20.579079 H          1 MOL1         0.0833
       3    H2      20.929382   19.373980   19.738059 H          1 MOL1         0.0833
       4    C2      21.539837   18.309836   21.494771 C.3        1 MOL1        -0.1684
       5    H3      22.072043   17.701547   20.750519 H          1 MOL1         0.0833
       6    H4      22.317573   18.935662   21.950906 H          1 MOL1         0.0833
       7    C3      20.943235   17.328399   22.538775 C.3        1 MOL1        -0.1684
       8    H5      21.773198   16.871908   23.095204 H          1 MOL1         0.0833
       9    H6      20.448669   16.503209   22.008382 H          1 MOL1         0.0833
      10    C4      19.934851   17.929313   23.548148 C.3        1 MOL1        -0.1760
      11    H7      18.968915   18.065696   23.050484 H          1 MOL1         0.0833
      12    H8      19.739622   17.181459   24.328266 H          1 MOL1         0.0833
      13    C5      20.410164   19.255721   24.192030 C.3        1 MOL1         0.1219
      14    H9      21.418738   19.499349   23.836527 H          1 MOL1         0.0790
      15    C6      19.492615   20.458857   23.879617 C.3        1 MOL1        -0.1760
      16    H10     18.572100   20.368646   24.471497 H          1 MOL1         0.0833
      17    H11     19.995623   21.365702   24.239656 H          1 MOL1         0.0833
      18    C7      19.099060   20.667163   22.391291 C.3        1 MOL1        -0.1684
      19    H12     18.636354   21.660807   22.316609 H          1 MOL1         0.0833
      20    H13     18.306161   19.966482   22.099839 H          1 MOL1         0.0833
      21    C8      20.262382   20.600563   21.369219 C.3        1 MOL1        -0.1684
      22    H14     19.996138   21.273548   20.542484 H          1 MOL1         0.0833
      23    H15     21.183362   21.018996   21.796926 H          1 MOL1         0.0833
      24    O1      20.463353   19.092657   25.603943 O.3        1 MOL1        -0.5508
      25    H16     21.092142   18.360826   25.776078 H          1 MOL1         0.3780
@<TRIPOS>BOND
    1     1     2    1
    2     1     3    1
    3     1     4    1
    4     4     5    1
    5     4     6    1
    6     4     7    1
    7     7     8    1
    8     7     9    1
    9     7    10    1
   10    10    11    1
   11    10    12    1
   12    10    13    1
   13    13    14    1
   14    13    15    1
   15    15    16    1
   16    15    17    1
   17    15    18    1
   18    18    19    1
   19    18    20    1
   20     1    21    1
   21    18    21    1
   22    21    22    1
   23    21    23    1
   24    13    24    1
   25    24    25    1
@<TRIPOS>SUBSTRUCTURE
       1 MOL1            1 RESIDUE      1      MOL     
@<SCITEGIC>MOL_PROPERTY
VM2 Rank
SciTegic.value.IntegerValue
41

@<SCITEGIC>MOL_PROPERTY
Conf_Id
SciTegic.value.IntegerValue
501

@<SCITEGIC>MOL_PROPERTY
Probability
SciTegic.value.DoubleValue
0.56

@<SCITEGIC>MOL_PROPERTY
Sum Probability
SciTegic.value.DoubleValue
91.00

@<SCITEGIC>MOL_PROPERTY
Delta G
SciTegic.value.DoubleValue
1.284

@<SCITEGIC>MOL_PROPERTY
G
SciTegic.value.DoubleValue
63.359

@<SCITEGIC>MOL_PROPERTY
E
SciTegic.value.DoubleValue
30.887

@<SCITEGIC>MOL_PROPERTY
-TS
SciTegic.value.DoubleValue
32.472

@<SCITEGIC>MOL_PROPERTY
U+W
SciTegic.value.DoubleValue
10.320

@<SCITEGIC>MOL_PROPERTY
U
SciTegic.value.DoubleValue
12.311

@<SCITEGIC>MOL_PROPERTY
W
SciTegic.value.DoubleValue
-1.992

@<SCITEGIC>MOL_PROPERTY
W(PB)
SciTegic.value.DoubleValue
-4.137

@<SCITEGIC>MOL_PROPERTY
W(SA)
SciTegic.value.DoubleValue
2.145

@<SCITEGIC>MOL_PROPERTY
Valence
SciTegic.value.DoubleValue
17.914

@<SCITEGIC>MOL_PROPERTY
Coulomb
SciTegic.value.DoubleValue
-8.725

@<SCITEGIC>MOL_PROPERTY
VdW
SciTegic.value.DoubleValue
3.122

@<SCITEGIC>MOL_PROPERTY
VdW6
SciTegic.value.DoubleValue
-12.447

@<SCITEGIC>MOL_PROPERTY
VdW12
SciTegic.value.DoubleValue
15.570

@<SCITEGIC>MOL_PROPERTY
Bond
SciTegic.value.DoubleValue
0.452

@<SCITEGIC>MOL_PROPERTY
Angle
SciTegic.value.DoubleValue
4.377

@<SCITEGIC>MOL_PROPERTY
Pdih
SciTegic.value.DoubleValue
13.085

@<SCITEGIC>MOL_PROPERTY
Idih
SciTegic.value.DoubleValue
0.000

@<SCITEGIC>MOL_PROPERTY
Tether
SciTegic.value.DoubleValue
0.000

@<TRIPOS>MOLECULE
guest-s17_vm2.mol2 : vm2 ligand conformer 42
          25          25           1
SMALL
USER_CHARGES
 
@<TRIPOS>ATOM
       1    C1      20.462310   19.350808   20.742075 C.3        1 MOL1        -0.1684
       2    H1      19.422785   19.038928   20.573731 H          1 MOL1         0.0833
       3    H2      20.878811   19.520331   19.739569 H          1 MOL1         0.0833
       4    C2      21.295338   18.205670   21.385247 C.3        1 MOL1        -0.1684
       5    H3      21.605676   17.541879   20.566495 H          1 MOL1         0.0833
       6    H4      22.230023   18.588211   21.816815 H          1 MOL1         0.0833
       7    C3      20.533999   17.325667   22.409129 C.3        1 MOL1        -0.1684
       8    H5      20.935485   16.304955   22.346200 H          1 MOL1         0.0833
       9    H6      19.482062   17.231656   22.110502 H          1 MOL1         0.0833
      10    C4      20.643099   17.767088   23.894601 C.3        1 MOL1        -0.1760
      11    H7      19.938791   17.167401   24.486322 H          1 MOL1         0.0833
      12    H8      21.644065   17.509588   24.264429 H          1 MOL1         0.0833
      13    C5      20.401539   19.263751   24.192411 C.3        1 MOL1         0.1219
      14    H9      21.275907   19.823524   23.838719 H          1 MOL1         0.0790
      15    C6      19.117850   19.828061   23.533954 C.3        1 MOL1        -0.1760
      16    H10     18.554621   19.029977   23.038842 H          1 MOL1         0.0833
      17    H11     18.435599   20.208733   24.305708 H          1 MOL1         0.0833
      18    C7      19.385175   20.964156   22.516804 C.3        1 MOL1        -0.1684
      19    H12     19.622296   21.884865   23.067172 H          1 MOL1         0.0833
      20    H13     18.450474   21.170007   21.977536 H          1 MOL1         0.0833
      21    C8      20.515319   20.711060   21.483454 C.3        1 MOL1        -0.1684
      22    H14     20.447089   21.509520   20.731806 H          1 MOL1         0.0833
      23    H15     21.501323   20.847125   21.945918 H          1 MOL1         0.0833
      24    O1      20.309372   19.426738   25.602324 O.3        1 MOL1        -0.5508
      25    H16     20.211100   20.388141   25.765501 H          1 MOL1         0.3780
@<TRIPOS>BOND
    1     1     2    1
    2     1     3    1
    3     1     4    1
    4     4     5    1
    5     4     6    1
    6     4     7    1
    7     7     8    1
    8     7     9    1
    9     7    10    1
   10    10    11    1
   11    10    12    1
   12    10    13    1
   13    13    14    1
   14    13    15    1
   15    15    16    1
   16    15    17    1
   17    15    18    1
   18    18    19    1
   19    18    20    1
   20     1    21    1
   21    18    21    1
   22    21    22    1
   23    21    23    1
   24    13    24    1
   25    24    25    1
@<TRIPOS>SUBSTRUCTURE
       1 MOL1            1 RESIDUE      1      MOL     
@<SCITEGIC>MOL_PROPERTY
VM2 Rank
SciTegic.value.IntegerValue
42

@<SCITEGIC>MOL_PROPERTY
Conf_Id
SciTegic.value.IntegerValue
609

@<SCITEGIC>MOL_PROPERTY
Probability
SciTegic.value.DoubleValue
0.55

@<SCITEGIC>MOL_PROPERTY
Sum Probability
SciTegic.value.DoubleValue
91.55

@<SCITEGIC>MOL_PROPERTY
Delta G
SciTegic.value.DoubleValue
1.297

@<SCITEGIC>MOL_PROPERTY
G
SciTegic.value.DoubleValue
63.373

@<SCITEGIC>MOL_PROPERTY
E
SciTegic.value.DoubleValue
30.900

@<SCITEGIC>MOL_PROPERTY
-TS
SciTegic.value.DoubleValue
32.472

@<SCITEGIC>MOL_PROPERTY
U+W
SciTegic.value.DoubleValue
10.333

@<SCITEGIC>MOL_PROPERTY
U
SciTegic.value.DoubleValue
12.311

@<SCITEGIC>MOL_PROPERTY
W
SciTegic.value.DoubleValue
-1.978

@<SCITEGIC>MOL_PROPERTY
W(PB)
SciTegic.value.DoubleValue
-4.130

@<SCITEGIC>MOL_PROPERTY
W(SA)
SciTegic.value.DoubleValue
2.152

@<SCITEGIC>MOL_PROPERTY
Valence
SciTegic.value.DoubleValue
17.913

@<SCITEGIC>MOL_PROPERTY
Coulomb
SciTegic.value.DoubleValue
-8.725

@<SCITEGIC>MOL_PROPERTY
VdW
SciTegic.value.DoubleValue
3.123

@<SCITEGIC>MOL_PROPERTY
VdW6
SciTegic.value.DoubleValue
-12.448

@<SCITEGIC>MOL_PROPERTY
VdW12
SciTegic.value.DoubleValue
15.570

@<SCITEGIC>MOL_PROPERTY
Bond
SciTegic.value.DoubleValue
0.452

@<SCITEGIC>MOL_PROPERTY
Angle
SciTegic.value.DoubleValue
4.376

@<SCITEGIC>MOL_PROPERTY
Pdih
SciTegic.value.DoubleValue
13.085

@<SCITEGIC>MOL_PROPERTY
Idih
SciTegic.value.DoubleValue
0.000

@<SCITEGIC>MOL_PROPERTY
Tether
SciTegic.value.DoubleValue
0.000

@<TRIPOS>MOLECULE
guest-s17_vm2.mol2 : vm2 ligand conformer 43
          25          25           1
SMALL
USER_CHARGES
 
@<TRIPOS>ATOM
       1    C1      20.231478   19.183391   20.615380 C.3        1 MOL1        -0.1684
       2    H1      19.277270   18.648291   20.517071 H          1 MOL1         0.0833
       3    H2      20.603378   19.314582   19.589984 H          1 MOL1         0.0833
       4    C2      21.253148   18.315989   21.385592 C.3        1 MOL1        -0.1684
       5    H3      21.649312   17.571787   20.681031 H          1 MOL1         0.0833
       6    H4      22.118099   18.922967   21.684382 H          1 MOL1         0.0833
       7    C3      20.655882   17.544896   22.591452 C.3        1 MOL1        -0.1684
       8    H5      20.946736   16.491091   22.481897 H          1 MOL1         0.0833
       9    H6      19.558943   17.543173   22.564135 H          1 MOL1         0.0833
      10    C4      21.175408   18.022468   23.971210 C.3        1 MOL1        -0.1760
      11    H7      21.102444   17.180927   24.672971 H          1 MOL1         0.0833
      12    H8      22.247167   18.249867   23.905359 H          1 MOL1         0.0833
      13    C5      20.438879   19.218943   24.615936 C.3        1 MOL1         0.1219
      14    H9      20.985955   19.450421   25.541209 H          1 MOL1         0.0790
      15    C6      20.419279   20.520975   23.777933 C.3        1 MOL1        -0.1760
      16    H10     20.207963   21.340116   24.477755 H          1 MOL1         0.0833
      17    H11     21.430335   20.723907   23.402930 H          1 MOL1         0.0833
      18    C7      19.377722   20.613768   22.623738 C.3        1 MOL1        -0.1684
      19    H12     18.856524   21.574428   22.735702 H          1 MOL1         0.0833
      20    H13     18.592067   19.853496   22.703774 H          1 MOL1         0.0833
      21    C8      19.992586   20.592447   21.205000 C.3        1 MOL1        -0.1684
      22    H14     19.303566   21.117950   20.529634 H          1 MOL1         0.0833
      23    H15     20.924655   21.173196   21.184671 H          1 MOL1         0.0833
      24    O1      19.119618   18.830124   24.973758 O.3        1 MOL1        -0.5508
      25    H16     18.678983   18.599879   24.132599 H          1 MOL1         0.3780
@<TRIPOS>BOND
    1     1     2    1
    2     1     3    1
    3     1     4    1
    4     4     5    1
    5     4     6    1
    6     4     7    1
    7     7     8    1
    8     7     9    1
    9     7    10    1
   10    10    11    1
   11    10    12    1
   12    10    13    1
   13    13    14    1
   14    13    15    1
   15    15    16    1
   16    15    17    1
   17    15    18    1
   18    18    19    1
   19    18    20    1
   20     1    21    1
   21    18    21    1
   22    21    22    1
   23    21    23    1
   24    13    24    1
   25    24    25    1
@<TRIPOS>SUBSTRUCTURE
       1 MOL1            1 RESIDUE      1      MOL     
@<SCITEGIC>MOL_PROPERTY
VM2 Rank
SciTegic.value.IntegerValue
43

@<SCITEGIC>MOL_PROPERTY
Conf_Id
SciTegic.value.IntegerValue
1246

@<SCITEGIC>MOL_PROPERTY
Probability
SciTegic.value.DoubleValue
0.54

@<SCITEGIC>MOL_PROPERTY
Sum Probability
SciTegic.value.DoubleValue
92.08

@<SCITEGIC>MOL_PROPERTY
Delta G
SciTegic.value.DoubleValue
1.308

@<SCITEGIC>MOL_PROPERTY
G
SciTegic.value.DoubleValue
63.383

@<SCITEGIC>MOL_PROPERTY
E
SciTegic.value.DoubleValue
31.459

@<SCITEGIC>MOL_PROPERTY
-TS
SciTegic.value.DoubleValue
31.924

@<SCITEGIC>MOL_PROPERTY
U+W
SciTegic.value.DoubleValue
10.891

@<SCITEGIC>MOL_PROPERTY
U
SciTegic.value.DoubleValue
12.343

@<SCITEGIC>MOL_PROPERTY
W
SciTegic.value.DoubleValue
-1.451

@<SCITEGIC>MOL_PROPERTY
W(PB)
SciTegic.value.DoubleValue
-3.567

@<SCITEGIC>MOL_PROPERTY
W(SA)
SciTegic.value.DoubleValue
2.116

@<SCITEGIC>MOL_PROPERTY
Valence
SciTegic.value.DoubleValue
19.544

@<SCITEGIC>MOL_PROPERTY
Coulomb
SciTegic.value.DoubleValue
-9.330

@<SCITEGIC>MOL_PROPERTY
VdW
SciTegic.value.DoubleValue
2.129

@<SCITEGIC>MOL_PROPERTY
VdW6
SciTegic.value.DoubleValue
-12.582

@<SCITEGIC>MOL_PROPERTY
VdW12
SciTegic.value.DoubleValue
14.711

@<SCITEGIC>MOL_PROPERTY
Bond
SciTegic.value.DoubleValue
0.361

@<SCITEGIC>MOL_PROPERTY
Angle
SciTegic.value.DoubleValue
4.757

@<SCITEGIC>MOL_PROPERTY
Pdih
SciTegic.value.DoubleValue
14.426

@<SCITEGIC>MOL_PROPERTY
Idih
SciTegic.value.DoubleValue
0.000

@<SCITEGIC>MOL_PROPERTY
Tether
SciTegic.value.DoubleValue
0.000

@<TRIPOS>MOLECULE
guest-s17_vm2.mol2 : vm2 ligand conformer 44
          25          25           1
SMALL
USER_CHARGES
 
@<TRIPOS>ATOM
       1    C1      20.462366   19.349707   20.737581 C.3        1 MOL1        -0.1684
       2    H1      19.422499   19.039560   20.568066 H          1 MOL1         0.0833
       3    H2      20.880339   19.520079   19.735834 H          1 MOL1         0.0833
       4    C2      21.292712   18.203350   21.380728 C.3        1 MOL1        -0.1684
       5    H3      21.597505   17.535872   20.562882 H          1 MOL1         0.0833
       6    H4      22.230242   18.583377   21.808316 H          1 MOL1         0.0833
       7    C3      20.530205   17.330723   22.409288 C.3        1 MOL1        -0.1684
       8    H5      20.924002   16.307083   22.344856 H          1 MOL1         0.0833
       9    H6      19.476044   17.243656   22.116509 H          1 MOL1         0.0833
      10    C4      20.651804   17.772275   23.893400 C.3        1 MOL1        -0.1760
      11    H7      19.955100   17.166513   24.488323 H          1 MOL1         0.0833
      12    H8      21.657864   17.516281   24.250220 H          1 MOL1         0.0833
      13    C5      20.402945   19.267462   24.197478 C.3        1 MOL1         0.1219
      14    H9      21.273782   19.837126   23.850764 H          1 MOL1         0.0790
      15    C6      19.119421   19.831452   23.538294 C.3        1 MOL1        -0.1760
      16    H10     18.547571   19.032200   23.055436 H          1 MOL1         0.0833
      17    H11     18.448198   20.224352   24.313759 H          1 MOL1         0.0833
      18    C7      19.384589   20.960969   22.512645 C.3        1 MOL1        -0.1684
      19    H12     19.619564   21.884344   23.059577 H          1 MOL1         0.0833
      20    H13     18.449537   21.162449   21.972472 H          1 MOL1         0.0833
      21    C8      20.516657   20.707796   21.481738 C.3        1 MOL1        -0.1684
      22    H14     21.501695   20.841072   21.946999 H          1 MOL1         0.0833
      23    H15     20.451626   21.507866   20.731539 H          1 MOL1         0.0833
      24    O1      20.303301   19.419265   25.608848 O.3        1 MOL1        -0.5508
      25    H16     21.146468   19.094590   25.988260 H          1 MOL1         0.3780
@<TRIPOS>BOND
    1     1     2    1
    2     1     3    1
    3     1     4    1
    4     4     5    1
    5     4     6    1
    6     4     7    1
    7     7     8    1
    8     7     9    1
    9     7    10    1
   10    10    11    1
   11    10    12    1
   12    10    13    1
   13    13    14    1
   14    13    15    1
   15    15    16    1
   16    15    17    1
   17    15    18    1
   18    18    19    1
   19    18    20    1
   20     1    21    1
   21    18    21    1
   22    21    22    1
   23    21    23    1
   24    13    24    1
   25    24    25    1
@<TRIPOS>SUBSTRUCTURE
       1 MOL1            1 RESIDUE      1      MOL     
@<SCITEGIC>MOL_PROPERTY
VM2 Rank
SciTegic.value.IntegerValue
44

@<SCITEGIC>MOL_PROPERTY
Conf_Id
SciTegic.value.IntegerValue
85

@<SCITEGIC>MOL_PROPERTY
Probability
SciTegic.value.DoubleValue
0.49

@<SCITEGIC>MOL_PROPERTY
Sum Probability
SciTegic.value.DoubleValue
92.57

@<SCITEGIC>MOL_PROPERTY
Delta G
SciTegic.value.DoubleValue
1.366

@<SCITEGIC>MOL_PROPERTY
G
SciTegic.value.DoubleValue
63.442

@<SCITEGIC>MOL_PROPERTY
E
SciTegic.value.DoubleValue
31.043

@<SCITEGIC>MOL_PROPERTY
-TS
SciTegic.value.DoubleValue
32.399

@<SCITEGIC>MOL_PROPERTY
U+W
SciTegic.value.DoubleValue
10.476

@<SCITEGIC>MOL_PROPERTY
U
SciTegic.value.DoubleValue
12.694

@<SCITEGIC>MOL_PROPERTY
W
SciTegic.value.DoubleValue
-2.219

@<SCITEGIC>MOL_PROPERTY
W(PB)
SciTegic.value.DoubleValue
-4.362

@<SCITEGIC>MOL_PROPERTY
W(SA)
SciTegic.value.DoubleValue
2.143

@<SCITEGIC>MOL_PROPERTY
Valence
SciTegic.value.DoubleValue
17.937

@<SCITEGIC>MOL_PROPERTY
Coulomb
SciTegic.value.DoubleValue
-8.339

@<SCITEGIC>MOL_PROPERTY
VdW
SciTegic.value.DoubleValue
3.096

@<SCITEGIC>MOL_PROPERTY
VdW6
SciTegic.value.DoubleValue
-12.392

@<SCITEGIC>MOL_PROPERTY
VdW12
SciTegic.value.DoubleValue
15.489

@<SCITEGIC>MOL_PROPERTY
Bond
SciTegic.value.DoubleValue
0.441

@<SCITEGIC>MOL_PROPERTY
Angle
SciTegic.value.DoubleValue
4.414

@<SCITEGIC>MOL_PROPERTY
Pdih
SciTegic.value.DoubleValue
13.082

@<SCITEGIC>MOL_PROPERTY
Idih
SciTegic.value.DoubleValue
0.000

@<SCITEGIC>MOL_PROPERTY
Tether
SciTegic.value.DoubleValue
0.000

@<TRIPOS>MOLECULE
guest-s17_vm2.mol2 : vm2 ligand conformer 45
          25          25           1
SMALL
USER_CHARGES
 
@<TRIPOS>ATOM
       1    C1      20.518324   19.201565   20.737767 C.3        1 MOL1        -0.1684
       2    H1      19.577093   18.660052   20.573159 H          1 MOL1         0.0833
       3    H2      20.931094   19.375703   19.734510 H          1 MOL1         0.0833
       4    C2      21.538778   18.313258   21.493218 C.3        1 MOL1        -0.1684
       5    H3      22.074564   17.706316   20.750457 H          1 MOL1         0.0833
       6    H4      22.313695   18.940273   21.952440 H          1 MOL1         0.0833
       7    C3      20.940630   17.330183   22.534480 C.3        1 MOL1        -0.1684
       8    H5      21.770900   16.870181   23.087669 H          1 MOL1         0.0833
       9    H6      20.442810   16.507819   22.002883 H          1 MOL1         0.0833
      10    C4      19.938201   17.928064   23.552199 C.3        1 MOL1        -0.1760
      11    H7      18.965606   18.059227   23.066585 H          1 MOL1         0.0833
      12    H8      19.759198   17.179692   24.335878 H          1 MOL1         0.0833
      13    C5      20.413453   19.254035   24.197158 C.3        1 MOL1         0.1219
      14    H9      21.426855   19.488415   23.849069 H          1 MOL1         0.0790
      15    C6      19.502106   20.461429   23.878371 C.3        1 MOL1        -0.1760
      16    H10     18.582277   20.380887   24.473102 H          1 MOL1         0.0833
      17    H11     20.009656   21.370723   24.225627 H          1 MOL1         0.0833
      18    C7      19.100225   20.660995   22.391423 C.3        1 MOL1        -0.1684
      19    H12     18.630103   21.651074   22.315285 H          1 MOL1         0.0833
      20    H13     18.310908   19.954010   22.105583 H          1 MOL1         0.0833
      21    C8      20.259293   20.600434   21.364914 C.3        1 MOL1        -0.1684
      22    H14     19.986791   21.272085   20.539126 H          1 MOL1         0.0833
      23    H15     21.180295   21.022545   21.788928 H          1 MOL1         0.0833
      24    O1      20.452989   19.093036   25.610472 O.3        1 MOL1        -0.5508
      25    H16     20.798649   19.931832   25.980932 H          1 MOL1         0.3780
@<TRIPOS>BOND
    1     1     2    1
    2     1     3    1
    3     1     4    1
    4     4     5    1
    5     4     6    1
    6     4     7    1
    7     7     8    1
    8     7     9    1
    9     7    10    1
   10    10    11    1
   11    10    12    1
   12    10    13    1
   13    13    14    1
   14    13    15    1
   15    15    16    1
   16    15    17    1
   17    15    18    1
   18    18    19    1
   19    18    20    1
   20     1    21    1
   21    18    21    1
   22    21    22    1
   23    21    23    1
   24    13    24    1
   25    24    25    1
@<TRIPOS>SUBSTRUCTURE
       1 MOL1            1 RESIDUE      1      MOL     
@<SCITEGIC>MOL_PROPERTY
VM2 Rank
SciTegic.value.IntegerValue
45

@<SCITEGIC>MOL_PROPERTY
Conf_Id
SciTegic.value.IntegerValue
1453

@<SCITEGIC>MOL_PROPERTY
Probability
SciTegic.value.DoubleValue
0.48

@<SCITEGIC>MOL_PROPERTY
Sum Probability
SciTegic.value.DoubleValue
93.06

@<SCITEGIC>MOL_PROPERTY
Delta G
SciTegic.value.DoubleValue
1.373

@<SCITEGIC>MOL_PROPERTY
G
SciTegic.value.DoubleValue
63.448

@<SCITEGIC>MOL_PROPERTY
E
SciTegic.value.DoubleValue
31.049

@<SCITEGIC>MOL_PROPERTY
-TS
SciTegic.value.DoubleValue
32.399

@<SCITEGIC>MOL_PROPERTY
U+W
SciTegic.value.DoubleValue
10.482

@<SCITEGIC>MOL_PROPERTY
U
SciTegic.value.DoubleValue
12.694

@<SCITEGIC>MOL_PROPERTY
W
SciTegic.value.DoubleValue
-2.213

@<SCITEGIC>MOL_PROPERTY
W(PB)
SciTegic.value.DoubleValue
-4.351

@<SCITEGIC>MOL_PROPERTY
W(SA)
SciTegic.value.DoubleValue
2.138

@<SCITEGIC>MOL_PROPERTY
Valence
SciTegic.value.DoubleValue
17.937

@<SCITEGIC>MOL_PROPERTY
Coulomb
SciTegic.value.DoubleValue
-8.339

@<SCITEGIC>MOL_PROPERTY
VdW
SciTegic.value.DoubleValue
3.097

@<SCITEGIC>MOL_PROPERTY
VdW6
SciTegic.value.DoubleValue
-12.392

@<SCITEGIC>MOL_PROPERTY
VdW12
SciTegic.value.DoubleValue
15.489

@<SCITEGIC>MOL_PROPERTY
Bond
SciTegic.value.DoubleValue
0.441

@<SCITEGIC>MOL_PROPERTY
Angle
SciTegic.value.DoubleValue
4.414

@<SCITEGIC>MOL_PROPERTY
Pdih
SciTegic.value.DoubleValue
13.082

@<SCITEGIC>MOL_PROPERTY
Idih
SciTegic.value.DoubleValue
0.000

@<SCITEGIC>MOL_PROPERTY
Tether
SciTegic.value.DoubleValue
0.000

@<TRIPOS>MOLECULE
guest-s17_vm2.mol2 : vm2 ligand conformer 46
          25          25           1
SMALL
USER_CHARGES
 
@<TRIPOS>ATOM
       1    C1      20.510070   19.157451   20.719903 C.3        1 MOL1        -0.1684
       2    H1      19.771232   19.155237   19.906833 H          1 MOL1         0.0833
       3    H2      21.488450   19.059698   20.230281 H          1 MOL1         0.0833
       4    C2      20.241568   17.902651   21.586415 C.3        1 MOL1        -0.1684
       5    H3      19.225774   17.934538   21.990661 H          1 MOL1         0.0833
       6    H4      20.231988   17.038078   20.908561 H          1 MOL1         0.0833
       7    C3      21.278148   17.593616   22.697305 C.3        1 MOL1        -0.1684
       8    H5      22.239124   17.360075   22.219246 H          1 MOL1         0.0833
       9    H6      20.969536   16.665069   23.197186 H          1 MOL1         0.0833
      10    C4      21.533833   18.671310   23.790033 C.3        1 MOL1        -0.1760
      11    H7      22.160255   18.200721   24.558904 H          1 MOL1         0.0833
      12    H8      22.163251   19.471763   23.387761 H          1 MOL1         0.0833
      13    C5      20.307554   19.284127   24.517304 C.3        1 MOL1         0.1219
      14    H9      20.634134   19.497882   25.545243 H          1 MOL1         0.0790
      15    C6      19.813290   20.641187   23.953774 C.3        1 MOL1        -0.1760
      16    H10     18.995475   20.984877   24.600770 H          1 MOL1         0.0833
      17    H11     20.612800   21.382359   24.082030 H          1 MOL1         0.0833
      18    C7      19.313732   20.694573   22.483955 C.3        1 MOL1        -0.1684
      19    H12     18.863425   21.686051   22.339071 H          1 MOL1         0.0833
      20    H13     18.491316   19.988397   22.318375 H          1 MOL1         0.0833
      21    C8      20.432525   20.538335   21.420805 C.3        1 MOL1        -0.1684
      22    H14     20.267482   21.290019   20.636708 H          1 MOL1         0.0833
      23    H15     21.405744   20.804393   21.848883 H          1 MOL1         0.0833
      24    O1      19.233279   18.359749   24.590505 O.3        1 MOL1        -0.5508
      25    H16     19.111401   18.048300   23.673680 H          1 MOL1         0.3780
@<TRIPOS>BOND
    1     1     2    1
    2     1     3    1
    3     1     4    1
    4     4     5    1
    5     4     6    1
    6     4     7    1
    7     7     8    1
    8     7     9    1
    9     7    10    1
   10    10    11    1
   11    10    12    1
   12    10    13    1
   13    13    14    1
   14    13    15    1
   15    15    16    1
   16    15    17    1
   17    15    18    1
   18    18    19    1
   19    18    20    1
   20     1    21    1
   21    18    21    1
   22    21    22    1
   23    21    23    1
   24    13    24    1
   25    24    25    1
@<TRIPOS>SUBSTRUCTURE
       1 MOL1            1 RESIDUE      1      MOL     
@<SCITEGIC>MOL_PROPERTY
VM2 Rank
SciTegic.value.IntegerValue
46

@<SCITEGIC>MOL_PROPERTY
Conf_Id
SciTegic.value.IntegerValue
1351

@<SCITEGIC>MOL_PROPERTY
Probability
SciTegic.value.DoubleValue
0.48

@<SCITEGIC>MOL_PROPERTY
Sum Probability
SciTegic.value.DoubleValue
93.54

@<SCITEGIC>MOL_PROPERTY
Delta G
SciTegic.value.DoubleValue
1.373

@<SCITEGIC>MOL_PROPERTY
G
SciTegic.value.DoubleValue
63.449

@<SCITEGIC>MOL_PROPERTY
E
SciTegic.value.DoubleValue
30.675

@<SCITEGIC>MOL_PROPERTY
-TS
SciTegic.value.DoubleValue
32.773

@<SCITEGIC>MOL_PROPERTY
U+W
SciTegic.value.DoubleValue
10.108

@<SCITEGIC>MOL_PROPERTY
U
SciTegic.value.DoubleValue
11.292

@<SCITEGIC>MOL_PROPERTY
W
SciTegic.value.DoubleValue
-1.184

@<SCITEGIC>MOL_PROPERTY
W(PB)
SciTegic.value.DoubleValue
-3.298

@<SCITEGIC>MOL_PROPERTY
W(SA)
SciTegic.value.DoubleValue
2.114

@<SCITEGIC>MOL_PROPERTY
Valence
SciTegic.value.DoubleValue
18.277

@<SCITEGIC>MOL_PROPERTY
Coulomb
SciTegic.value.DoubleValue
-9.503

@<SCITEGIC>MOL_PROPERTY
VdW
SciTegic.value.DoubleValue
2.517

@<SCITEGIC>MOL_PROPERTY
VdW6
SciTegic.value.DoubleValue
-13.881

@<SCITEGIC>MOL_PROPERTY
VdW12
SciTegic.value.DoubleValue
16.398

@<SCITEGIC>MOL_PROPERTY
Bond
SciTegic.value.DoubleValue
0.506

@<SCITEGIC>MOL_PROPERTY
Angle
SciTegic.value.DoubleValue
7.441

@<SCITEGIC>MOL_PROPERTY
Pdih
SciTegic.value.DoubleValue
10.329

@<SCITEGIC>MOL_PROPERTY
Idih
SciTegic.value.DoubleValue
0.000

@<SCITEGIC>MOL_PROPERTY
Tether
SciTegic.value.DoubleValue
0.000

@<TRIPOS>MOLECULE
guest-s17_vm2.mol2 : vm2 ligand conformer 47
          25          25           1
SMALL
USER_CHARGES
 
@<TRIPOS>ATOM
       1    C1      20.413734   19.358049   20.717401 C.3        1 MOL1        -0.1684
       2    H1      21.001819   20.138983   20.216592 H          1 MOL1         0.0833
       3    H2      19.918160   18.799052   19.911858 H          1 MOL1         0.0833
       4    C2      21.380113   18.383713   21.439132 C.3        1 MOL1        -0.1684
       5    H3      21.828262   17.742414   20.667787 H          1 MOL1         0.0833
       6    H4      22.230076   18.931905   21.861319 H          1 MOL1         0.0833
       7    C3      20.738436   17.469414   22.515559 C.3        1 MOL1        -0.1684
       8    H5      21.169323   16.466778   22.389645 H          1 MOL1         0.0833
       9    H6      19.663316   17.333451   22.347923 H          1 MOL1         0.0833
      10    C4      21.029163   17.900088   23.979378 C.3        1 MOL1        -0.1760
      11    H7      20.730370   17.075119   24.639451 H          1 MOL1         0.0833
      12    H8      22.114903   17.994930   24.110437 H          1 MOL1         0.0833
      13    C5      20.355738   19.188410   24.518090 C.3        1 MOL1         0.1219
      14    H9      20.729440   19.303803   25.545726 H          1 MOL1         0.0790
      15    C6      20.730671   20.495183   23.769757 C.3        1 MOL1        -0.1760
      16    H10     20.800981   21.288333   24.525395 H          1 MOL1         0.0833
      17    H11     21.747970   20.415241   23.372984 H          1 MOL1         0.0833
      18    C7      19.765958   21.012377   22.663997 C.3        1 MOL1        -0.1684
      19    H12     20.241913   21.871987   22.172983 H          1 MOL1         0.0833
      20    H13     18.869443   21.417532   23.153316 H          1 MOL1         0.0833
      21    C8      19.301425   20.018675   21.568166 C.3        1 MOL1        -0.1684
      22    H14     18.658249   20.581639   20.877905 H          1 MOL1         0.0833
      23    H15     18.639752   19.252917   21.982983 H          1 MOL1         0.0833
      24    O1      18.948762   19.017091   24.588520 O.3        1 MOL1        -0.5508
      25    H16     18.640105   19.120845   23.668526 H          1 MOL1         0.3780
@<TRIPOS>BOND
    1     1     2    1
    2     1     3    1
    3     1     4    1
    4     4     5    1
    5     4     6    1
    6     4     7    1
    7     7     8    1
    8     7     9    1
    9     7    10    1
   10    10    11    1
   11    10    12    1
   12    10    13    1
   13    13    14    1
   14    13    15    1
   15    15    16    1
   16    15    17    1
   17    15    18    1
   18    18    19    1
   19    18    20    1
   20     1    21    1
   21    18    21    1
   22    21    22    1
   23    21    23    1
   24    13    24    1
   25    24    25    1
@<TRIPOS>SUBSTRUCTURE
       1 MOL1            1 RESIDUE      1      MOL     
@<SCITEGIC>MOL_PROPERTY
VM2 Rank
SciTegic.value.IntegerValue
47

@<SCITEGIC>MOL_PROPERTY
Conf_Id
SciTegic.value.IntegerValue
974

@<SCITEGIC>MOL_PROPERTY
Probability
SciTegic.value.DoubleValue
0.46

@<SCITEGIC>MOL_PROPERTY
Sum Probability
SciTegic.value.DoubleValue
94.00

@<SCITEGIC>MOL_PROPERTY
Delta G
SciTegic.value.DoubleValue
1.398

@<SCITEGIC>MOL_PROPERTY
G
SciTegic.value.DoubleValue
63.473

@<SCITEGIC>MOL_PROPERTY
E
SciTegic.value.DoubleValue
30.700

@<SCITEGIC>MOL_PROPERTY
-TS
SciTegic.value.DoubleValue
32.774

@<SCITEGIC>MOL_PROPERTY
U+W
SciTegic.value.DoubleValue
10.132

@<SCITEGIC>MOL_PROPERTY
U
SciTegic.value.DoubleValue
11.292

@<SCITEGIC>MOL_PROPERTY
W
SciTegic.value.DoubleValue
-1.159

@<SCITEGIC>MOL_PROPERTY
W(PB)
SciTegic.value.DoubleValue
-3.281

@<SCITEGIC>MOL_PROPERTY
W(SA)
SciTegic.value.DoubleValue
2.122

@<SCITEGIC>MOL_PROPERTY
Valence
SciTegic.value.DoubleValue
18.277

@<SCITEGIC>MOL_PROPERTY
Coulomb
SciTegic.value.DoubleValue
-9.503

@<SCITEGIC>MOL_PROPERTY
VdW
SciTegic.value.DoubleValue
2.517

@<SCITEGIC>MOL_PROPERTY
VdW6
SciTegic.value.DoubleValue
-13.881

@<SCITEGIC>MOL_PROPERTY
VdW12
SciTegic.value.DoubleValue
16.398

@<SCITEGIC>MOL_PROPERTY
Bond
SciTegic.value.DoubleValue
0.507

@<SCITEGIC>MOL_PROPERTY
Angle
SciTegic.value.DoubleValue
7.442

@<SCITEGIC>MOL_PROPERTY
Pdih
SciTegic.value.DoubleValue
10.329

@<SCITEGIC>MOL_PROPERTY
Idih
SciTegic.value.DoubleValue
0.000

@<SCITEGIC>MOL_PROPERTY
Tether
SciTegic.value.DoubleValue
0.000

@<TRIPOS>MOLECULE
guest-s17_vm2.mol2 : vm2 ligand conformer 48
          25          25           1
SMALL
USER_CHARGES
 
@<TRIPOS>ATOM
       1    C1      20.461902   19.349720   20.738307 C.3        1 MOL1        -0.1684
       2    H1      19.421821   19.039914   20.569538 H          1 MOL1         0.0833
       3    H2      20.879085   19.520262   19.736258 H          1 MOL1         0.0833
       4    C2      21.292632   18.203157   21.380494 C.3        1 MOL1        -0.1684
       5    H3      21.597250   17.536111   20.562235 H          1 MOL1         0.0833
       6    H4      22.230233   18.583144   21.808036 H          1 MOL1         0.0833
       7    C3      20.531003   17.329975   22.409144 C.3        1 MOL1        -0.1684
       8    H5      20.926441   16.306940   22.345051 H          1 MOL1         0.0833
       9    H6      19.477059   17.241386   22.116015 H          1 MOL1         0.0833
      10    C4      20.651908   17.771876   23.893178 C.3        1 MOL1        -0.1760
      11    H7      19.960693   17.160302   24.487847 H          1 MOL1         0.0833
      12    H8      21.659614   17.522668   24.250765 H          1 MOL1         0.0833
      13    C5      20.400789   19.266693   24.197175 C.3        1 MOL1         0.1219
      14    H9      21.272815   19.835280   23.852201 H          1 MOL1         0.0790
      15    C6      19.117565   19.831961   23.537889 C.3        1 MOL1        -0.1760
      16    H10     18.546885   19.033817   23.051280 H          1 MOL1         0.0833
      17    H11     18.443731   20.227649   24.309516 H          1 MOL1         0.0833
      18    C7      19.385399   20.961691   22.513345 C.3        1 MOL1        -0.1684
      19    H12     19.621790   21.884362   23.060916 H          1 MOL1         0.0833
      20    H13     18.451136   21.165315   21.972557 H          1 MOL1         0.0833
      21    C8      20.517559   20.707470   21.482913 C.3        1 MOL1        -0.1684
      22    H14     20.454049   21.507932   20.733003 H          1 MOL1         0.0833
      23    H15     21.502497   20.839267   21.948877 H          1 MOL1         0.0833
      24    O1      20.305242   19.420457   25.607557 O.3        1 MOL1        -0.5508
      25    H16     19.522273   18.904887   25.890166 H          1 MOL1         0.3780
@<TRIPOS>BOND
    1     1     2    1
    2     1     3    1
    3     1     4    1
    4     4     5    1
    5     4     6    1
    6     4     7    1
    7     7     8    1
    8     7     9    1
    9     7    10    1
   10    10    11    1
   11    10    12    1
   12    10    13    1
   13    13    14    1
   14    13    15    1
   15    15    16    1
   16    15    17    1
   17    15    18    1
   18    18    19    1
   19    18    20    1
   20     1    21    1
   21    18    21    1
   22    21    22    1
   23    21    23    1
   24    13    24    1
   25    24    25    1
@<TRIPOS>SUBSTRUCTURE
       1 MOL1            1 RESIDUE      1      MOL     
@<SCITEGIC>MOL_PROPERTY
VM2 Rank
SciTegic.value.IntegerValue
48

@<SCITEGIC>MOL_PROPERTY
Conf_Id
SciTegic.value.IntegerValue
1358

@<SCITEGIC>MOL_PROPERTY
Probability
SciTegic.value.DoubleValue
0.40

@<SCITEGIC>MOL_PROPERTY
Sum Probability
SciTegic.value.DoubleValue
94.40

@<SCITEGIC>MOL_PROPERTY
Delta G
SciTegic.value.DoubleValue
1.493

@<SCITEGIC>MOL_PROPERTY
G
SciTegic.value.DoubleValue
63.569

@<SCITEGIC>MOL_PROPERTY
E
SciTegic.value.DoubleValue
31.181

@<SCITEGIC>MOL_PROPERTY
-TS
SciTegic.value.DoubleValue
32.388

@<SCITEGIC>MOL_PROPERTY
U+W
SciTegic.value.DoubleValue
10.613

@<SCITEGIC>MOL_PROPERTY
U
SciTegic.value.DoubleValue
12.707

@<SCITEGIC>MOL_PROPERTY
W
SciTegic.value.DoubleValue
-2.094

@<SCITEGIC>MOL_PROPERTY
W(PB)
SciTegic.value.DoubleValue
-4.240

@<SCITEGIC>MOL_PROPERTY
W(SA)
SciTegic.value.DoubleValue
2.146

@<SCITEGIC>MOL_PROPERTY
Valence
SciTegic.value.DoubleValue
18.320

@<SCITEGIC>MOL_PROPERTY
Coulomb
SciTegic.value.DoubleValue
-8.639

@<SCITEGIC>MOL_PROPERTY
VdW
SciTegic.value.DoubleValue
3.026

@<SCITEGIC>MOL_PROPERTY
VdW6
SciTegic.value.DoubleValue
-12.424

@<SCITEGIC>MOL_PROPERTY
VdW12
SciTegic.value.DoubleValue
15.450

@<SCITEGIC>MOL_PROPERTY
Bond
SciTegic.value.DoubleValue
0.436

@<SCITEGIC>MOL_PROPERTY
Angle
SciTegic.value.DoubleValue
4.453

@<SCITEGIC>MOL_PROPERTY
Pdih
SciTegic.value.DoubleValue
13.431

@<SCITEGIC>MOL_PROPERTY
Idih
SciTegic.value.DoubleValue
0.000

@<SCITEGIC>MOL_PROPERTY
Tether
SciTegic.value.DoubleValue
0.000

@<TRIPOS>MOLECULE
guest-s17_vm2.mol2 : vm2 ligand conformer 49
          25          25           1
SMALL
USER_CHARGES
 
@<TRIPOS>ATOM
       1    C1      20.518052   19.201248   20.738496 C.3        1 MOL1        -0.1684
       2    H1      19.576892   18.659411   20.574595 H          1 MOL1         0.0833
       3    H2      20.930439   19.374696   19.734963 H          1 MOL1         0.0833
       4    C2      21.539129   18.314088   21.494388 C.3        1 MOL1        -0.1684
       5    H3      22.076212   17.707952   20.751906 H          1 MOL1         0.0833
       6    H4      22.312944   18.941999   21.954317 H          1 MOL1         0.0833
       7    C3      20.941607   17.330243   22.535168 C.3        1 MOL1        -0.1684
       8    H5      21.772310   16.871693   23.088975 H          1 MOL1         0.0833
       9    H6      20.445829   16.507008   22.002955 H          1 MOL1         0.0833
      10    C4      19.937228   17.926369   23.551812 C.3        1 MOL1        -0.1760
      11    H7      18.966244   18.057607   23.062461 H          1 MOL1         0.0833
      12    H8      19.758430   17.174150   24.331702 H          1 MOL1         0.0833
      13    C5      20.411401   19.252993   24.196853 C.3        1 MOL1         0.1219
      14    H9      21.424842   19.488969   23.850471 H          1 MOL1         0.0790
      15    C6      19.501900   20.461786   23.878144 C.3        1 MOL1        -0.1760
      16    H10     18.581619   20.389207   24.472495 H          1 MOL1         0.0833
      17    H11     20.015492   21.367592   24.226259 H          1 MOL1         0.0833
      18    C7      19.100299   20.662136   22.391260 C.3        1 MOL1        -0.1684
      19    H12     18.631782   21.653007   22.315455 H          1 MOL1         0.0833
      20    H13     18.310013   19.956385   22.105018 H          1 MOL1         0.0833
      21    C8      20.259200   20.600526   21.364711 C.3        1 MOL1        -0.1684
      22    H14     19.986956   21.271793   20.538528 H          1 MOL1         0.0833
      23    H15     21.180234   21.022649   21.788726 H          1 MOL1         0.0833
      24    O1      20.455185   19.093611   25.609168 O.3        1 MOL1        -0.5508
      25    H16     19.541611   18.884950   25.893002 H          1 MOL1         0.3780
@<TRIPOS>BOND
    1     1     2    1
    2     1     3    1
    3     1     4    1
    4     4     5    1
    5     4     6    1
    6     4     7    1
    7     7     8    1
    8     7     9    1
    9     7    10    1
   10    10    11    1
   11    10    12    1
   12    10    13    1
   13    13    14    1
   14    13    15    1
   15    15    16    1
   16    15    17    1
   17    15    18    1
   18    18    19    1
   19    18    20    1
   20     1    21    1
   21    18    21    1
   22    21    22    1
   23    21    23    1
   24    13    24    1
   25    24    25    1
@<TRIPOS>SUBSTRUCTURE
       1 MOL1            1 RESIDUE      1      MOL     
@<SCITEGIC>MOL_PROPERTY
VM2 Rank
SciTegic.value.IntegerValue
49

@<SCITEGIC>MOL_PROPERTY
Conf_Id
SciTegic.value.IntegerValue
632

@<SCITEGIC>MOL_PROPERTY
Probability
SciTegic.value.DoubleValue
0.39

@<SCITEGIC>MOL_PROPERTY
Sum Probability
SciTegic.value.DoubleValue
94.79

@<SCITEGIC>MOL_PROPERTY
Delta G
SciTegic.value.DoubleValue
1.500

@<SCITEGIC>MOL_PROPERTY
G
SciTegic.value.DoubleValue
63.576

@<SCITEGIC>MOL_PROPERTY
E
SciTegic.value.DoubleValue
31.187

@<SCITEGIC>MOL_PROPERTY
-TS
SciTegic.value.DoubleValue
32.388

@<SCITEGIC>MOL_PROPERTY
U+W
SciTegic.value.DoubleValue
10.620

@<SCITEGIC>MOL_PROPERTY
U
SciTegic.value.DoubleValue
12.707

@<SCITEGIC>MOL_PROPERTY
W
SciTegic.value.DoubleValue
-2.087

@<SCITEGIC>MOL_PROPERTY
W(PB)
SciTegic.value.DoubleValue
-4.226

@<SCITEGIC>MOL_PROPERTY
W(SA)
SciTegic.value.DoubleValue
2.139

@<SCITEGIC>MOL_PROPERTY
Valence
SciTegic.value.DoubleValue
18.320

@<SCITEGIC>MOL_PROPERTY
Coulomb
SciTegic.value.DoubleValue
-8.639

@<SCITEGIC>MOL_PROPERTY
VdW
SciTegic.value.DoubleValue
3.026

@<SCITEGIC>MOL_PROPERTY
VdW6
SciTegic.value.DoubleValue
-12.424

@<SCITEGIC>MOL_PROPERTY
VdW12
SciTegic.value.DoubleValue
15.450

@<SCITEGIC>MOL_PROPERTY
Bond
SciTegic.value.DoubleValue
0.436

@<SCITEGIC>MOL_PROPERTY
Angle
SciTegic.value.DoubleValue
4.453

@<SCITEGIC>MOL_PROPERTY
Pdih
SciTegic.value.DoubleValue
13.431

@<SCITEGIC>MOL_PROPERTY
Idih
SciTegic.value.DoubleValue
0.000

@<SCITEGIC>MOL_PROPERTY
Tether
SciTegic.value.DoubleValue
0.000

@<TRIPOS>MOLECULE
guest-s17_vm2.mol2 : vm2 ligand conformer 50
          25          25           1
SMALL
USER_CHARGES
 
@<TRIPOS>ATOM
       1    C1      20.184321   19.265256   20.665327 C.3        1 MOL1        -0.1684
       2    H1      19.172871   18.848317   20.751139 H          1 MOL1         0.0833
       3    H2      20.364078   19.342976   19.584293 H          1 MOL1         0.0833
       4    C2      21.217344   18.270977   21.251792 C.3        1 MOL1        -0.1684
       5    H3      21.479835   17.572338   20.445458 H          1 MOL1         0.0833
       6    H4      22.153702   18.785576   21.505974 H          1 MOL1         0.0833
       7    C3      20.706716   17.412187   22.442196 C.3        1 MOL1        -0.1684
       8    H5      21.268836   16.468491   22.416488 H          1 MOL1         0.0833
       9    H6      19.655172   17.127250   22.303088 H          1 MOL1         0.0833
      10    C4      20.929366   18.028712   23.847469 C.3        1 MOL1        -0.1760
      11    H7      21.095129   17.202607   24.551534 H          1 MOL1         0.0833
      12    H8      21.864700   18.601417   23.858701 H          1 MOL1         0.0833
      13    C5      19.759013   18.867361   24.420854 C.3        1 MOL1         0.1219
      14    H9      18.938035   18.178125   24.665237 H          1 MOL1         0.0790
      15    C6      19.182369   19.965609   23.497694 C.3        1 MOL1        -0.1760
      16    H10     18.503161   19.501885   22.774233 H          1 MOL1         0.0833
      17    H11     18.535994   20.617431   24.100532 H          1 MOL1         0.0833
      18    C7      20.244534   20.840053   22.779096 C.3        1 MOL1        -0.1684
      19    H12     21.252734   20.627670   23.152630 H          1 MOL1         0.0833
      20    H13     20.065500   21.893622   23.033401 H          1 MOL1         0.0833
      21    C8      20.231779   20.706824   21.237417 C.3        1 MOL1        -0.1684
      22    H14     19.368543   21.259844   20.842700 H          1 MOL1         0.0833
      23    H15     21.120055   21.217112   20.840739 H          1 MOL1         0.0833
      24    O1      20.208557   19.486021   25.618155 O.3        1 MOL1        -0.5508
      25    H16     20.834546   20.184947   25.339858 H          1 MOL1         0.3780
@<TRIPOS>BOND
    1     1     2    1
    2     1     3    1
    3     1     4    1
    4     4     5    1
    5     4     6    1
    6     4     7    1
    7     7     8    1
    8     7     9    1
    9     7    10    1
   10    10    11    1
   11    10    12    1
   12    10    13    1
   13    13    14    1
   14    13    15    1
   15    15    16    1
   16    15    17    1
   17    15    18    1
   18    18    19    1
   19    18    20    1
   20     1    21    1
   21    18    21    1
   22    21    22    1
   23    21    23    1
   24    13    24    1
   25    24    25    1
@<TRIPOS>SUBSTRUCTURE
       1 MOL1            1 RESIDUE      1      MOL     
@<SCITEGIC>MOL_PROPERTY
VM2 Rank
SciTegic.value.IntegerValue
50

@<SCITEGIC>MOL_PROPERTY
Conf_Id
SciTegic.value.IntegerValue
1362

@<SCITEGIC>MOL_PROPERTY
Probability
SciTegic.value.DoubleValue
0.31

@<SCITEGIC>MOL_PROPERTY
Sum Probability
SciTegic.value.DoubleValue
95.10

@<SCITEGIC>MOL_PROPERTY
Delta G
SciTegic.value.DoubleValue
1.643

@<SCITEGIC>MOL_PROPERTY
G
SciTegic.value.DoubleValue
63.718

@<SCITEGIC>MOL_PROPERTY
E
SciTegic.value.DoubleValue
31.406

@<SCITEGIC>MOL_PROPERTY
-TS
SciTegic.value.DoubleValue
32.313

@<SCITEGIC>MOL_PROPERTY
U+W
SciTegic.value.DoubleValue
10.838

@<SCITEGIC>MOL_PROPERTY
U
SciTegic.value.DoubleValue
12.433

@<SCITEGIC>MOL_PROPERTY
W
SciTegic.value.DoubleValue
-1.595

@<SCITEGIC>MOL_PROPERTY
W(PB)
SciTegic.value.DoubleValue
-3.733

@<SCITEGIC>MOL_PROPERTY
W(SA)
SciTegic.value.DoubleValue
2.138

@<SCITEGIC>MOL_PROPERTY
Valence
SciTegic.value.DoubleValue
19.007

@<SCITEGIC>MOL_PROPERTY
Coulomb
SciTegic.value.DoubleValue
-9.373

@<SCITEGIC>MOL_PROPERTY
VdW
SciTegic.value.DoubleValue
2.799

@<SCITEGIC>MOL_PROPERTY
VdW6
SciTegic.value.DoubleValue
-12.597

@<SCITEGIC>MOL_PROPERTY
VdW12
SciTegic.value.DoubleValue
15.396

@<SCITEGIC>MOL_PROPERTY
Bond
SciTegic.value.DoubleValue
0.425

@<SCITEGIC>MOL_PROPERTY
Angle
SciTegic.value.DoubleValue
4.784

@<SCITEGIC>MOL_PROPERTY
Pdih
SciTegic.value.DoubleValue
13.799

@<SCITEGIC>MOL_PROPERTY
Idih
SciTegic.value.DoubleValue
0.000

@<SCITEGIC>MOL_PROPERTY
Tether
SciTegic.value.DoubleValue
0.000

@<TRIPOS>MOLECULE
guest-s17_vm2.mol2 : vm2 ligand conformer 51
          25          25           1
SMALL
USER_CHARGES
 
@<TRIPOS>ATOM
       1    C1      19.891171   19.003305   20.794253 C.3        1 MOL1        -0.1684
       2    H1      18.938949   18.618904   21.181130 H          1 MOL1         0.0833
       3    H2      19.760556   19.028407   19.703706 H          1 MOL1         0.0833
       4    C2      21.043558   18.007533   21.089659 C.3        1 MOL1        -0.1684
       5    H3      20.704331   17.000876   20.809680 H          1 MOL1         0.0833
       6    H4      21.887954   18.233679   20.424356 H          1 MOL1         0.0833
       7    C3      21.569722   17.966458   22.544582 C.3        1 MOL1        -0.1684
       8    H5      22.238060   18.818124   22.717097 H          1 MOL1         0.0833
       9    H6      22.211062   17.080842   22.650190 H          1 MOL1         0.0833
      10    C4      20.454465   17.905240   23.620644 C.3        1 MOL1        -0.1760
      11    H7      19.474535   17.740038   23.159303 H          1 MOL1         0.0833
      12    H8      20.624505   17.019484   24.246519 H          1 MOL1         0.0833
      13    C5      20.399233   19.133960   24.557376 C.3        1 MOL1         0.1219
      14    H9      21.251431   19.063493   25.248479 H          1 MOL1         0.0790
      15    C6      20.475845   20.526423   23.879393 C.3        1 MOL1        -0.1760
      16    H10     20.253507   21.272667   24.654002 H          1 MOL1         0.0833
      17    H11     21.508756   20.741962   23.580814 H          1 MOL1         0.0833
      18    C7      19.521002   20.779273   22.682155 C.3        1 MOL1        -0.1684
      19    H12     19.286113   21.852565   22.686143 H          1 MOL1         0.0833
      20    H13     18.558218   20.272899   22.828595 H          1 MOL1         0.0833
      21    C8      20.113177   20.456157   21.282620 C.3        1 MOL1        -0.1684
      22    H14     19.607376   21.114957   20.563369 H          1 MOL1         0.0833
      23    H15     21.175783   20.728345   21.228140 H          1 MOL1         0.0833
      24    O1      19.195827   19.064650   25.309318 O.3        1 MOL1        -0.5508
      25    H16     18.471894   19.226295   24.671404 H          1 MOL1         0.3780
@<TRIPOS>BOND
    1     1     2    1
    2     1     3    1
    3     1     4    1
    4     4     5    1
    5     4     6    1
    6     4     7    1
    7     7     8    1
    8     7     9    1
    9     7    10    1
   10    10    11    1
   11    10    12    1
   12    10    13    1
   13    13    14    1
   14    13    15    1
   15    15    16    1
   16    15    17    1
   17    15    18    1
   18    18    19    1
   19    18    20    1
   20     1    21    1
   21    18    21    1
   22    21    22    1
   23    21    23    1
   24    13    24    1
   25    24    25    1
@<TRIPOS>SUBSTRUCTURE
       1 MOL1            1 RESIDUE      1      MOL     
@<SCITEGIC>MOL_PROPERTY
VM2 Rank
SciTegic.value.IntegerValue
51

@<SCITEGIC>MOL_PROPERTY
Conf_Id
SciTegic.value.IntegerValue
1550

@<SCITEGIC>MOL_PROPERTY
Probability
SciTegic.value.DoubleValue
0.27

@<SCITEGIC>MOL_PROPERTY
Sum Probability
SciTegic.value.DoubleValue
95.37

@<SCITEGIC>MOL_PROPERTY
Delta G
SciTegic.value.DoubleValue
1.717

@<SCITEGIC>MOL_PROPERTY
G
SciTegic.value.DoubleValue
63.792

@<SCITEGIC>MOL_PROPERTY
E
SciTegic.value.DoubleValue
31.518

@<SCITEGIC>MOL_PROPERTY
-TS
SciTegic.value.DoubleValue
32.274

@<SCITEGIC>MOL_PROPERTY
U+W
SciTegic.value.DoubleValue
10.950

@<SCITEGIC>MOL_PROPERTY
U
SciTegic.value.DoubleValue
12.526

@<SCITEGIC>MOL_PROPERTY
W
SciTegic.value.DoubleValue
-1.576

@<SCITEGIC>MOL_PROPERTY
W(PB)
SciTegic.value.DoubleValue
-3.699

@<SCITEGIC>MOL_PROPERTY
W(SA)
SciTegic.value.DoubleValue
2.123

@<SCITEGIC>MOL_PROPERTY
Valence
SciTegic.value.DoubleValue
19.016

@<SCITEGIC>MOL_PROPERTY
Coulomb
SciTegic.value.DoubleValue
-9.226

@<SCITEGIC>MOL_PROPERTY
VdW
SciTegic.value.DoubleValue
2.737

@<SCITEGIC>MOL_PROPERTY
VdW6
SciTegic.value.DoubleValue
-12.612

@<SCITEGIC>MOL_PROPERTY
VdW12
SciTegic.value.DoubleValue
15.349

@<SCITEGIC>MOL_PROPERTY
Bond
SciTegic.value.DoubleValue
0.421

@<SCITEGIC>MOL_PROPERTY
Angle
SciTegic.value.DoubleValue
4.883

@<SCITEGIC>MOL_PROPERTY
Pdih
SciTegic.value.DoubleValue
13.711

@<SCITEGIC>MOL_PROPERTY
Idih
SciTegic.value.DoubleValue
0.000

@<SCITEGIC>MOL_PROPERTY
Tether
SciTegic.value.DoubleValue
0.000

@<TRIPOS>MOLECULE
guest-s17_vm2.mol2 : vm2 ligand conformer 52
          25          25           1
SMALL
USER_CHARGES
 
@<TRIPOS>ATOM
       1    C1      19.851446   19.052458   20.798185 C.3        1 MOL1        -0.1684
       2    H1      18.908761   18.653854   21.193943 H          1 MOL1         0.0833
       3    H2      19.768466   18.937669   19.708726 H          1 MOL1         0.0833
       4    C2      21.038320   18.182753   21.281414 C.3        1 MOL1        -0.1684
       5    H3      21.140039   17.355964   20.565001 H          1 MOL1         0.0833
       6    H4      21.982421   18.740206   21.217346 H          1 MOL1         0.0833
       7    C3      20.857837   17.541950   22.685185 C.3        1 MOL1        -0.1684
       8    H5      21.449481   16.616160   22.688761 H          1 MOL1         0.0833
       9    H6      19.819704   17.221261   22.840908 H          1 MOL1         0.0833
      10    C4      21.364391   18.400518   23.874848 C.3        1 MOL1        -0.1760
      11    H7      21.739870   17.718559   24.649626 H          1 MOL1         0.0833
      12    H8      22.245605   18.976035   23.567025 H          1 MOL1         0.0833
      13    C5      20.331951   19.335271   24.556596 C.3        1 MOL1         0.1219
      14    H9      20.890768   19.990046   25.240571 H          1 MOL1         0.0790
      15    C6      19.496178   20.240054   23.622187 C.3        1 MOL1        -0.1760
      16    H10     18.682290   19.662926   23.169528 H          1 MOL1         0.0833
      17    H11     18.995738   20.989978   24.248582 H          1 MOL1         0.0833
      18    C7      20.320796   20.979614   22.536595 C.3        1 MOL1        -0.1684
      19    H12     21.396719   20.849409   22.701546 H          1 MOL1         0.0833
      20    H13     20.150174   22.060002   22.638763 H          1 MOL1         0.0833
      21    C8      19.966303   20.572574   21.086080 C.3        1 MOL1        -0.1684
      22    H14     19.013115   21.044496   20.811226 H          1 MOL1         0.0833
      23    H15     20.718781   21.005859   20.413165 H          1 MOL1         0.0833
      24    O1      19.436778   18.537808   25.318909 O.3        1 MOL1        -0.5508
      25    H16     19.033788   17.909106   24.686869 H          1 MOL1         0.3780
@<TRIPOS>BOND
    1     1     2    1
    2     1     3    1
    3     1     4    1
    4     4     5    1
    5     4     6    1
    6     4     7    1
    7     7     8    1
    8     7     9    1
    9     7    10    1
   10    10    11    1
   11    10    12    1
   12    10    13    1
   13    13    14    1
   14    13    15    1
   15    15    16    1
   16    15    17    1
   17    15    18    1
   18    18    19    1
   19    18    20    1
   20     1    21    1
   21    18    21    1
   22    21    22    1
   23    21    23    1
   24    13    24    1
   25    24    25    1
@<TRIPOS>SUBSTRUCTURE
       1 MOL1            1 RESIDUE      1      MOL     
@<SCITEGIC>MOL_PROPERTY
VM2 Rank
SciTegic.value.IntegerValue
52

@<SCITEGIC>MOL_PROPERTY
Conf_Id
SciTegic.value.IntegerValue
1617

@<SCITEGIC>MOL_PROPERTY
Probability
SciTegic.value.DoubleValue
0.27

@<SCITEGIC>MOL_PROPERTY
Sum Probability
SciTegic.value.DoubleValue
95.64

@<SCITEGIC>MOL_PROPERTY
Delta G
SciTegic.value.DoubleValue
1.725

@<SCITEGIC>MOL_PROPERTY
G
SciTegic.value.DoubleValue
63.800

@<SCITEGIC>MOL_PROPERTY
E
SciTegic.value.DoubleValue
31.526

@<SCITEGIC>MOL_PROPERTY
-TS
SciTegic.value.DoubleValue
32.274

@<SCITEGIC>MOL_PROPERTY
U+W
SciTegic.value.DoubleValue
10.958

@<SCITEGIC>MOL_PROPERTY
U
SciTegic.value.DoubleValue
12.527

@<SCITEGIC>MOL_PROPERTY
W
SciTegic.value.DoubleValue
-1.568

@<SCITEGIC>MOL_PROPERTY
W(PB)
SciTegic.value.DoubleValue
-3.703

@<SCITEGIC>MOL_PROPERTY
W(SA)
SciTegic.value.DoubleValue
2.135

@<SCITEGIC>MOL_PROPERTY
Valence
SciTegic.value.DoubleValue
19.016

@<SCITEGIC>MOL_PROPERTY
Coulomb
SciTegic.value.DoubleValue
-9.226

@<SCITEGIC>MOL_PROPERTY
VdW
SciTegic.value.DoubleValue
2.737

@<SCITEGIC>MOL_PROPERTY
VdW6
SciTegic.value.DoubleValue
-12.612

@<SCITEGIC>MOL_PROPERTY
VdW12
SciTegic.value.DoubleValue
15.349

@<SCITEGIC>MOL_PROPERTY
Bond
SciTegic.value.DoubleValue
0.421

@<SCITEGIC>MOL_PROPERTY
Angle
SciTegic.value.DoubleValue
4.883

@<SCITEGIC>MOL_PROPERTY
Pdih
SciTegic.value.DoubleValue
13.712

@<SCITEGIC>MOL_PROPERTY
Idih
SciTegic.value.DoubleValue
0.000

@<SCITEGIC>MOL_PROPERTY
Tether
SciTegic.value.DoubleValue
0.000

@<TRIPOS>MOLECULE
guest-s17_vm2.mol2 : vm2 ligand conformer 53
          25          25           1
SMALL
USER_CHARGES
 
@<TRIPOS>ATOM
       1    C1      20.924369   19.541801   20.780360 C.3        1 MOL1        -0.1684
       2    H1      21.895932   19.865845   21.174436 H          1 MOL1         0.0833
       3    H2      21.034098   19.593353   19.688440 H          1 MOL1         0.0833
       4    C2      20.663931   18.064197   21.165762 C.3        1 MOL1        -0.1684
       5    H3      19.592787   17.828646   21.107849 H          1 MOL1         0.0833
       6    H4      21.139393   17.445133   20.392543 H          1 MOL1         0.0833
       7    C3      21.264270   17.620550   22.528883 C.3        1 MOL1        -0.1684
       8    H5      22.239938   18.093160   22.704944 H          1 MOL1         0.0833
       9    H6      21.473289   16.544904   22.448267 H          1 MOL1         0.0833
      10    C4      20.332942   17.805819   23.754761 C.3        1 MOL1        -0.1760
      11    H7      19.290135   17.639289   23.458470 H          1 MOL1         0.0833
      12    H8      20.556275   17.001224   24.467770 H          1 MOL1         0.0833
      13    C5      20.482052   19.137548   24.533282 C.3        1 MOL1         0.1219
      14    H9      21.449225   19.116529   25.055690 H          1 MOL1         0.0790
      15    C6      20.437766   20.434709   23.692867 C.3        1 MOL1        -0.1760
      16    H10     20.322552   21.285030   24.378259 H          1 MOL1         0.0833
      17    H11     21.416859   20.590624   23.227220 H          1 MOL1         0.0833
      18    C7      19.305069   20.488953   22.633018 C.3        1 MOL1        -0.1684
      19    H12     18.689130   21.379233   22.819433 H          1 MOL1         0.0833
      20    H13     18.617319   19.642759   22.742813 H          1 MOL1         0.0833
      21    C8      19.811736   20.549890   21.172109 C.3        1 MOL1        -0.1684
      22    H14     20.182359   21.563951   20.969298 H          1 MOL1         0.0833
      23    H15     18.951820   20.407002   20.503598 H          1 MOL1         0.0833
      24    O1      19.441864   19.199533   25.498957 O.3        1 MOL1        -0.5508
      25    H16     18.617618   19.356478   24.995174 H          1 MOL1         0.3780
@<TRIPOS>BOND
    1     1     2    1
    2     1     3    1
    3     1     4    1
    4     4     5    1
    5     4     6    1
    6     4     7    1
    7     7     8    1
    8     7     9    1
    9     7    10    1
   10    10    11    1
   11    10    12    1
   12    10    13    1
   13    13    14    1
   14    13    15    1
   15    15    16    1
   16    15    17    1
   17    15    18    1
   18    18    19    1
   19    18    20    1
   20     1    21    1
   21    18    21    1
   22    21    22    1
   23    21    23    1
   24    13    24    1
   25    24    25    1
@<TRIPOS>SUBSTRUCTURE
       1 MOL1            1 RESIDUE      1      MOL     
@<SCITEGIC>MOL_PROPERTY
VM2 Rank
SciTegic.value.IntegerValue
53

@<SCITEGIC>MOL_PROPERTY
Conf_Id
SciTegic.value.IntegerValue
976

@<SCITEGIC>MOL_PROPERTY
Probability
SciTegic.value.DoubleValue
0.27

@<SCITEGIC>MOL_PROPERTY
Sum Probability
SciTegic.value.DoubleValue
95.90

@<SCITEGIC>MOL_PROPERTY
Delta G
SciTegic.value.DoubleValue
1.726

@<SCITEGIC>MOL_PROPERTY
G
SciTegic.value.DoubleValue
63.802

@<SCITEGIC>MOL_PROPERTY
E
SciTegic.value.DoubleValue
31.489

@<SCITEGIC>MOL_PROPERTY
-TS
SciTegic.value.DoubleValue
32.313

@<SCITEGIC>MOL_PROPERTY
U+W
SciTegic.value.DoubleValue
10.921

@<SCITEGIC>MOL_PROPERTY
U
SciTegic.value.DoubleValue
12.433

@<SCITEGIC>MOL_PROPERTY
W
SciTegic.value.DoubleValue
-1.512

@<SCITEGIC>MOL_PROPERTY
W(PB)
SciTegic.value.DoubleValue
-3.669

@<SCITEGIC>MOL_PROPERTY
W(SA)
SciTegic.value.DoubleValue
2.157

@<SCITEGIC>MOL_PROPERTY
Valence
SciTegic.value.DoubleValue
19.007

@<SCITEGIC>MOL_PROPERTY
Coulomb
SciTegic.value.DoubleValue
-9.373

@<SCITEGIC>MOL_PROPERTY
VdW
SciTegic.value.DoubleValue
2.799

@<SCITEGIC>MOL_PROPERTY
VdW6
SciTegic.value.DoubleValue
-12.597

@<SCITEGIC>MOL_PROPERTY
VdW12
SciTegic.value.DoubleValue
15.396

@<SCITEGIC>MOL_PROPERTY
Bond
SciTegic.value.DoubleValue
0.425

@<SCITEGIC>MOL_PROPERTY
Angle
SciTegic.value.DoubleValue
4.784

@<SCITEGIC>MOL_PROPERTY
Pdih
SciTegic.value.DoubleValue
13.798

@<SCITEGIC>MOL_PROPERTY
Idih
SciTegic.value.DoubleValue
0.000

@<SCITEGIC>MOL_PROPERTY
Tether
SciTegic.value.DoubleValue
0.000

@<TRIPOS>MOLECULE
guest-s17_vm2.mol2 : vm2 ligand conformer 54
          25          25           1
SMALL
USER_CHARGES
 
@<TRIPOS>ATOM
       1    C1      19.660673   18.881504   21.120297 C.3        1 MOL1        -0.1684
       2    H1      18.877027   18.341790   21.660944 H          1 MOL1         0.0833
       3    H2      19.388193   18.742773   20.064796 H          1 MOL1         0.0833
       4    C2      21.039341   18.208739   21.338543 C.3        1 MOL1        -0.1684
       5    H3      21.138539   17.423617   20.576345 H          1 MOL1         0.0833
       6    H4      21.861397   18.905656   21.132316 H          1 MOL1         0.0833
       7    C3      21.226973   17.516528   22.713545 C.3        1 MOL1        -0.1684
       8    H5      22.124420   16.887879   22.634751 H          1 MOL1         0.0833
       9    H6      20.404462   16.810683   22.891120 H          1 MOL1         0.0833
      10    C4      21.426277   18.434022   23.955214 C.3        1 MOL1        -0.1760
      11    H7      21.756145   17.784505   24.776428 H          1 MOL1         0.0833
      12    H8      22.267239   19.117980   23.787664 H          1 MOL1         0.0833
      13    C5      20.195734   19.218532   24.486139 C.3        1 MOL1         0.1219
      14    H9      20.319995   19.296510   25.575932 H          1 MOL1         0.0790
      15    C6      20.055190   20.674239   23.977614 C.3        1 MOL1        -0.1760
      16    H10     19.023956   21.015712   24.138725 H          1 MOL1         0.0833
      17    H11     20.671594   21.301840   24.634353 H          1 MOL1         0.0833
      18    C7      20.480563   20.990470   22.520993 C.3        1 MOL1        -0.1684
      19    H12     21.533496   20.734599   22.359381 H          1 MOL1         0.0833
      20    H13     20.448067   22.083381   22.414549 H          1 MOL1         0.0833
      21    C8      19.588490   20.406915   21.396466 C.3        1 MOL1        -0.1684
      22    H14     18.542601   20.694190   21.570450 H          1 MOL1         0.0833
      23    H15     19.878903   20.916797   20.467513 H          1 MOL1         0.0833
      24    O1      18.990758   18.512050   24.251188 O.3        1 MOL1        -0.5508
      25    H16     18.931055   18.468596   23.278541 H          1 MOL1         0.3780
@<TRIPOS>BOND
    1     1     2    1
    2     1     3    1
    3     1     4    1
    4     4     5    1
    5     4     6    1
    6     4     7    1
    7     7     8    1
    8     7     9    1
    9     7    10    1
   10    10    11    1
   11    10    12    1
   12    10    13    1
   13    13    14    1
   14    13    15    1
   15    15    16    1
   16    15    17    1
   17    15    18    1
   18    18    19    1
   19    18    20    1
   20     1    21    1
   21    18    21    1
   22    21    22    1
   23    21    23    1
   24    13    24    1
   25    24    25    1
@<TRIPOS>SUBSTRUCTURE
       1 MOL1            1 RESIDUE      1      MOL     
@<SCITEGIC>MOL_PROPERTY
VM2 Rank
SciTegic.value.IntegerValue
54

@<SCITEGIC>MOL_PROPERTY
Conf_Id
SciTegic.value.IntegerValue
267

@<SCITEGIC>MOL_PROPERTY
Probability
SciTegic.value.DoubleValue
0.20

@<SCITEGIC>MOL_PROPERTY
Sum Probability
SciTegic.value.DoubleValue
96.11

@<SCITEGIC>MOL_PROPERTY
Delta G
SciTegic.value.DoubleValue
1.896

@<SCITEGIC>MOL_PROPERTY
G
SciTegic.value.DoubleValue
63.971

@<SCITEGIC>MOL_PROPERTY
E
SciTegic.value.DoubleValue
31.774

@<SCITEGIC>MOL_PROPERTY
-TS
SciTegic.value.DoubleValue
32.197

@<SCITEGIC>MOL_PROPERTY
U+W
SciTegic.value.DoubleValue
11.207

@<SCITEGIC>MOL_PROPERTY
U
SciTegic.value.DoubleValue
12.093

@<SCITEGIC>MOL_PROPERTY
W
SciTegic.value.DoubleValue
-0.886

@<SCITEGIC>MOL_PROPERTY
W(PB)
SciTegic.value.DoubleValue
-2.996

@<SCITEGIC>MOL_PROPERTY
W(SA)
SciTegic.value.DoubleValue
2.110

@<SCITEGIC>MOL_PROPERTY
Valence
SciTegic.value.DoubleValue
19.645

@<SCITEGIC>MOL_PROPERTY
Coulomb
SciTegic.value.DoubleValue
-9.929

@<SCITEGIC>MOL_PROPERTY
VdW
SciTegic.value.DoubleValue
2.377

@<SCITEGIC>MOL_PROPERTY
VdW6
SciTegic.value.DoubleValue
-13.908

@<SCITEGIC>MOL_PROPERTY
VdW12
SciTegic.value.DoubleValue
16.285

@<SCITEGIC>MOL_PROPERTY
Bond
SciTegic.value.DoubleValue
0.498

@<SCITEGIC>MOL_PROPERTY
Angle
SciTegic.value.DoubleValue
8.148

@<SCITEGIC>MOL_PROPERTY
Pdih
SciTegic.value.DoubleValue
11.000

@<SCITEGIC>MOL_PROPERTY
Idih
SciTegic.value.DoubleValue
0.000

@<SCITEGIC>MOL_PROPERTY
Tether
SciTegic.value.DoubleValue
0.000

@<TRIPOS>MOLECULE
guest-s17_vm2.mol2 : vm2 ligand conformer 55
          25          25           1
SMALL
USER_CHARGES
 
@<TRIPOS>ATOM
       1    C1      20.869102   19.438353   20.600463 C.3        1 MOL1        -0.1684
       2    H1      20.554375   18.920378   19.684218 H          1 MOL1         0.0833
       3    H2      21.668433   20.126224   20.292769 H          1 MOL1         0.0833
       4    C2      21.474570   18.394783   21.571261 C.3        1 MOL1        -0.1684
       5    H3      22.130133   17.732221   20.989781 H          1 MOL1         0.0833
       6    H4      22.145102   18.895818   22.279008 H          1 MOL1         0.0833
       7    C3      20.426962   17.526943   22.313669 C.3        1 MOL1        -0.1684
       8    H5      20.646579   16.467839   22.121960 H          1 MOL1         0.0833
       9    H6      19.423257   17.683372   21.901671 H          1 MOL1         0.0833
      10    C4      20.401169   17.741892   23.848168 C.3        1 MOL1        -0.1760
      11    H7      19.515318   17.235831   24.254281 H          1 MOL1         0.0833
      12    H8      21.267915   17.229187   24.285263 H          1 MOL1         0.0833
      13    C5      20.420163   19.207511   24.349940 C.3        1 MOL1         0.1219
      14    H9      21.413804   19.638703   24.169004 H          1 MOL1         0.0790
      15    C6      19.355410   20.134146   23.713585 C.3        1 MOL1        -0.1760
      16    H10     18.453575   19.561858   23.461136 H          1 MOL1         0.0833
      17    H11     19.035457   20.858972   24.474013 H          1 MOL1         0.0833
      18    C7      19.849664   20.957820   22.490872 C.3        1 MOL1        -0.1684
      19    H12     20.889635   21.284574   22.625460 H          1 MOL1         0.0833
      20    H13     19.254972   21.881410   22.467184 H          1 MOL1         0.0833
      21    C8      19.663673   20.268582   21.116403 C.3        1 MOL1        -0.1684
      22    H14     18.750288   19.660293   21.122734 H          1 MOL1         0.0833
      23    H15     19.472206   21.051504   20.369784 H          1 MOL1         0.0833
      24    O1      20.203285   19.172971   25.755638 O.3        1 MOL1        -0.5508
      25    H16     20.296119   20.093679   26.078333 H          1 MOL1         0.3780
@<TRIPOS>BOND
    1     1     2    1
    2     1     3    1
    3     1     4    1
    4     4     5    1
    5     4     6    1
    6     4     7    1
    7     7     8    1
    8     7     9    1
    9     7    10    1
   10    10    11    1
   11    10    12    1
   12    10    13    1
   13    13    14    1
   14    13    15    1
   15    15    16    1
   16    15    17    1
   17    15    18    1
   18    18    19    1
   19    18    20    1
   20     1    21    1
   21    18    21    1
   22    21    22    1
   23    21    23    1
   24    13    24    1
   25    24    25    1
@<TRIPOS>SUBSTRUCTURE
       1 MOL1            1 RESIDUE      1      MOL     
@<SCITEGIC>MOL_PROPERTY
VM2 Rank
SciTegic.value.IntegerValue
55

@<SCITEGIC>MOL_PROPERTY
Conf_Id
SciTegic.value.IntegerValue
1173

@<SCITEGIC>MOL_PROPERTY
Probability
SciTegic.value.DoubleValue
0.20

@<SCITEGIC>MOL_PROPERTY
Sum Probability
SciTegic.value.DoubleValue
96.30

@<SCITEGIC>MOL_PROPERTY
Delta G
SciTegic.value.DoubleValue
1.907

@<SCITEGIC>MOL_PROPERTY
G
SciTegic.value.DoubleValue
63.982

@<SCITEGIC>MOL_PROPERTY
E
SciTegic.value.DoubleValue
31.698

@<SCITEGIC>MOL_PROPERTY
-TS
SciTegic.value.DoubleValue
32.284

@<SCITEGIC>MOL_PROPERTY
U+W
SciTegic.value.DoubleValue
11.131

@<SCITEGIC>MOL_PROPERTY
U
SciTegic.value.DoubleValue
13.296

@<SCITEGIC>MOL_PROPERTY
W
SciTegic.value.DoubleValue
-2.166

@<SCITEGIC>MOL_PROPERTY
W(PB)
SciTegic.value.DoubleValue
-4.311

@<SCITEGIC>MOL_PROPERTY
W(SA)
SciTegic.value.DoubleValue
2.146

@<SCITEGIC>MOL_PROPERTY
Valence
SciTegic.value.DoubleValue
18.607

@<SCITEGIC>MOL_PROPERTY
Coulomb
SciTegic.value.DoubleValue
-8.339

@<SCITEGIC>MOL_PROPERTY
VdW
SciTegic.value.DoubleValue
3.028

@<SCITEGIC>MOL_PROPERTY
VdW6
SciTegic.value.DoubleValue
-12.271

@<SCITEGIC>MOL_PROPERTY
VdW12
SciTegic.value.DoubleValue
15.299

@<SCITEGIC>MOL_PROPERTY
Bond
SciTegic.value.DoubleValue
0.423

@<SCITEGIC>MOL_PROPERTY
Angle
SciTegic.value.DoubleValue
4.488

@<SCITEGIC>MOL_PROPERTY
Pdih
SciTegic.value.DoubleValue
13.696

@<SCITEGIC>MOL_PROPERTY
Idih
SciTegic.value.DoubleValue
0.000

@<SCITEGIC>MOL_PROPERTY
Tether
SciTegic.value.DoubleValue
0.000

@<TRIPOS>MOLECULE
guest-s17_vm2.mol2 : vm2 ligand conformer 56
          25          25           1
SMALL
USER_CHARGES
 
@<TRIPOS>ATOM
       1    C1      20.865418   19.436334   20.597445 C.3        1 MOL1        -0.1684
       2    H1      20.547535   18.914899   19.684260 H          1 MOL1         0.0833
       3    H2      21.663851   20.122979   20.284717 H          1 MOL1         0.0833
       4    C2      21.473509   18.397162   21.571028 C.3        1 MOL1        -0.1684
       5    H3      22.131640   17.734886   20.992122 H          1 MOL1         0.0833
       6    H4      22.141431   18.902680   22.278074 H          1 MOL1         0.0833
       7    C3      20.426913   17.529047   22.314367 C.3        1 MOL1        -0.1684
       8    H5      20.644436   16.470085   22.119357 H          1 MOL1         0.0833
       9    H6      19.422128   17.687622   21.905812 H          1 MOL1         0.0833
      10    C4      20.405642   17.741122   23.848988 C.3        1 MOL1        -0.1760
      11    H7      19.520812   17.232148   24.254249 H          1 MOL1         0.0833
      12    H8      21.275026   17.226765   24.278787 H          1 MOL1         0.0833
      13    C5      20.421557   19.206878   24.352243 C.3        1 MOL1         0.1219
      14    H9      21.414316   19.642286   24.176341 H          1 MOL1         0.0790
      15    C6      19.359549   20.135222   23.714224 C.3        1 MOL1        -0.1760
      16    H10     18.453319   19.567649   23.467773 H          1 MOL1         0.0833
      17    H11     19.050084   20.861319   24.478257 H          1 MOL1         0.0833
      18    C7      19.852713   20.957128   22.489555 C.3        1 MOL1        -0.1684
      19    H12     20.893585   21.281593   22.622466 H          1 MOL1         0.0833
      20    H13     19.260102   21.882044   22.467533 H          1 MOL1         0.0833
      21    C8      19.662279   20.268568   21.115363 C.3        1 MOL1        -0.1684
      22    H14     18.747949   19.661732   21.124142 H          1 MOL1         0.0833
      23    H15     19.470369   21.051709   20.369098 H          1 MOL1         0.0833
      24    O1      20.196420   19.171541   25.756787 O.3        1 MOL1        -0.5508
      25    H16     20.908458   18.620337   26.143551 H          1 MOL1         0.3780
@<TRIPOS>BOND
    1     1     2    1
    2     1     3    1
    3     1     4    1
    4     4     5    1
    5     4     6    1
    6     4     7    1
    7     7     8    1
    8     7     9    1
    9     7    10    1
   10    10    11    1
   11    10    12    1
   12    10    13    1
   13    13    14    1
   14    13    15    1
   15    15    16    1
   16    15    17    1
   17    15    18    1
   18    18    19    1
   19    18    20    1
   20     1    21    1
   21    18    21    1
   22    21    22    1
   23    21    23    1
   24    13    24    1
   25    24    25    1
@<TRIPOS>SUBSTRUCTURE
       1 MOL1            1 RESIDUE      1      MOL     
@<SCITEGIC>MOL_PROPERTY
VM2 Rank
SciTegic.value.IntegerValue
56

@<SCITEGIC>MOL_PROPERTY
Conf_Id
SciTegic.value.IntegerValue
676

@<SCITEGIC>MOL_PROPERTY
Probability
SciTegic.value.DoubleValue
0.19

@<SCITEGIC>MOL_PROPERTY
Sum Probability
SciTegic.value.DoubleValue
96.50

@<SCITEGIC>MOL_PROPERTY
Delta G
SciTegic.value.DoubleValue
1.921

@<SCITEGIC>MOL_PROPERTY
G
SciTegic.value.DoubleValue
63.996

@<SCITEGIC>MOL_PROPERTY
E
SciTegic.value.DoubleValue
31.721

@<SCITEGIC>MOL_PROPERTY
-TS
SciTegic.value.DoubleValue
32.276

@<SCITEGIC>MOL_PROPERTY
U+W
SciTegic.value.DoubleValue
11.153

@<SCITEGIC>MOL_PROPERTY
U
SciTegic.value.DoubleValue
13.313

@<SCITEGIC>MOL_PROPERTY
W
SciTegic.value.DoubleValue
-2.160

@<SCITEGIC>MOL_PROPERTY
W(PB)
SciTegic.value.DoubleValue
-4.301

@<SCITEGIC>MOL_PROPERTY
W(SA)
SciTegic.value.DoubleValue
2.141

@<SCITEGIC>MOL_PROPERTY
Valence
SciTegic.value.DoubleValue
18.589

@<SCITEGIC>MOL_PROPERTY
Coulomb
SciTegic.value.DoubleValue
-8.331

@<SCITEGIC>MOL_PROPERTY
VdW
SciTegic.value.DoubleValue
3.055

@<SCITEGIC>MOL_PROPERTY
VdW6
SciTegic.value.DoubleValue
-12.273

@<SCITEGIC>MOL_PROPERTY
VdW12
SciTegic.value.DoubleValue
15.328

@<SCITEGIC>MOL_PROPERTY
Bond
SciTegic.value.DoubleValue
0.425

@<SCITEGIC>MOL_PROPERTY
Angle
SciTegic.value.DoubleValue
4.505

@<SCITEGIC>MOL_PROPERTY
Pdih
SciTegic.value.DoubleValue
13.659

@<SCITEGIC>MOL_PROPERTY
Idih
SciTegic.value.DoubleValue
0.000

@<SCITEGIC>MOL_PROPERTY
Tether
SciTegic.value.DoubleValue
0.000

@<TRIPOS>MOLECULE
guest-s17_vm2.mol2 : vm2 ligand conformer 57
          25          25           1
SMALL
USER_CHARGES
 
@<TRIPOS>ATOM
       1    C1      20.862448   19.421107   20.595210 C.3        1 MOL1        -0.1684
       2    H1      20.269482   19.563202   19.681400 H          1 MOL1         0.0833
       3    H2      21.912949   19.488419   20.281058 H          1 MOL1         0.0833
       4    C2      20.587897   17.988321   21.124490 C.3        1 MOL1        -0.1684
       5    H3      19.510393   17.780518   21.135879 H          1 MOL1         0.0833
       6    H4      20.999140   17.289415   20.383235 H          1 MOL1         0.0833
       7    C3      21.207572   17.641257   22.500835 C.3        1 MOL1        -0.1684
       8    H5      22.177570   18.140294   22.628991 H          1 MOL1         0.0833
       9    H6      21.433043   16.566031   22.486923 H          1 MOL1         0.0833
      10    C4      20.280898   17.891398   23.724459 C.3        1 MOL1        -0.1760
      11    H7      19.236470   17.659188   23.480783 H          1 MOL1         0.0833
      12    H8      20.569778   17.162542   24.493907 H          1 MOL1         0.0833
      13    C5      20.388366   19.302815   24.351437 C.3        1 MOL1         0.1219
      14    H9      21.401510   19.686624   24.171652 H          1 MOL1         0.0790
      15    C6      19.349293   20.333279   23.841109 C.3        1 MOL1        -0.1760
      16    H10     18.361779   20.079354   24.249216 H          1 MOL1         0.0833
      17    H11     19.609324   21.312772   24.263126 H          1 MOL1         0.0833
      18    C7      19.214480   20.487619   22.305368 C.3        1 MOL1        -0.1684
      19    H12     18.608480   19.667218   21.903670 H          1 MOL1         0.0833
      20    H13     18.627348   21.393944   22.103883 H          1 MOL1         0.0833
      21    C8      20.568785   20.596070   21.559959 C.3        1 MOL1        -0.1684
      22    H14     20.573589   21.525202   20.973813 H          1 MOL1         0.0833
      23    H15     21.400138   20.709058   22.265415 H          1 MOL1         0.0833
      24    O1      20.204261   19.181134   25.757132 O.3        1 MOL1        -0.5508
      25    H16     20.326263   20.076304   26.136866 H          1 MOL1         0.3780
@<TRIPOS>BOND
    1     1     2    1
    2     1     3    1
    3     1     4    1
    4     4     5    1
    5     4     6    1
    6     4     7    1
    7     7     8    1
    8     7     9    1
    9     7    10    1
   10    10    11    1
   11    10    12    1
   12    10    13    1
   13    13    14    1
   14    13    15    1
   15    15    16    1
   16    15    17    1
   17    15    18    1
   18    18    19    1
   19    18    20    1
   20     1    21    1
   21    18    21    1
   22    21    22    1
   23    21    23    1
   24    13    24    1
   25    24    25    1
@<TRIPOS>SUBSTRUCTURE
       1 MOL1            1 RESIDUE      1      MOL     
@<SCITEGIC>MOL_PROPERTY
VM2 Rank
SciTegic.value.IntegerValue
57

@<SCITEGIC>MOL_PROPERTY
Conf_Id
SciTegic.value.IntegerValue
1031

@<SCITEGIC>MOL_PROPERTY
Probability
SciTegic.value.DoubleValue
0.19

@<SCITEGIC>MOL_PROPERTY
Sum Probability
SciTegic.value.DoubleValue
96.68

@<SCITEGIC>MOL_PROPERTY
Delta G
SciTegic.value.DoubleValue
1.939

@<SCITEGIC>MOL_PROPERTY
G
SciTegic.value.DoubleValue
64.015

@<SCITEGIC>MOL_PROPERTY
E
SciTegic.value.DoubleValue
31.739

@<SCITEGIC>MOL_PROPERTY
-TS
SciTegic.value.DoubleValue
32.275

@<SCITEGIC>MOL_PROPERTY
U+W
SciTegic.value.DoubleValue
11.172

@<SCITEGIC>MOL_PROPERTY
U
SciTegic.value.DoubleValue
13.313

@<SCITEGIC>MOL_PROPERTY
W
SciTegic.value.DoubleValue
-2.141

@<SCITEGIC>MOL_PROPERTY
W(PB)
SciTegic.value.DoubleValue
-4.307

@<SCITEGIC>MOL_PROPERTY
W(SA)
SciTegic.value.DoubleValue
2.165

@<SCITEGIC>MOL_PROPERTY
Valence
SciTegic.value.DoubleValue
18.589

@<SCITEGIC>MOL_PROPERTY
Coulomb
SciTegic.value.DoubleValue
-8.331

@<SCITEGIC>MOL_PROPERTY
VdW
SciTegic.value.DoubleValue
3.055

@<SCITEGIC>MOL_PROPERTY
VdW6
SciTegic.value.DoubleValue
-12.273

@<SCITEGIC>MOL_PROPERTY
VdW12
SciTegic.value.DoubleValue
15.327

@<SCITEGIC>MOL_PROPERTY
Bond
SciTegic.value.DoubleValue
0.425

@<SCITEGIC>MOL_PROPERTY
Angle
SciTegic.value.DoubleValue
4.506

@<SCITEGIC>MOL_PROPERTY
Pdih
SciTegic.value.DoubleValue
13.659

@<SCITEGIC>MOL_PROPERTY
Idih
SciTegic.value.DoubleValue
0.000

@<SCITEGIC>MOL_PROPERTY
Tether
SciTegic.value.DoubleValue
0.000

@<TRIPOS>MOLECULE
guest-s17_vm2.mol2 : vm2 ligand conformer 58
          25          25           1
SMALL
USER_CHARGES
 
@<TRIPOS>ATOM
       1    C1      19.985543   19.156488   20.853440 C.3        1 MOL1        -0.1684
       2    H1      19.837788   19.267020   19.770528 H          1 MOL1         0.0833
       3    H2      18.982367   18.967848   21.253027 H          1 MOL1         0.0833
       4    C2      20.880666   17.915709   21.091254 C.3        1 MOL1        -0.1684
       5    H3      20.301275   17.019676   20.829989 H          1 MOL1         0.0833
       6    H4      21.718545   17.945788   20.381374 H          1 MOL1         0.0833
       7    C3      21.464971   17.736283   22.517564 C.3        1 MOL1        -0.1684
       8    H5      22.306518   18.422426   22.677798 H          1 MOL1         0.0833
       9    H6      21.910035   16.732611   22.558381 H          1 MOL1         0.0833
      10    C4      20.451673   17.859791   23.684555 C.3        1 MOL1        -0.1760
      11    H7      19.466454   17.484468   23.379780 H          1 MOL1         0.0833
      12    H8      20.792606   17.172918   24.470646 H          1 MOL1         0.0833
      13    C5      20.336165   19.279837   24.306223 C.3        1 MOL1         0.1219
      14    H9      21.304541   19.794738   24.232281 H          1 MOL1         0.0790
      15    C6      19.240870   20.172455   23.672239 C.3        1 MOL1        -0.1760
      16    H10     18.409733   19.547229   23.325387 H          1 MOL1         0.0833
      17    H11     18.806074   20.807441   24.456034 H          1 MOL1         0.0833
      18    C7      19.717089   21.119255   22.537095 C.3        1 MOL1        -0.1684
      19    H12     20.294702   21.942107   22.979989 H          1 MOL1         0.0833
      20    H13     18.830204   21.585415   22.086618 H          1 MOL1         0.0833
      21    C8      20.567273   20.479518   21.412281 C.3        1 MOL1        -0.1684
      22    H14     20.646186   21.204219   20.590455 H          1 MOL1         0.0833
      23    H15     21.597122   20.339998   21.761176 H          1 MOL1         0.0833
      24    O1      20.019750   19.123664   25.685349 O.3        1 MOL1        -0.5508
      25    H16     20.760551   18.626248   26.090539 H          1 MOL1         0.3780
@<TRIPOS>BOND
    1     1     2    1
    2     1     3    1
    3     1     4    1
    4     4     5    1
    5     4     6    1
    6     4     7    1
    7     7     8    1
    8     7     9    1
    9     7    10    1
   10    10    11    1
   11    10    12    1
   12    10    13    1
   13    13    14    1
   14    13    15    1
   15    15    16    1
   16    15    17    1
   17    15    18    1
   18    18    19    1
   19    18    20    1
   20     1    21    1
   21    18    21    1
   22    21    22    1
   23    21    23    1
   24    13    24    1
   25    24    25    1
@<TRIPOS>SUBSTRUCTURE
       1 MOL1            1 RESIDUE      1      MOL     
@<SCITEGIC>MOL_PROPERTY
VM2 Rank
SciTegic.value.IntegerValue
58

@<SCITEGIC>MOL_PROPERTY
Conf_Id
SciTegic.value.IntegerValue
943

@<SCITEGIC>MOL_PROPERTY
Probability
SciTegic.value.DoubleValue
0.18

@<SCITEGIC>MOL_PROPERTY
Sum Probability
SciTegic.value.DoubleValue
96.87

@<SCITEGIC>MOL_PROPERTY
Delta G
SciTegic.value.DoubleValue
1.947

@<SCITEGIC>MOL_PROPERTY
G
SciTegic.value.DoubleValue
64.022

@<SCITEGIC>MOL_PROPERTY
E
SciTegic.value.DoubleValue
31.664

@<SCITEGIC>MOL_PROPERTY
-TS
SciTegic.value.DoubleValue
32.358

@<SCITEGIC>MOL_PROPERTY
U+W
SciTegic.value.DoubleValue
11.096

@<SCITEGIC>MOL_PROPERTY
U
SciTegic.value.DoubleValue
13.320

@<SCITEGIC>MOL_PROPERTY
W
SciTegic.value.DoubleValue
-2.223

@<SCITEGIC>MOL_PROPERTY
W(PB)
SciTegic.value.DoubleValue
-4.382

@<SCITEGIC>MOL_PROPERTY
W(SA)
SciTegic.value.DoubleValue
2.158

@<SCITEGIC>MOL_PROPERTY
Valence
SciTegic.value.DoubleValue
18.430

@<SCITEGIC>MOL_PROPERTY
Coulomb
SciTegic.value.DoubleValue
-8.418

@<SCITEGIC>MOL_PROPERTY
VdW
SciTegic.value.DoubleValue
3.308

@<SCITEGIC>MOL_PROPERTY
VdW6
SciTegic.value.DoubleValue
-12.374

@<SCITEGIC>MOL_PROPERTY
VdW12
SciTegic.value.DoubleValue
15.682

@<SCITEGIC>MOL_PROPERTY
Bond
SciTegic.value.DoubleValue
0.451

@<SCITEGIC>MOL_PROPERTY
Angle
SciTegic.value.DoubleValue
4.194

@<SCITEGIC>MOL_PROPERTY
Pdih
SciTegic.value.DoubleValue
13.785

@<SCITEGIC>MOL_PROPERTY
Idih
SciTegic.value.DoubleValue
0.000

@<SCITEGIC>MOL_PROPERTY
Tether
SciTegic.value.DoubleValue
0.000

@<TRIPOS>MOLECULE
guest-s17_vm2.mol2 : vm2 ligand conformer 59
          25          25           1
SMALL
USER_CHARGES
 
@<TRIPOS>ATOM
       1    C1      20.045306   19.015631   20.851880 C.3        1 MOL1        -0.1684
       2    H1      19.195081   18.447858   21.247171 H          1 MOL1         0.0833
       3    H2      20.022689   18.832328   19.768993 H          1 MOL1         0.0833
       4    C2      21.384459   18.478882   21.417583 C.3        1 MOL1        -0.1684
       5    H3      21.950905   18.013812   20.599243 H          1 MOL1         0.0833
       6    H4      22.021461   19.300053   21.766410 H          1 MOL1         0.0833
       7    C3      21.219803   17.429913   22.544486 C.3        1 MOL1        -0.1684
       8    H5      22.206548   17.245550   22.990832 H          1 MOL1         0.0833
       9    H6      20.912334   16.475860   22.094886 H          1 MOL1         0.0833
      10    C4      20.212997   17.777892   23.674208 C.3        1 MOL1        -0.1760
      11    H7      19.183263   17.650685   23.319584 H          1 MOL1         0.0833
      12    H8      20.334925   17.015371   24.454986 H          1 MOL1         0.0833
      13    C5      20.375589   19.182816   24.305928 C.3        1 MOL1         0.1219
      14    H9      21.427301   19.493632   24.230874 H          1 MOL1         0.0790
      15    C6      19.468111   20.279607   23.682800 C.3        1 MOL1        -0.1760
      16    H10     18.496675   19.864373   23.386330 H          1 MOL1         0.0833
      17    H11     19.243803   21.010185   24.471877 H          1 MOL1         0.0833
      18    C7      20.104436   21.071074   22.511003 C.3        1 MOL1        -0.1684
      19    H12     21.185608   21.171240   22.671132 H          1 MOL1         0.0833
      20    H13     19.719515   22.099420   22.547842 H          1 MOL1         0.0833
      21    C8      19.813000   20.528384   21.086675 C.3        1 MOL1        -0.1684
      22    H14     18.771480   20.760053   20.825174 H          1 MOL1         0.0833
      23    H15     20.430924   21.092744   20.374964 H          1 MOL1         0.0833
      24    O1      20.040299   19.078801   25.685437 O.3        1 MOL1        -0.5508
      25    H16     20.670657   18.441422   26.081461 H          1 MOL1         0.3780
@<TRIPOS>BOND
    1     1     2    1
    2     1     3    1
    3     1     4    1
    4     4     5    1
    5     4     6    1
    6     4     7    1
    7     7     8    1
    8     7     9    1
    9     7    10    1
   10    10    11    1
   11    10    12    1
   12    10    13    1
   13    13    14    1
   14    13    15    1
   15    15    16    1
   16    15    17    1
   17    15    18    1
   18    18    19    1
   19    18    20    1
   20     1    21    1
   21    18    21    1
   22    21    22    1
   23    21    23    1
   24    13    24    1
   25    24    25    1
@<TRIPOS>SUBSTRUCTURE
       1 MOL1            1 RESIDUE      1      MOL     
@<SCITEGIC>MOL_PROPERTY
VM2 Rank
SciTegic.value.IntegerValue
59

@<SCITEGIC>MOL_PROPERTY
Conf_Id
SciTegic.value.IntegerValue
795

@<SCITEGIC>MOL_PROPERTY
Probability
SciTegic.value.DoubleValue
0.18

@<SCITEGIC>MOL_PROPERTY
Sum Probability
SciTegic.value.DoubleValue
97.05

@<SCITEGIC>MOL_PROPERTY
Delta G
SciTegic.value.DoubleValue
1.950

@<SCITEGIC>MOL_PROPERTY
G
SciTegic.value.DoubleValue
64.025

@<SCITEGIC>MOL_PROPERTY
E
SciTegic.value.DoubleValue
31.663

@<SCITEGIC>MOL_PROPERTY
-TS
SciTegic.value.DoubleValue
32.362

@<SCITEGIC>MOL_PROPERTY
U+W
SciTegic.value.DoubleValue
11.096

@<SCITEGIC>MOL_PROPERTY
U
SciTegic.value.DoubleValue
13.287

@<SCITEGIC>MOL_PROPERTY
W
SciTegic.value.DoubleValue
-2.191

@<SCITEGIC>MOL_PROPERTY
W(PB)
SciTegic.value.DoubleValue
-4.342

@<SCITEGIC>MOL_PROPERTY
W(SA)
SciTegic.value.DoubleValue
2.151

@<SCITEGIC>MOL_PROPERTY
Valence
SciTegic.value.DoubleValue
18.429

@<SCITEGIC>MOL_PROPERTY
Coulomb
SciTegic.value.DoubleValue
-8.446

@<SCITEGIC>MOL_PROPERTY
VdW
SciTegic.value.DoubleValue
3.304

@<SCITEGIC>MOL_PROPERTY
VdW6
SciTegic.value.DoubleValue
-12.366

@<SCITEGIC>MOL_PROPERTY
VdW12
SciTegic.value.DoubleValue
15.671

@<SCITEGIC>MOL_PROPERTY
Bond
SciTegic.value.DoubleValue
0.449

@<SCITEGIC>MOL_PROPERTY
Angle
SciTegic.value.DoubleValue
4.240

@<SCITEGIC>MOL_PROPERTY
Pdih
SciTegic.value.DoubleValue
13.740

@<SCITEGIC>MOL_PROPERTY
Idih
SciTegic.value.DoubleValue
0.000

@<SCITEGIC>MOL_PROPERTY
Tether
SciTegic.value.DoubleValue
0.000

@<TRIPOS>MOLECULE
guest-s17_vm2.mol2 : vm2 ligand conformer 60
          25          25           1
SMALL
USER_CHARGES
 
@<TRIPOS>ATOM
       1    C1      19.987639   19.158931   20.851527 C.3        1 MOL1        -0.1684
       2    H1      18.982079   18.972124   21.245806 H          1 MOL1         0.0833
       3    H2      19.845064   19.271049   19.768079 H          1 MOL1         0.0833
       4    C2      20.878172   17.915175   21.091391 C.3        1 MOL1        -0.1684
       5    H3      20.295432   17.020895   20.831598 H          1 MOL1         0.0833
       6    H4      21.715682   17.941166   20.380922 H          1 MOL1         0.0833
       7    C3      21.463619   17.734812   22.517184 C.3        1 MOL1        -0.1684
       8    H5      22.306794   18.419097   22.676602 H          1 MOL1         0.0833
       9    H6      21.906754   16.730318   22.557692 H          1 MOL1         0.0833
      10    C4      20.453551   17.859843   23.687047 C.3        1 MOL1        -0.1760
      11    H7      19.468945   17.477178   23.390196 H          1 MOL1         0.0833
      12    H8      20.802378   17.182849   24.478690 H          1 MOL1         0.0833
      13    C5      20.335348   19.280401   24.305755 C.3        1 MOL1         0.1219
      14    H9      21.304981   19.792756   24.230629 H          1 MOL1         0.0790
      15    C6      19.238269   20.169885   23.669708 C.3        1 MOL1        -0.1760
      16    H10     18.413320   19.540262   23.315693 H          1 MOL1         0.0833
      17    H11     18.791461   20.802867   24.447922 H          1 MOL1         0.0833
      18    C7      19.717044   21.118976   22.537887 C.3        1 MOL1        -0.1684
      19    H12     20.293339   21.941730   22.982679 H          1 MOL1         0.0833
      20    H13     18.831119   21.585206   22.085494 H          1 MOL1         0.0833
      21    C8      20.569629   20.480329   21.414239 C.3        1 MOL1        -0.1684
      22    H14     20.651166   21.206399   20.593871 H          1 MOL1         0.0833
      23    H15     21.598554   20.339065   21.765140 H          1 MOL1         0.0833
      24    O1      20.020730   19.124648   25.685262 O.3        1 MOL1        -0.5508
      25    H16     20.025556   20.022267   26.078578 H          1 MOL1         0.3780
@<TRIPOS>BOND
    1     1     2    1
    2     1     3    1
    3     1     4    1
    4     4     5    1
    5     4     6    1
    6     4     7    1
    7     7     8    1
    8     7     9    1
    9     7    10    1
   10    10    11    1
   11    10    12    1
   12    10    13    1
   13    13    14    1
   14    13    15    1
   15    15    16    1
   16    15    17    1
   17    15    18    1
   18    18    19    1
   19    18    20    1
   20     1    21    1
   21    18    21    1
   22    21    22    1
   23    21    23    1
   24    13    24    1
   25    24    25    1
@<TRIPOS>SUBSTRUCTURE
       1 MOL1            1 RESIDUE      1      MOL     
@<SCITEGIC>MOL_PROPERTY
VM2 Rank
SciTegic.value.IntegerValue
60

@<SCITEGIC>MOL_PROPERTY
Conf_Id
SciTegic.value.IntegerValue
1169

@<SCITEGIC>MOL_PROPERTY
Probability
SciTegic.value.DoubleValue
0.18

@<SCITEGIC>MOL_PROPERTY
Sum Probability
SciTegic.value.DoubleValue
97.23

@<SCITEGIC>MOL_PROPERTY
Delta G
SciTegic.value.DoubleValue
1.963

@<SCITEGIC>MOL_PROPERTY
G
SciTegic.value.DoubleValue
64.039

@<SCITEGIC>MOL_PROPERTY
E
SciTegic.value.DoubleValue
31.677

@<SCITEGIC>MOL_PROPERTY
-TS
SciTegic.value.DoubleValue
32.362

@<SCITEGIC>MOL_PROPERTY
U+W
SciTegic.value.DoubleValue
11.109

@<SCITEGIC>MOL_PROPERTY
U
SciTegic.value.DoubleValue
13.287

@<SCITEGIC>MOL_PROPERTY
W
SciTegic.value.DoubleValue
-2.178

@<SCITEGIC>MOL_PROPERTY
W(PB)
SciTegic.value.DoubleValue
-4.334

@<SCITEGIC>MOL_PROPERTY
W(SA)
SciTegic.value.DoubleValue
2.156

@<SCITEGIC>MOL_PROPERTY
Valence
SciTegic.value.DoubleValue
18.429

@<SCITEGIC>MOL_PROPERTY
Coulomb
SciTegic.value.DoubleValue
-8.446

@<SCITEGIC>MOL_PROPERTY
VdW
SciTegic.value.DoubleValue
3.304

@<SCITEGIC>MOL_PROPERTY
VdW6
SciTegic.value.DoubleValue
-12.366

@<SCITEGIC>MOL_PROPERTY
VdW12
SciTegic.value.DoubleValue
15.671

@<SCITEGIC>MOL_PROPERTY
Bond
SciTegic.value.DoubleValue
0.449

@<SCITEGIC>MOL_PROPERTY
Angle
SciTegic.value.DoubleValue
4.240

@<SCITEGIC>MOL_PROPERTY
Pdih
SciTegic.value.DoubleValue
13.740

@<SCITEGIC>MOL_PROPERTY
Idih
SciTegic.value.DoubleValue
0.000

@<SCITEGIC>MOL_PROPERTY
Tether
SciTegic.value.DoubleValue
0.000

@<TRIPOS>MOLECULE
guest-s17_vm2.mol2 : vm2 ligand conformer 61
          25          25           1
SMALL
USER_CHARGES
 
@<TRIPOS>ATOM
       1    C1      20.866401   19.422243   20.598194 C.3        1 MOL1        -0.1684
       2    H1      20.278069   19.563977   19.681334 H          1 MOL1         0.0833
       3    H2      21.918391   19.489432   20.289042 H          1 MOL1         0.0833
       4    C2      20.588945   17.989255   21.125547 C.3        1 MOL1        -0.1684
       5    H3      19.511112   17.783032   21.134478 H          1 MOL1         0.0833
       6    H4      21.000412   17.290831   20.383950 H          1 MOL1         0.0833
       7    C3      21.205956   17.638671   22.502206 C.3        1 MOL1        -0.1684
       8    H5      22.176894   18.135508   22.632031 H          1 MOL1         0.0833
       9    H6      21.429058   16.562928   22.486674 H          1 MOL1         0.0833
      10    C4      20.277259   17.889298   23.723869 C.3        1 MOL1        -0.1760
      11    H7      19.232657   17.663487   23.474136 H          1 MOL1         0.0833
      12    H8      20.557746   17.153984   24.489792 H          1 MOL1         0.0833
      13    C5      20.387877   19.301429   24.349126 C.3        1 MOL1         0.1219
      14    H9      21.398650   19.688873   24.164168 H          1 MOL1         0.0790
      15    C6      19.346599   20.329552   23.840326 C.3        1 MOL1        -0.1760
      16    H10     18.360441   20.072770   24.249366 H          1 MOL1         0.0833
      17    H11     19.605858   21.306111   24.269607 H          1 MOL1         0.0833
      18    C7      19.212908   20.489017   22.304665 C.3        1 MOL1        -0.1684
      19    H12     18.627054   21.396856   22.106444 H          1 MOL1         0.0833
      20    H13     18.606255   19.670780   21.899577 H          1 MOL1         0.0833
      21    C8      20.567699   20.598497   21.560116 C.3        1 MOL1        -0.1684
      22    H14     21.397796   20.716649   22.266187 H          1 MOL1         0.0833
      23    H15     20.570335   21.525986   20.971364 H          1 MOL1         0.0833
      24    O1      20.210356   19.185039   25.755952 O.3        1 MOL1        -0.5508
      25    H16     20.922295   18.596047   26.082582 H          1 MOL1         0.3780
@<TRIPOS>BOND
    1     1     2    1
    2     1     3    1
    3     1     4    1
    4     4     5    1
    5     4     6    1
    6     4     7    1
    7     7     8    1
    8     7     9    1
    9     7    10    1
   10    10    11    1
   11    10    12    1
   12    10    13    1
   13    13    14    1
   14    13    15    1
   15    15    16    1
   16    15    17    1
   17    15    18    1
   18    18    19    1
   19    18    20    1
   20     1    21    1
   21    18    21    1
   22    21    22    1
   23    21    23    1
   24    13    24    1
   25    24    25    1
@<TRIPOS>SUBSTRUCTURE
       1 MOL1            1 RESIDUE      1      MOL     
@<SCITEGIC>MOL_PROPERTY
VM2 Rank
SciTegic.value.IntegerValue
61

@<SCITEGIC>MOL_PROPERTY
Conf_Id
SciTegic.value.IntegerValue
603

@<SCITEGIC>MOL_PROPERTY
Probability
SciTegic.value.DoubleValue
0.18

@<SCITEGIC>MOL_PROPERTY
Sum Probability
SciTegic.value.DoubleValue
97.41

@<SCITEGIC>MOL_PROPERTY
Delta G
SciTegic.value.DoubleValue
1.966

@<SCITEGIC>MOL_PROPERTY
G
SciTegic.value.DoubleValue
64.042

@<SCITEGIC>MOL_PROPERTY
E
SciTegic.value.DoubleValue
31.758

@<SCITEGIC>MOL_PROPERTY
-TS
SciTegic.value.DoubleValue
32.284

@<SCITEGIC>MOL_PROPERTY
U+W
SciTegic.value.DoubleValue
11.190

@<SCITEGIC>MOL_PROPERTY
U
SciTegic.value.DoubleValue
13.296

@<SCITEGIC>MOL_PROPERTY
W
SciTegic.value.DoubleValue
-2.106

@<SCITEGIC>MOL_PROPERTY
W(PB)
SciTegic.value.DoubleValue
-4.268

@<SCITEGIC>MOL_PROPERTY
W(SA)
SciTegic.value.DoubleValue
2.162

@<SCITEGIC>MOL_PROPERTY
Valence
SciTegic.value.DoubleValue
18.607

@<SCITEGIC>MOL_PROPERTY
Coulomb
SciTegic.value.DoubleValue
-8.339

@<SCITEGIC>MOL_PROPERTY
VdW
SciTegic.value.DoubleValue
3.028

@<SCITEGIC>MOL_PROPERTY
VdW6
SciTegic.value.DoubleValue
-12.271

@<SCITEGIC>MOL_PROPERTY
VdW12
SciTegic.value.DoubleValue
15.299

@<SCITEGIC>MOL_PROPERTY
Bond
SciTegic.value.DoubleValue
0.424

@<SCITEGIC>MOL_PROPERTY
Angle
SciTegic.value.DoubleValue
4.488

@<SCITEGIC>MOL_PROPERTY
Pdih
SciTegic.value.DoubleValue
13.696

@<SCITEGIC>MOL_PROPERTY
Idih
SciTegic.value.DoubleValue
0.000

@<SCITEGIC>MOL_PROPERTY
Tether
SciTegic.value.DoubleValue
0.000

@<TRIPOS>MOLECULE
guest-s17_vm2.mol2 : vm2 ligand conformer 62
          25          25           1
SMALL
USER_CHARGES
 
@<TRIPOS>ATOM
       1    C1      20.042217   19.016053   20.853759 C.3        1 MOL1        -0.1684
       2    H1      19.192339   18.451323   21.254262 H          1 MOL1         0.0833
       3    H2      20.014846   18.830326   19.771399 H          1 MOL1         0.0833
       4    C2      21.382249   18.477807   21.415657 C.3        1 MOL1        -0.1684
       5    H3      21.945880   18.011871   20.595877 H          1 MOL1         0.0833
       6    H4      22.021173   19.298307   21.762557 H          1 MOL1         0.0833
       7    C3      21.219917   17.429700   22.543668 C.3        1 MOL1        -0.1684
       8    H5      22.207631   17.246113   22.988184 H          1 MOL1         0.0833
       9    H6      20.911697   16.475067   22.095923 H          1 MOL1         0.0833
      10    C4      20.216478   17.777838   23.676662 C.3        1 MOL1        -0.1760
      11    H7      19.185396   17.643281   23.329146 H          1 MOL1         0.0833
      12    H8      20.348292   17.022244   24.462977 H          1 MOL1         0.0833
      13    C5      20.375672   19.183704   24.306398 C.3        1 MOL1         0.1219
      14    H9      21.428293   19.491737   24.232609 H          1 MOL1         0.0790
      15    C6      19.466755   20.278337   23.680308 C.3        1 MOL1        -0.1760
      16    H10     18.500007   19.857494   23.375843 H          1 MOL1         0.0833
      17    H11     19.229906   21.010425   24.463837 H          1 MOL1         0.0833
      18    C7      20.106605   21.070997   22.511474 C.3        1 MOL1        -0.1684
      19    H12     21.187907   21.168592   22.672507 H          1 MOL1         0.0833
      20    H13     19.723725   22.100134   22.548658 H          1 MOL1         0.0833
      21    C8      19.815387   20.529882   21.086571 C.3        1 MOL1        -0.1684
      22    H14     18.775077   20.765240   20.823530 H          1 MOL1         0.0833
      23    H15     20.436526   21.091567   20.375537 H          1 MOL1         0.0833
      24    O1      20.038719   19.078682   25.685502 O.3        1 MOL1        -0.5508
      25    H16     20.220778   19.953390   26.088153 H          1 MOL1         0.3780
@<TRIPOS>BOND
    1     1     2    1
    2     1     3    1
    3     1     4    1
    4     4     5    1
    5     4     6    1
    6     4     7    1
    7     7     8    1
    8     7     9    1
    9     7    10    1
   10    10    11    1
   11    10    12    1
   12    10    13    1
   13    13    14    1
   14    13    15    1
   15    15    16    1
   16    15    17    1
   17    15    18    1
   18    18    19    1
   19    18    20    1
   20     1    21    1
   21    18    21    1
   22    21    22    1
   23    21    23    1
   24    13    24    1
   25    24    25    1
@<TRIPOS>SUBSTRUCTURE
       1 MOL1            1 RESIDUE      1      MOL     
@<SCITEGIC>MOL_PROPERTY
VM2 Rank
SciTegic.value.IntegerValue
62

@<SCITEGIC>MOL_PROPERTY
Conf_Id
SciTegic.value.IntegerValue
1611

@<SCITEGIC>MOL_PROPERTY
Probability
SciTegic.value.DoubleValue
0.18

@<SCITEGIC>MOL_PROPERTY
Sum Probability
SciTegic.value.DoubleValue
97.59

@<SCITEGIC>MOL_PROPERTY
Delta G
SciTegic.value.DoubleValue
1.970

@<SCITEGIC>MOL_PROPERTY
G
SciTegic.value.DoubleValue
64.045

@<SCITEGIC>MOL_PROPERTY
E
SciTegic.value.DoubleValue
31.687

@<SCITEGIC>MOL_PROPERTY
-TS
SciTegic.value.DoubleValue
32.358

@<SCITEGIC>MOL_PROPERTY
U+W
SciTegic.value.DoubleValue
11.120

@<SCITEGIC>MOL_PROPERTY
U
SciTegic.value.DoubleValue
13.320

@<SCITEGIC>MOL_PROPERTY
W
SciTegic.value.DoubleValue
-2.200

@<SCITEGIC>MOL_PROPERTY
W(PB)
SciTegic.value.DoubleValue
-4.347

@<SCITEGIC>MOL_PROPERTY
W(SA)
SciTegic.value.DoubleValue
2.147

@<SCITEGIC>MOL_PROPERTY
Valence
SciTegic.value.DoubleValue
18.430

@<SCITEGIC>MOL_PROPERTY
Coulomb
SciTegic.value.DoubleValue
-8.418

@<SCITEGIC>MOL_PROPERTY
VdW
SciTegic.value.DoubleValue
3.308

@<SCITEGIC>MOL_PROPERTY
VdW6
SciTegic.value.DoubleValue
-12.374

@<SCITEGIC>MOL_PROPERTY
VdW12
SciTegic.value.DoubleValue
15.682

@<SCITEGIC>MOL_PROPERTY
Bond
SciTegic.value.DoubleValue
0.451

@<SCITEGIC>MOL_PROPERTY
Angle
SciTegic.value.DoubleValue
4.194

@<SCITEGIC>MOL_PROPERTY
Pdih
SciTegic.value.DoubleValue
13.785

@<SCITEGIC>MOL_PROPERTY
Idih
SciTegic.value.DoubleValue
0.000

@<SCITEGIC>MOL_PROPERTY
Tether
SciTegic.value.DoubleValue
0.000

@<TRIPOS>MOLECULE
guest-s17_vm2.mol2 : vm2 ligand conformer 63
          25          25           1
SMALL
USER_CHARGES
 
@<TRIPOS>ATOM
       1    C1      20.040991   19.014814   20.853163 C.3        1 MOL1        -0.1684
       2    H1      19.191751   18.448482   21.252564 H          1 MOL1         0.0833
       3    H2      20.013867   18.830476   19.770552 H          1 MOL1         0.0833
       4    C2      21.381890   18.477657   21.414045 C.3        1 MOL1        -0.1684
       5    H3      21.944137   18.010157   20.594199 H          1 MOL1         0.0833
       6    H4      22.021616   19.298713   21.758102 H          1 MOL1         0.0833
       7    C3      21.222086   17.431612   22.544200 C.3        1 MOL1        -0.1684
       8    H5      22.210184   17.251891   22.989515 H          1 MOL1         0.0833
       9    H6      20.917311   16.475205   22.097825 H          1 MOL1         0.0833
      10    C4      20.216808   17.778017   23.675837 C.3        1 MOL1        -0.1760
      11    H7      19.187089   17.642920   23.324066 H          1 MOL1         0.0833
      12    H8      20.350115   17.019806   24.459531 H          1 MOL1         0.0833
      13    C5      20.375396   19.183349   24.307223 C.3        1 MOL1         0.1219
      14    H9      21.428020   19.492261   24.239927 H          1 MOL1         0.0790
      15    C6      19.470347   20.281697   23.682978 C.3        1 MOL1        -0.1760
      16    H10     18.498453   19.869409   23.383298 H          1 MOL1         0.0833
      17    H11     19.248286   21.016140   24.469286 H          1 MOL1         0.0833
      18    C7      20.109162   21.070001   22.510809 C.3        1 MOL1        -0.1684
      19    H12     21.191023   21.164981   22.669583 H          1 MOL1         0.0833
      20    H13     19.729358   22.100273   22.547709 H          1 MOL1         0.0833
      21    C8      19.812454   20.528117   21.087371 C.3        1 MOL1        -0.1684
      22    H14     18.770823   20.762142   20.828415 H          1 MOL1         0.0833
      23    H15     20.429988   21.090696   20.373904 H          1 MOL1         0.0833
      24    O1      20.034866   19.077737   25.684373 O.3        1 MOL1        -0.5508
      25    H16     19.095100   18.803827   25.716159 H          1 MOL1         0.3780
@<TRIPOS>BOND
    1     1     2    1
    2     1     3    1
    3     1     4    1
    4     4     5    1
    5     4     6    1
    6     4     7    1
    7     7     8    1
    8     7     9    1
    9     7    10    1
   10    10    11    1
   11    10    12    1
   12    10    13    1
   13    13    14    1
   14    13    15    1
   15    15    16    1
   16    15    17    1
   17    15    18    1
   18    18    19    1
   19    18    20    1
   20     1    21    1
   21    18    21    1
   22    21    22    1
   23    21    23    1
   24    13    24    1
   25    24    25    1
@<TRIPOS>SUBSTRUCTURE
       1 MOL1            1 RESIDUE      1      MOL     
@<SCITEGIC>MOL_PROPERTY
VM2 Rank
SciTegic.value.IntegerValue
63

@<SCITEGIC>MOL_PROPERTY
Conf_Id
SciTegic.value.IntegerValue
1347

@<SCITEGIC>MOL_PROPERTY
Probability
SciTegic.value.DoubleValue
0.17

@<SCITEGIC>MOL_PROPERTY
Sum Probability
SciTegic.value.DoubleValue
97.76

@<SCITEGIC>MOL_PROPERTY
Delta G
SciTegic.value.DoubleValue
1.983

@<SCITEGIC>MOL_PROPERTY
G
SciTegic.value.DoubleValue
64.059

@<SCITEGIC>MOL_PROPERTY
E
SciTegic.value.DoubleValue
31.724

@<SCITEGIC>MOL_PROPERTY
-TS
SciTegic.value.DoubleValue
32.335

@<SCITEGIC>MOL_PROPERTY
U+W
SciTegic.value.DoubleValue
11.156

@<SCITEGIC>MOL_PROPERTY
U
SciTegic.value.DoubleValue
13.141

@<SCITEGIC>MOL_PROPERTY
W
SciTegic.value.DoubleValue
-1.984

@<SCITEGIC>MOL_PROPERTY
W(PB)
SciTegic.value.DoubleValue
-4.127

@<SCITEGIC>MOL_PROPERTY
W(SA)
SciTegic.value.DoubleValue
2.143

@<SCITEGIC>MOL_PROPERTY
Valence
SciTegic.value.DoubleValue
18.807

@<SCITEGIC>MOL_PROPERTY
Coulomb
SciTegic.value.DoubleValue
-8.930

@<SCITEGIC>MOL_PROPERTY
VdW
SciTegic.value.DoubleValue
3.264

@<SCITEGIC>MOL_PROPERTY
VdW6
SciTegic.value.DoubleValue
-12.382

@<SCITEGIC>MOL_PROPERTY
VdW12
SciTegic.value.DoubleValue
15.646

@<SCITEGIC>MOL_PROPERTY
Bond
SciTegic.value.DoubleValue
0.441

@<SCITEGIC>MOL_PROPERTY
Angle
SciTegic.value.DoubleValue
4.299

@<SCITEGIC>MOL_PROPERTY
Pdih
SciTegic.value.DoubleValue
14.067

@<SCITEGIC>MOL_PROPERTY
Idih
SciTegic.value.DoubleValue
0.000

@<SCITEGIC>MOL_PROPERTY
Tether
SciTegic.value.DoubleValue
0.000

@<TRIPOS>MOLECULE
guest-s17_vm2.mol2 : vm2 ligand conformer 64
          25          25           1
SMALL
USER_CHARGES
 
@<TRIPOS>ATOM
       1    C1      19.984039   19.156767   20.852782 C.3        1 MOL1        -0.1684
       2    H1      19.837625   19.266606   19.769611 H          1 MOL1         0.0833
       3    H2      18.980090   18.969950   21.251082 H          1 MOL1         0.0833
       4    C2      20.877203   17.914915   21.092029 C.3        1 MOL1        -0.1684
       5    H3      20.295703   17.019096   20.834760 H          1 MOL1         0.0833
       6    H4      21.713200   17.941621   20.379798 H          1 MOL1         0.0833
       7    C3      21.465800   17.738543   22.516916 C.3        1 MOL1        -0.1684
       8    H5      22.306056   18.426749   22.675017 H          1 MOL1         0.0833
       9    H6      21.913634   16.736107   22.557425 H          1 MOL1         0.0833
      10    C4      20.456182   17.859795   23.687158 C.3        1 MOL1        -0.1760
      11    H7      19.473204   17.475002   23.387062 H          1 MOL1         0.0833
      12    H8      20.809109   17.181448   24.476010 H          1 MOL1         0.0833
      13    C5      20.335546   19.279769   24.307063 C.3        1 MOL1         0.1219
      14    H9      21.304653   19.793848   24.239790 H          1 MOL1         0.0790
      15    C6      19.241358   20.172718   23.671336 C.3        1 MOL1        -0.1760
      16    H10     18.410756   19.549028   23.320016 H          1 MOL1         0.0833
      17    H11     18.805807   20.810630   24.452485 H          1 MOL1         0.0833
      18    C7      19.720517   21.119567   22.537733 C.3        1 MOL1        -0.1684
      19    H12     20.301285   21.939701   22.981617 H          1 MOL1         0.0833
      20    H13     18.835048   21.589720   22.088564 H          1 MOL1         0.0833
      21    C8      20.567416   20.479428   21.410800 C.3        1 MOL1        -0.1684
      22    H14     20.644515   21.204344   20.588985 H          1 MOL1         0.0833
      23    H15     21.598161   20.339772   21.756944 H          1 MOL1         0.0833
      24    O1      20.015938   19.121499   25.684183 O.3        1 MOL1        -0.5508
      25    H16     19.152028   18.661231   25.715959 H          1 MOL1         0.3780
@<TRIPOS>BOND
    1     1     2    1
    2     1     3    1
    3     1     4    1
    4     4     5    1
    5     4     6    1
    6     4     7    1
    7     7     8    1
    8     7     9    1
    9     7    10    1
   10    10    11    1
   11    10    12    1
   12    10    13    1
   13    13    14    1
   14    13    15    1
   15    15    16    1
   16    15    17    1
   17    15    18    1
   18    18    19    1
   19    18    20    1
   20     1    21    1
   21    18    21    1
   22    21    22    1
   23    21    23    1
   24    13    24    1
   25    24    25    1
@<TRIPOS>SUBSTRUCTURE
       1 MOL1            1 RESIDUE      1      MOL     
@<SCITEGIC>MOL_PROPERTY
VM2 Rank
SciTegic.value.IntegerValue
64

@<SCITEGIC>MOL_PROPERTY
Conf_Id
SciTegic.value.IntegerValue
927

@<SCITEGIC>MOL_PROPERTY
Probability
SciTegic.value.DoubleValue
0.17

@<SCITEGIC>MOL_PROPERTY
Sum Probability
SciTegic.value.DoubleValue
97.93

@<SCITEGIC>MOL_PROPERTY
Delta G
SciTegic.value.DoubleValue
2.001

@<SCITEGIC>MOL_PROPERTY
G
SciTegic.value.DoubleValue
64.076

@<SCITEGIC>MOL_PROPERTY
E
SciTegic.value.DoubleValue
31.741

@<SCITEGIC>MOL_PROPERTY
-TS
SciTegic.value.DoubleValue
32.335

@<SCITEGIC>MOL_PROPERTY
U+W
SciTegic.value.DoubleValue
11.174

@<SCITEGIC>MOL_PROPERTY
U
SciTegic.value.DoubleValue
13.140

@<SCITEGIC>MOL_PROPERTY
W
SciTegic.value.DoubleValue
-1.967

@<SCITEGIC>MOL_PROPERTY
W(PB)
SciTegic.value.DoubleValue
-4.109

@<SCITEGIC>MOL_PROPERTY
W(SA)
SciTegic.value.DoubleValue
2.143

@<SCITEGIC>MOL_PROPERTY
Valence
SciTegic.value.DoubleValue
18.807

@<SCITEGIC>MOL_PROPERTY
Coulomb
SciTegic.value.DoubleValue
-8.930

@<SCITEGIC>MOL_PROPERTY
VdW
SciTegic.value.DoubleValue
3.264

@<SCITEGIC>MOL_PROPERTY
VdW6
SciTegic.value.DoubleValue
-12.382

@<SCITEGIC>MOL_PROPERTY
VdW12
SciTegic.value.DoubleValue
15.646

@<SCITEGIC>MOL_PROPERTY
Bond
SciTegic.value.DoubleValue
0.441

@<SCITEGIC>MOL_PROPERTY
Angle
SciTegic.value.DoubleValue
4.299

@<SCITEGIC>MOL_PROPERTY
Pdih
SciTegic.value.DoubleValue
14.066

@<SCITEGIC>MOL_PROPERTY
Idih
SciTegic.value.DoubleValue
0.000

@<SCITEGIC>MOL_PROPERTY
Tether
SciTegic.value.DoubleValue
0.000

@<TRIPOS>MOLECULE
guest-s17_vm2.mol2 : vm2 ligand conformer 65
          25          25           1
SMALL
USER_CHARGES
 
@<TRIPOS>ATOM
       1    C1      20.866098   19.436572   20.598531 C.3        1 MOL1        -0.1684
       2    H1      20.549081   18.915459   19.684860 H          1 MOL1         0.0833
       3    H2      21.663969   20.124232   20.286596 H          1 MOL1         0.0833
       4    C2      21.474757   18.397247   21.571588 C.3        1 MOL1        -0.1684
       5    H3      22.142054   18.902386   22.279546 H          1 MOL1         0.0833
       6    H4      22.133641   17.736086   20.992272 H          1 MOL1         0.0833
       7    C3      20.428668   17.527447   22.313545 C.3        1 MOL1        -0.1684
       8    H5      20.649896   16.468886   22.120503 H          1 MOL1         0.0833
       9    H6      19.424670   17.682589   21.901709 H          1 MOL1         0.0833
      10    C4      20.402755   17.740720   23.847979 C.3        1 MOL1        -0.1760
      11    H7      19.519681   17.227216   24.250301 H          1 MOL1         0.0833
      12    H8      21.272589   17.230597   24.282472 H          1 MOL1         0.0833
      13    C5      20.418985   19.206492   24.351028 C.3        1 MOL1         0.1219
      14    H9      21.412839   19.639203   24.175840 H          1 MOL1         0.0790
      15    C6      19.358057   20.137837   23.715341 C.3        1 MOL1        -0.1760
      16    H10     18.449719   19.574097   23.467152 H          1 MOL1         0.0833
      17    H11     19.052569   20.867774   24.477456 H          1 MOL1         0.0833
      18    C7      19.852800   20.957237   22.489890 C.3        1 MOL1        -0.1684
      19    H12     20.894182   21.280229   22.622772 H          1 MOL1         0.0833
      20    H13     19.261792   21.883169   22.466177 H          1 MOL1         0.0833
      21    C8      19.661932   20.267113   21.116590 C.3        1 MOL1        -0.1684
      22    H14     18.748530   19.658921   21.126321 H          1 MOL1         0.0833
      23    H15     19.468374   21.049361   20.369805 H          1 MOL1         0.0833
      24    O1      20.199948   19.172335   25.755508 O.3        1 MOL1        -0.5508
      25    H16     19.302439   18.803346   25.887019 H          1 MOL1         0.3780
@<TRIPOS>BOND
    1     1     2    1
    2     1     3    1
    3     1     4    1
    4     4     5    1
    5     4     6    1
    6     4     7    1
    7     7     8    1
    8     7     9    1
    9     7    10    1
   10    10    11    1
   11    10    12    1
   12    10    13    1
   13    13    14    1
   14    13    15    1
   15    15    16    1
   16    15    17    1
   17    15    18    1
   18    18    19    1
   19    18    20    1
   20     1    21    1
   21    18    21    1
   22    21    22    1
   23    21    23    1
   24    13    24    1
   25    24    25    1
@<TRIPOS>SUBSTRUCTURE
       1 MOL1            1 RESIDUE      1      MOL     
@<SCITEGIC>MOL_PROPERTY
VM2 Rank
SciTegic.value.IntegerValue
65

@<SCITEGIC>MOL_PROPERTY
Conf_Id
SciTegic.value.IntegerValue
1228

@<SCITEGIC>MOL_PROPERTY
Probability
SciTegic.value.DoubleValue
0.17

@<SCITEGIC>MOL_PROPERTY
Sum Probability
SciTegic.value.DoubleValue
98.10

@<SCITEGIC>MOL_PROPERTY
Delta G
SciTegic.value.DoubleValue
2.011

@<SCITEGIC>MOL_PROPERTY
G
SciTegic.value.DoubleValue
64.086

@<SCITEGIC>MOL_PROPERTY
E
SciTegic.value.DoubleValue
31.829

@<SCITEGIC>MOL_PROPERTY
-TS
SciTegic.value.DoubleValue
32.257

@<SCITEGIC>MOL_PROPERTY
U+W
SciTegic.value.DoubleValue
11.262

@<SCITEGIC>MOL_PROPERTY
U
SciTegic.value.DoubleValue
13.202

@<SCITEGIC>MOL_PROPERTY
W
SciTegic.value.DoubleValue
-1.941

@<SCITEGIC>MOL_PROPERTY
W(PB)
SciTegic.value.DoubleValue
-4.073

@<SCITEGIC>MOL_PROPERTY
W(SA)
SciTegic.value.DoubleValue
2.132

@<SCITEGIC>MOL_PROPERTY
Valence
SciTegic.value.DoubleValue
18.957

@<SCITEGIC>MOL_PROPERTY
Coulomb
SciTegic.value.DoubleValue
-8.753

@<SCITEGIC>MOL_PROPERTY
VdW
SciTegic.value.DoubleValue
2.998

@<SCITEGIC>MOL_PROPERTY
VdW6
SciTegic.value.DoubleValue
-12.294

@<SCITEGIC>MOL_PROPERTY
VdW12
SciTegic.value.DoubleValue
15.292

@<SCITEGIC>MOL_PROPERTY
Bond
SciTegic.value.DoubleValue
0.419

@<SCITEGIC>MOL_PROPERTY
Angle
SciTegic.value.DoubleValue
4.543

@<SCITEGIC>MOL_PROPERTY
Pdih
SciTegic.value.DoubleValue
13.996

@<SCITEGIC>MOL_PROPERTY
Idih
SciTegic.value.DoubleValue
0.000

@<SCITEGIC>MOL_PROPERTY
Tether
SciTegic.value.DoubleValue
0.000

@<TRIPOS>MOLECULE
guest-s17_vm2.mol2 : vm2 ligand conformer 66
          25          25           1
SMALL
USER_CHARGES
 
@<TRIPOS>ATOM
       1    C1      20.941072   19.392306   20.764003 C.3        1 MOL1        -0.1684
       2    H1      21.030736   19.421747   19.669444 H          1 MOL1         0.0833
       3    H2      21.866188   19.853301   21.132567 H          1 MOL1         0.0833
       4    C2      20.874688   17.896841   21.173002 C.3        1 MOL1        -0.1684
       5    H3      20.149916   17.383813   20.526301 H          1 MOL1         0.0833
       6    H4      21.848454   17.438906   20.952065 H          1 MOL1         0.0833
       7    C3      20.507236   17.595153   22.646008 C.3        1 MOL1        -0.1684
       8    H5      20.709239   16.533179   22.840342 H          1 MOL1         0.0833
       9    H6      19.424818   17.702839   22.783435 H          1 MOL1         0.0833
      10    C4      21.284922   18.448718   23.682400 C.3        1 MOL1        -0.1760
      11    H7      21.828071   17.774943   24.357690 H          1 MOL1         0.0833
      12    H8      22.069941   19.036211   23.194368 H          1 MOL1         0.0833
      13    C5      20.405021   19.395017   24.533484 C.3        1 MOL1         0.1219
      14    H9      21.079815   20.095831   25.045932 H          1 MOL1         0.0790
      15    C6      19.350687   20.229403   23.763096 C.3        1 MOL1        -0.1760
      16    H10     18.492043   19.605230   23.486628 H          1 MOL1         0.0833
      17    H11     18.949801   20.961537   24.476177 H          1 MOL1         0.0833
      18    C7      19.860864   21.007187   22.522146 C.3        1 MOL1        -0.1684
      19    H12     20.889586   21.359053   22.677352 H          1 MOL1         0.0833
      20    H13     19.251092   21.917907   22.445358 H          1 MOL1         0.0833
      21    C8      19.721754   20.258538   21.167254 C.3        1 MOL1        -0.1684
      22    H14     18.796046   19.668510   21.133130 H          1 MOL1         0.0833
      23    H15     19.605679   21.026380   20.390026 H          1 MOL1         0.0833
      24    O1      19.717756   18.619837   25.508606 O.3        1 MOL1        -0.5508
      25    H16     20.396940   18.097948   25.983429 H          1 MOL1         0.3780
@<TRIPOS>BOND
    1     1     2    1
    2     1     3    1
    3     1     4    1
    4     4     5    1
    5     4     6    1
    6     4     7    1
    7     7     8    1
    8     7     9    1
    9     7    10    1
   10    10    11    1
   11    10    12    1
   12    10    13    1
   13    13    14    1
   14    13    15    1
   15    15    16    1
   16    15    17    1
   17    15    18    1
   18    18    19    1
   19    18    20    1
   20     1    21    1
   21    18    21    1
   22    21    22    1
   23    21    23    1
   24    13    24    1
   25    24    25    1
@<TRIPOS>SUBSTRUCTURE
       1 MOL1            1 RESIDUE      1      MOL     
@<SCITEGIC>MOL_PROPERTY
VM2 Rank
SciTegic.value.IntegerValue
66

@<SCITEGIC>MOL_PROPERTY
Conf_Id
SciTegic.value.IntegerValue
669

@<SCITEGIC>MOL_PROPERTY
Probability
SciTegic.value.DoubleValue
0.16

@<SCITEGIC>MOL_PROPERTY
Sum Probability
SciTegic.value.DoubleValue
98.26

@<SCITEGIC>MOL_PROPERTY
Delta G
SciTegic.value.DoubleValue
2.030

@<SCITEGIC>MOL_PROPERTY
G
SciTegic.value.DoubleValue
64.106

@<SCITEGIC>MOL_PROPERTY
E
SciTegic.value.DoubleValue
31.817

@<SCITEGIC>MOL_PROPERTY
-TS
SciTegic.value.DoubleValue
32.288

@<SCITEGIC>MOL_PROPERTY
U+W
SciTegic.value.DoubleValue
11.250

@<SCITEGIC>MOL_PROPERTY
U
SciTegic.value.DoubleValue
13.420

@<SCITEGIC>MOL_PROPERTY
W
SciTegic.value.DoubleValue
-2.170

@<SCITEGIC>MOL_PROPERTY
W(PB)
SciTegic.value.DoubleValue
-4.300

@<SCITEGIC>MOL_PROPERTY
W(SA)
SciTegic.value.DoubleValue
2.131

@<SCITEGIC>MOL_PROPERTY
Valence
SciTegic.value.DoubleValue
18.609

@<SCITEGIC>MOL_PROPERTY
Coulomb
SciTegic.value.DoubleValue
-8.052

@<SCITEGIC>MOL_PROPERTY
VdW
SciTegic.value.DoubleValue
2.863

@<SCITEGIC>MOL_PROPERTY
VdW6
SciTegic.value.DoubleValue
-12.524

@<SCITEGIC>MOL_PROPERTY
VdW12
SciTegic.value.DoubleValue
15.388

@<SCITEGIC>MOL_PROPERTY
Bond
SciTegic.value.DoubleValue
0.430

@<SCITEGIC>MOL_PROPERTY
Angle
SciTegic.value.DoubleValue
4.723

@<SCITEGIC>MOL_PROPERTY
Pdih
SciTegic.value.DoubleValue
13.455

@<SCITEGIC>MOL_PROPERTY
Idih
SciTegic.value.DoubleValue
0.000

@<SCITEGIC>MOL_PROPERTY
Tether
SciTegic.value.DoubleValue
0.000

@<TRIPOS>MOLECULE
guest-s17_vm2.mol2 : vm2 ligand conformer 67
          25          25           1
SMALL
USER_CHARGES
 
@<TRIPOS>ATOM
       1    C1      20.918742   19.539626   20.775646 C.3        1 MOL1        -0.1684
       2    H1      21.020825   19.588064   19.682851 H          1 MOL1         0.0833
       3    H2      21.892595   19.866112   21.161922 H          1 MOL1         0.0833
       4    C2      20.663035   18.062730   21.166916 C.3        1 MOL1        -0.1684
       5    H3      19.592025   17.825287   21.114079 H          1 MOL1         0.0833
       6    H4      21.136708   17.441975   20.393977 H          1 MOL1         0.0833
       7    C3      21.268768   17.624657   22.529538 C.3        1 MOL1        -0.1684
       8    H5      22.242192   18.102640   22.703158 H          1 MOL1         0.0833
       9    H6      21.483114   16.549975   22.450502 H          1 MOL1         0.0833
      10    C4      20.337910   17.807070   23.756492 C.3        1 MOL1        -0.1760
      11    H7      19.294097   17.642444   23.462135 H          1 MOL1         0.0833
      12    H8      20.560805   17.002207   24.469043 H          1 MOL1         0.0833
      13    C5      20.480396   19.138541   24.536370 C.3        1 MOL1         0.1219
      14    H9      21.444649   19.117702   25.064453 H          1 MOL1         0.0790
      15    C6      20.446795   20.434350   23.691500 C.3        1 MOL1        -0.1760
      16    H10     20.343091   21.291213   24.369755 H          1 MOL1         0.0833
      17    H11     21.425078   20.576917   23.220104 H          1 MOL1         0.0833
      18    C7      19.310351   20.493165   22.636743 C.3        1 MOL1        -0.1684
      19    H12     18.698827   21.385705   22.825873 H          1 MOL1         0.0833
      20    H13     18.619287   19.650711   22.758449 H          1 MOL1         0.0833
      21    C8      19.807439   20.547630   21.171914 C.3        1 MOL1        -0.1684
      22    H14     18.942904   20.401075   20.510240 H          1 MOL1         0.0833
      23    H15     20.175354   21.561262   20.962324 H          1 MOL1         0.0833
      24    O1      19.430565   19.195231   25.494881 O.3        1 MOL1        -0.5508
      25    H16     19.533818   20.041958   25.976036 H          1 MOL1         0.3780
@<TRIPOS>BOND
    1     1     2    1
    2     1     3    1
    3     1     4    1
    4     4     5    1
    5     4     6    1
    6     4     7    1
    7     7     8    1
    8     7     9    1
    9     7    10    1
   10    10    11    1
   11    10    12    1
   12    10    13    1
   13    13    14    1
   14    13    15    1
   15    15    16    1
   16    15    17    1
   17    15    18    1
   18    18    19    1
   19    18    20    1
   20     1    21    1
   21    18    21    1
   22    21    22    1
   23    21    23    1
   24    13    24    1
   25    24    25    1
@<TRIPOS>SUBSTRUCTURE
       1 MOL1            1 RESIDUE      1      MOL     
@<SCITEGIC>MOL_PROPERTY
VM2 Rank
SciTegic.value.IntegerValue
67

@<SCITEGIC>MOL_PROPERTY
Conf_Id
SciTegic.value.IntegerValue
1423

@<SCITEGIC>MOL_PROPERTY
Probability
SciTegic.value.DoubleValue
0.16

@<SCITEGIC>MOL_PROPERTY
Sum Probability
SciTegic.value.DoubleValue
98.42

@<SCITEGIC>MOL_PROPERTY
Delta G
SciTegic.value.DoubleValue
2.031

@<SCITEGIC>MOL_PROPERTY
G
SciTegic.value.DoubleValue
64.107

@<SCITEGIC>MOL_PROPERTY
E
SciTegic.value.DoubleValue
31.820

@<SCITEGIC>MOL_PROPERTY
-TS
SciTegic.value.DoubleValue
32.287

@<SCITEGIC>MOL_PROPERTY
U+W
SciTegic.value.DoubleValue
11.252

@<SCITEGIC>MOL_PROPERTY
U
SciTegic.value.DoubleValue
13.420

@<SCITEGIC>MOL_PROPERTY
W
SciTegic.value.DoubleValue
-2.167

@<SCITEGIC>MOL_PROPERTY
W(PB)
SciTegic.value.DoubleValue
-4.325

@<SCITEGIC>MOL_PROPERTY
W(SA)
SciTegic.value.DoubleValue
2.157

@<SCITEGIC>MOL_PROPERTY
Valence
SciTegic.value.DoubleValue
18.609

@<SCITEGIC>MOL_PROPERTY
Coulomb
SciTegic.value.DoubleValue
-8.052

@<SCITEGIC>MOL_PROPERTY
VdW
SciTegic.value.DoubleValue
2.863

@<SCITEGIC>MOL_PROPERTY
VdW6
SciTegic.value.DoubleValue
-12.524

@<SCITEGIC>MOL_PROPERTY
VdW12
SciTegic.value.DoubleValue
15.387

@<SCITEGIC>MOL_PROPERTY
Bond
SciTegic.value.DoubleValue
0.430

@<SCITEGIC>MOL_PROPERTY
Angle
SciTegic.value.DoubleValue
4.724

@<SCITEGIC>MOL_PROPERTY
Pdih
SciTegic.value.DoubleValue
13.455

@<SCITEGIC>MOL_PROPERTY
Idih
SciTegic.value.DoubleValue
0.000

@<SCITEGIC>MOL_PROPERTY
Tether
SciTegic.value.DoubleValue
0.000

@<TRIPOS>MOLECULE
guest-s17_vm2.mol2 : vm2 ligand conformer 68
          25          25           1
SMALL
USER_CHARGES
 
@<TRIPOS>ATOM
       1    C1      20.863074   19.421345   20.596226 C.3        1 MOL1        -0.1684
       2    H1      20.270853   19.563821   19.681990 H          1 MOL1         0.0833
       3    H2      21.913854   19.487533   20.282764 H          1 MOL1         0.0833
       4    C2      20.586646   17.989059   21.125702 C.3        1 MOL1        -0.1684
       5    H3      19.508861   17.782849   21.138007 H          1 MOL1         0.0833
       6    H4      20.996132   17.289606   20.383981 H          1 MOL1         0.0833
       7    C3      21.207682   17.641271   22.501208 C.3        1 MOL1        -0.1684
       8    H5      22.176991   18.141750   22.629335 H          1 MOL1         0.0833
       9    H6      21.435042   16.566437   22.485665 H          1 MOL1         0.0833
      10    C4      20.281585   17.888554   23.725596 C.3        1 MOL1        -0.1760
      11    H7      19.238336   17.652201   23.480148 H          1 MOL1         0.0833
      12    H8      20.575894   17.159691   24.493119 H          1 MOL1         0.0833
      13    C5      20.386239   19.301314   24.350288 C.3        1 MOL1         0.1219
      14    H9      21.398314   19.687750   24.171276 H          1 MOL1         0.0790
      15    C6      19.347049   20.331659   23.840106 C.3        1 MOL1        -0.1760
      16    H10     18.357586   20.082329   24.245281 H          1 MOL1         0.0833
      17    H11     19.610503   21.308491   24.266735 H          1 MOL1         0.0833
      18    C7      19.214698   20.489957   22.304508 C.3        1 MOL1        -0.1684
      19    H12     18.630471   21.398571   22.104867 H          1 MOL1         0.0833
      20    H13     18.606870   19.672468   21.899602 H          1 MOL1         0.0833
      21    C8      20.569830   20.596795   21.560494 C.3        1 MOL1        -0.1684
      22    H14     21.400489   20.709493   22.266866 H          1 MOL1         0.0833
      23    H15     20.576039   21.525693   20.973996 H          1 MOL1         0.0833
      24    O1      20.207197   19.183047   25.755872 O.3        1 MOL1        -0.5508
      25    H16     19.308455   18.818368   25.890948 H          1 MOL1         0.3780
@<TRIPOS>BOND
    1     1     2    1
    2     1     3    1
    3     1     4    1
    4     4     5    1
    5     4     6    1
    6     4     7    1
    7     7     8    1
    8     7     9    1
    9     7    10    1
   10    10    11    1
   11    10    12    1
   12    10    13    1
   13    13    14    1
   14    13    15    1
   15    15    16    1
   16    15    17    1
   17    15    18    1
   18    18    19    1
   19    18    20    1
   20     1    21    1
   21    18    21    1
   22    21    22    1
   23    21    23    1
   24    13    24    1
   25    24    25    1
@<TRIPOS>SUBSTRUCTURE
       1 MOL1            1 RESIDUE      1      MOL     
@<SCITEGIC>MOL_PROPERTY
VM2 Rank
SciTegic.value.IntegerValue
68

@<SCITEGIC>MOL_PROPERTY
Conf_Id
SciTegic.value.IntegerValue
313

@<SCITEGIC>MOL_PROPERTY
Probability
SciTegic.value.DoubleValue
0.16

@<SCITEGIC>MOL_PROPERTY
Sum Probability
SciTegic.value.DoubleValue
98.57

@<SCITEGIC>MOL_PROPERTY
Delta G
SciTegic.value.DoubleValue
2.049

@<SCITEGIC>MOL_PROPERTY
G
SciTegic.value.DoubleValue
64.124

@<SCITEGIC>MOL_PROPERTY
E
SciTegic.value.DoubleValue
31.867

@<SCITEGIC>MOL_PROPERTY
-TS
SciTegic.value.DoubleValue
32.258

@<SCITEGIC>MOL_PROPERTY
U+W
SciTegic.value.DoubleValue
11.299

@<SCITEGIC>MOL_PROPERTY
U
SciTegic.value.DoubleValue
13.202

@<SCITEGIC>MOL_PROPERTY
W
SciTegic.value.DoubleValue
-1.903

@<SCITEGIC>MOL_PROPERTY
W(PB)
SciTegic.value.DoubleValue
-4.065

@<SCITEGIC>MOL_PROPERTY
W(SA)
SciTegic.value.DoubleValue
2.162

@<SCITEGIC>MOL_PROPERTY
Valence
SciTegic.value.DoubleValue
18.957

@<SCITEGIC>MOL_PROPERTY
Coulomb
SciTegic.value.DoubleValue
-8.753

@<SCITEGIC>MOL_PROPERTY
VdW
SciTegic.value.DoubleValue
2.998

@<SCITEGIC>MOL_PROPERTY
VdW6
SciTegic.value.DoubleValue
-12.294

@<SCITEGIC>MOL_PROPERTY
VdW12
SciTegic.value.DoubleValue
15.293

@<SCITEGIC>MOL_PROPERTY
Bond
SciTegic.value.DoubleValue
0.419

@<SCITEGIC>MOL_PROPERTY
Angle
SciTegic.value.DoubleValue
4.542

@<SCITEGIC>MOL_PROPERTY
Pdih
SciTegic.value.DoubleValue
13.996

@<SCITEGIC>MOL_PROPERTY
Idih
SciTegic.value.DoubleValue
0.000

@<SCITEGIC>MOL_PROPERTY
Tether
SciTegic.value.DoubleValue
0.000

@<TRIPOS>MOLECULE
guest-s17_vm2.mol2 : vm2 ligand conformer 69
          25          25           1
SMALL
USER_CHARGES
 
@<TRIPOS>ATOM
       1    C1      19.890618   19.003549   20.794459 C.3        1 MOL1        -0.1684
       2    H1      18.939476   18.617699   21.182814 H          1 MOL1         0.0833
       3    H2      19.758840   19.028054   19.704071 H          1 MOL1         0.0833
       4    C2      21.044620   18.009209   21.089403 C.3        1 MOL1        -0.1684
       5    H3      20.706796   17.002811   20.806871 H          1 MOL1         0.0833
       6    H4      21.889267   18.237783   20.425284 H          1 MOL1         0.0833
       7    C3      21.569807   17.964212   22.544828 C.3        1 MOL1        -0.1684
       8    H5      22.242212   18.812273   22.718396 H          1 MOL1         0.0833
       9    H6      22.207141   17.075637   22.649500 H          1 MOL1         0.0833
      10    C4      20.454541   17.906451   23.621695 C.3        1 MOL1        -0.1760
      11    H7      19.472216   17.748041   23.162744 H          1 MOL1         0.0833
      12    H8      20.619693   17.019831   24.247308 H          1 MOL1         0.0833
      13    C5      20.398946   19.135125   24.558460 C.3        1 MOL1         0.1219
      14    H9      21.250503   19.063308   25.250428 H          1 MOL1         0.0790
      15    C6      20.483534   20.526209   23.876683 C.3        1 MOL1        -0.1760
      16    H10     20.272341   21.280184   24.646227 H          1 MOL1         0.0833
      17    H11     21.515653   20.732570   23.569310 H          1 MOL1         0.0833
      18    C7      19.522119   20.776744   22.685280 C.3        1 MOL1        -0.1684
      19    H12     19.277733   21.847739   22.692281 H          1 MOL1         0.0833
      20    H13     18.565722   20.259546   22.841572 H          1 MOL1         0.0833
      21    C8      20.108973   20.457210   21.282345 C.3        1 MOL1        -0.1684
      22    H14     21.170129   20.733768   21.222790 H          1 MOL1         0.0833
      23    H15     19.596547   21.114172   20.566174 H          1 MOL1         0.0833
      24    O1      19.190841   19.064291   25.306847 O.3        1 MOL1        -0.5508
      25    H16     19.176144   19.848341   25.893386 H          1 MOL1         0.3780
@<TRIPOS>BOND
    1     1     2    1
    2     1     3    1
    3     1     4    1
    4     4     5    1
    5     4     6    1
    6     4     7    1
    7     7     8    1
    8     7     9    1
    9     7    10    1
   10    10    11    1
   11    10    12    1
   12    10    13    1
   13    13    14    1
   14    13    15    1
   15    15    16    1
   16    15    17    1
   17    15    18    1
   18    18    19    1
   19    18    20    1
   20     1    21    1
   21    18    21    1
   22    21    22    1
   23    21    23    1
   24    13    24    1
   25    24    25    1
@<TRIPOS>SUBSTRUCTURE
       1 MOL1            1 RESIDUE      1      MOL     
@<SCITEGIC>MOL_PROPERTY
VM2 Rank
SciTegic.value.IntegerValue
69

@<SCITEGIC>MOL_PROPERTY
Conf_Id
SciTegic.value.IntegerValue
380

@<SCITEGIC>MOL_PROPERTY
Probability
SciTegic.value.DoubleValue
0.14

@<SCITEGIC>MOL_PROPERTY
Sum Probability
SciTegic.value.DoubleValue
98.71

@<SCITEGIC>MOL_PROPERTY
Delta G
SciTegic.value.DoubleValue
2.110

@<SCITEGIC>MOL_PROPERTY
G
SciTegic.value.DoubleValue
64.186

@<SCITEGIC>MOL_PROPERTY
E
SciTegic.value.DoubleValue
31.920

@<SCITEGIC>MOL_PROPERTY
-TS
SciTegic.value.DoubleValue
32.266

@<SCITEGIC>MOL_PROPERTY
U+W
SciTegic.value.DoubleValue
11.352

@<SCITEGIC>MOL_PROPERTY
U
SciTegic.value.DoubleValue
13.643

@<SCITEGIC>MOL_PROPERTY
W
SciTegic.value.DoubleValue
-2.290

@<SCITEGIC>MOL_PROPERTY
W(PB)
SciTegic.value.DoubleValue
-4.412

@<SCITEGIC>MOL_PROPERTY
W(SA)
SciTegic.value.DoubleValue
2.122

@<SCITEGIC>MOL_PROPERTY
Valence
SciTegic.value.DoubleValue
18.609

@<SCITEGIC>MOL_PROPERTY
Coulomb
SciTegic.value.DoubleValue
-7.808

@<SCITEGIC>MOL_PROPERTY
VdW
SciTegic.value.DoubleValue
2.842

@<SCITEGIC>MOL_PROPERTY
VdW6
SciTegic.value.DoubleValue
-12.553

@<SCITEGIC>MOL_PROPERTY
VdW12
SciTegic.value.DoubleValue
15.394

@<SCITEGIC>MOL_PROPERTY
Bond
SciTegic.value.DoubleValue
0.434

@<SCITEGIC>MOL_PROPERTY
Angle
SciTegic.value.DoubleValue
4.744

@<SCITEGIC>MOL_PROPERTY
Pdih
SciTegic.value.DoubleValue
13.431

@<SCITEGIC>MOL_PROPERTY
Idih
SciTegic.value.DoubleValue
0.000

@<SCITEGIC>MOL_PROPERTY
Tether
SciTegic.value.DoubleValue
0.000

@<TRIPOS>MOLECULE
guest-s17_vm2.mol2 : vm2 ligand conformer 70
          25          25           1
SMALL
USER_CHARGES
 
@<TRIPOS>ATOM
       1    C1      20.896642   19.356242   21.001054 C.3        1 MOL1        -0.1684
       2    H1      21.112538   19.263363   19.927942 H          1 MOL1         0.0833
       3    H2      21.869341   19.561504   21.462096 H          1 MOL1         0.0833
       4    C2      20.310257   18.014372   21.505247 C.3        1 MOL1        -0.1684
       5    H3      19.243299   18.114163   21.733309 H          1 MOL1         0.0833
       6    H4      20.347960   17.286952   20.682766 H          1 MOL1         0.0833
       7    C3      21.063031   17.401711   22.712571 C.3        1 MOL1        -0.1684
       8    H5      21.978146   16.923633   22.337240 H          1 MOL1         0.0833
       9    H6      20.456587   16.584249   23.126151 H          1 MOL1         0.0833
      10    C4      21.476898   18.365861   23.862724 C.3        1 MOL1        -0.1760
      11    H7      21.894399   17.744990   24.666109 H          1 MOL1         0.0833
      12    H8      22.313767   18.998836   23.544598 H          1 MOL1         0.0833
      13    C5      20.381159   19.256178   24.498333 C.3        1 MOL1         0.1219
      14    H9      20.732806   19.482132   25.515402 H          1 MOL1         0.0790
      15    C6      20.166968   20.637805   23.818018 C.3        1 MOL1        -0.1760
      16    H10     19.712558   21.284136   24.580313 H          1 MOL1         0.0833
      17    H11     21.136762   21.100478   23.594397 H          1 MOL1         0.0833
      18    C7      19.248396   20.701641   22.566051 C.3        1 MOL1        -0.1684
      19    H12     18.752527   21.681912   22.570832 H          1 MOL1         0.0833
      20    H13     18.424781   19.982623   22.645217 H          1 MOL1         0.0833
      21    C8      19.959252   20.572394   21.193537 C.3        1 MOL1        -0.1684
      22    H14     19.185690   20.542993   20.414025 H          1 MOL1         0.0833
      23    H15     20.537392   21.487030   21.003847 H          1 MOL1         0.0833
      24    O1      19.161395   18.536796   24.602466 O.3        1 MOL1        -0.5508
      25    H16     18.976428   18.235539   23.691116 H          1 MOL1         0.3780
@<TRIPOS>BOND
    1     1     2    1
    2     1     3    1
    3     1     4    1
    4     4     5    1
    5     4     6    1
    6     4     7    1
    7     7     8    1
    8     7     9    1
    9     7    10    1
   10    10    11    1
   11    10    12    1
   12    10    13    1
   13    13    14    1
   14    13    15    1
   15    15    16    1
   16    15    17    1
   17    15    18    1
   18    18    19    1
   19    18    20    1
   20     1    21    1
   21    18    21    1
   22    21    22    1
   23    21    23    1
   24    13    24    1
   25    24    25    1
@<TRIPOS>SUBSTRUCTURE
       1 MOL1            1 RESIDUE      1      MOL     
@<SCITEGIC>MOL_PROPERTY
VM2 Rank
SciTegic.value.IntegerValue
70

@<SCITEGIC>MOL_PROPERTY
Conf_Id
SciTegic.value.IntegerValue
1350

@<SCITEGIC>MOL_PROPERTY
Probability
SciTegic.value.DoubleValue
0.14

@<SCITEGIC>MOL_PROPERTY
Sum Probability
SciTegic.value.DoubleValue
98.85

@<SCITEGIC>MOL_PROPERTY
Delta G
SciTegic.value.DoubleValue
2.118

@<SCITEGIC>MOL_PROPERTY
G
SciTegic.value.DoubleValue
64.193

@<SCITEGIC>MOL_PROPERTY
E
SciTegic.value.DoubleValue
31.541

@<SCITEGIC>MOL_PROPERTY
-TS
SciTegic.value.DoubleValue
32.652

@<SCITEGIC>MOL_PROPERTY
U+W
SciTegic.value.DoubleValue
10.974

@<SCITEGIC>MOL_PROPERTY
U
SciTegic.value.DoubleValue
12.265

@<SCITEGIC>MOL_PROPERTY
W
SciTegic.value.DoubleValue
-1.291

@<SCITEGIC>MOL_PROPERTY
W(PB)
SciTegic.value.DoubleValue
-3.431

@<SCITEGIC>MOL_PROPERTY
W(SA)
SciTegic.value.DoubleValue
2.140

@<SCITEGIC>MOL_PROPERTY
Valence
SciTegic.value.DoubleValue
19.257

@<SCITEGIC>MOL_PROPERTY
Coulomb
SciTegic.value.DoubleValue
-9.838

@<SCITEGIC>MOL_PROPERTY
VdW
SciTegic.value.DoubleValue
2.845

@<SCITEGIC>MOL_PROPERTY
VdW6
SciTegic.value.DoubleValue
-13.716

@<SCITEGIC>MOL_PROPERTY
VdW12
SciTegic.value.DoubleValue
16.562

@<SCITEGIC>MOL_PROPERTY
Bond
SciTegic.value.DoubleValue
0.508

@<SCITEGIC>MOL_PROPERTY
Angle
SciTegic.value.DoubleValue
6.449

@<SCITEGIC>MOL_PROPERTY
Pdih
SciTegic.value.DoubleValue
12.301

@<SCITEGIC>MOL_PROPERTY
Idih
SciTegic.value.DoubleValue
0.000

@<SCITEGIC>MOL_PROPERTY
Tether
SciTegic.value.DoubleValue
0.000

@<TRIPOS>MOLECULE
guest-s17_vm2.mol2 : vm2 ligand conformer 71
          25          25           1
SMALL
USER_CHARGES
 
@<TRIPOS>ATOM
       1    C1      20.947125   19.395739   20.769066 C.3        1 MOL1        -0.1684
       2    H1      21.046866   19.429973   19.675520 H          1 MOL1         0.0833
       3    H2      21.869401   19.853523   21.148567 H          1 MOL1         0.0833
       4    C2      20.874138   17.898913   21.170751 C.3        1 MOL1        -0.1684
       5    H3      20.148858   17.391313   20.520364 H          1 MOL1         0.0833
       6    H4      21.846774   17.438690   20.949597 H          1 MOL1         0.0833
       7    C3      20.503763   17.591755   22.641912 C.3        1 MOL1        -0.1684
       8    H5      20.706615   16.529226   22.832161 H          1 MOL1         0.0833
       9    H6      19.421337   17.697051   22.779582 H          1 MOL1         0.0833
      10    C4      21.280032   18.439804   23.684109 C.3        1 MOL1        -0.1760
      11    H7      21.802647   17.760569   24.370483 H          1 MOL1         0.0833
      12    H8      22.079035   19.015031   23.204389 H          1 MOL1         0.0833
      13    C5      20.405140   19.395512   24.529908 C.3        1 MOL1         0.1219
      14    H9      21.085218   20.099161   25.031365 H          1 MOL1         0.0790
      15    C6      19.345961   20.224195   23.759298 C.3        1 MOL1        -0.1760
      16    H10     18.492099   19.595712   23.477366 H          1 MOL1         0.0833
      17    H11     18.938550   20.956378   24.468614 H          1 MOL1         0.0833
      18    C7      19.856004   21.007033   22.521822 C.3        1 MOL1        -0.1684
      19    H12     20.882711   21.363164   22.680921 H          1 MOL1         0.0833
      20    H13     19.242439   21.915216   22.444682 H          1 MOL1         0.0833
      21    C8      19.725166   20.261134   21.164996 C.3        1 MOL1        -0.1684
      22    H14     18.799710   19.671137   21.123975 H          1 MOL1         0.0833
      23    H15     19.614250   21.030299   20.388315 H          1 MOL1         0.0833
      24    O1      19.726671   18.628915   25.518138 O.3        1 MOL1        -0.5508
      25    H16     19.222550   19.261943   26.070092 H          1 MOL1         0.3780
@<TRIPOS>BOND
    1     1     2    1
    2     1     3    1
    3     1     4    1
    4     4     5    1
    5     4     6    1
    6     4     7    1
    7     7     8    1
    8     7     9    1
    9     7    10    1
   10    10    11    1
   11    10    12    1
   12    10    13    1
   13    13    14    1
   14    13    15    1
   15    15    16    1
   16    15    17    1
   17    15    18    1
   18    18    19    1
   19    18    20    1
   20     1    21    1
   21    18    21    1
   22    21    22    1
   23    21    23    1
   24    13    24    1
   25    24    25    1
@<TRIPOS>SUBSTRUCTURE
       1 MOL1            1 RESIDUE      1      MOL     
@<SCITEGIC>MOL_PROPERTY
VM2 Rank
SciTegic.value.IntegerValue
71

@<SCITEGIC>MOL_PROPERTY
Conf_Id
SciTegic.value.IntegerValue
1293

@<SCITEGIC>MOL_PROPERTY
Probability
SciTegic.value.DoubleValue
0.14

@<SCITEGIC>MOL_PROPERTY
Sum Probability
SciTegic.value.DoubleValue
98.99

@<SCITEGIC>MOL_PROPERTY
Delta G
SciTegic.value.DoubleValue
2.130

@<SCITEGIC>MOL_PROPERTY
G
SciTegic.value.DoubleValue
64.205

@<SCITEGIC>MOL_PROPERTY
E
SciTegic.value.DoubleValue
31.906

@<SCITEGIC>MOL_PROPERTY
-TS
SciTegic.value.DoubleValue
32.299

@<SCITEGIC>MOL_PROPERTY
U+W
SciTegic.value.DoubleValue
11.339

@<SCITEGIC>MOL_PROPERTY
U
SciTegic.value.DoubleValue
13.665

@<SCITEGIC>MOL_PROPERTY
W
SciTegic.value.DoubleValue
-2.326

@<SCITEGIC>MOL_PROPERTY
W(PB)
SciTegic.value.DoubleValue
-4.462

@<SCITEGIC>MOL_PROPERTY
W(SA)
SciTegic.value.DoubleValue
2.136

@<SCITEGIC>MOL_PROPERTY
Valence
SciTegic.value.DoubleValue
18.607

@<SCITEGIC>MOL_PROPERTY
Coulomb
SciTegic.value.DoubleValue
-7.778

@<SCITEGIC>MOL_PROPERTY
VdW
SciTegic.value.DoubleValue
2.836

@<SCITEGIC>MOL_PROPERTY
VdW6
SciTegic.value.DoubleValue
-12.472

@<SCITEGIC>MOL_PROPERTY
VdW12
SciTegic.value.DoubleValue
15.308

@<SCITEGIC>MOL_PROPERTY
Bond
SciTegic.value.DoubleValue
0.426

@<SCITEGIC>MOL_PROPERTY
Angle
SciTegic.value.DoubleValue
4.743

@<SCITEGIC>MOL_PROPERTY
Pdih
SciTegic.value.DoubleValue
13.438

@<SCITEGIC>MOL_PROPERTY
Idih
SciTegic.value.DoubleValue
0.000

@<SCITEGIC>MOL_PROPERTY
Tether
SciTegic.value.DoubleValue
0.000

@<TRIPOS>MOLECULE
guest-s17_vm2.mol2 : vm2 ligand conformer 72
          25          25           1
SMALL
USER_CHARGES
 
@<TRIPOS>ATOM
       1    C1      20.924822   19.541281   20.780636 C.3        1 MOL1        -0.1684
       2    H1      21.037114   19.593359   19.689013 H          1 MOL1         0.0833
       3    H2      21.894311   19.868036   21.177499 H          1 MOL1         0.0833
       4    C2      20.666937   18.063168   21.164731 C.3        1 MOL1        -0.1684
       5    H3      19.596239   17.825858   21.105274 H          1 MOL1         0.0833
       6    H4      21.145029   17.445073   20.392372 H          1 MOL1         0.0833
       7    C3      21.265194   17.621334   22.529036 C.3        1 MOL1        -0.1684
       8    H5      22.240171   18.094913   22.706268 H          1 MOL1         0.0833
       9    H6      21.475094   16.545768   22.449630 H          1 MOL1         0.0833
      10    C4      20.331201   17.807521   23.752686 C.3        1 MOL1        -0.1760
      11    H7      19.287736   17.649322   23.453166 H          1 MOL1         0.0833
      12    H8      20.549749   16.998086   24.461387 H          1 MOL1         0.0833
      13    C5      20.481317   19.138450   24.532752 C.3        1 MOL1         0.1219
      14    H9      21.451631   19.119477   25.049684 H          1 MOL1         0.0790
      15    C6      20.437168   20.437271   23.692927 C.3        1 MOL1        -0.1760
      16    H10     20.315042   21.283459   24.381870 H          1 MOL1         0.0833
      17    H11     21.416401   20.598368   23.229703 H          1 MOL1         0.0833
      18    C7      19.305454   20.493083   22.632705 C.3        1 MOL1        -0.1684
      19    H12     18.694224   21.386636   22.817828 H          1 MOL1         0.0833
      20    H13     18.612745   19.652302   22.754883 H          1 MOL1         0.0833
      21    C8      19.808084   20.545627   21.169680 C.3        1 MOL1        -0.1684
      22    H14     18.946927   20.394833   20.504577 H          1 MOL1         0.0833
      23    H15     20.173516   21.560066   20.959668 H          1 MOL1         0.0833
      24    O1      19.443822   19.195266   25.504847 O.3        1 MOL1        -0.5508
      25    H16     19.526475   18.388339   26.053984 H          1 MOL1         0.3780
@<TRIPOS>BOND
    1     1     2    1
    2     1     3    1
    3     1     4    1
    4     4     5    1
    5     4     6    1
    6     4     7    1
    7     7     8    1
    8     7     9    1
    9     7    10    1
   10    10    11    1
   11    10    12    1
   12    10    13    1
   13    13    14    1
   14    13    15    1
   15    15    16    1
   16    15    17    1
   17    15    18    1
   18    18    19    1
   19    18    20    1
   20     1    21    1
   21    18    21    1
   22    21    22    1
   23    21    23    1
   24    13    24    1
   25    24    25    1
@<TRIPOS>SUBSTRUCTURE
       1 MOL1            1 RESIDUE      1      MOL     
@<SCITEGIC>MOL_PROPERTY
VM2 Rank
SciTegic.value.IntegerValue
72

@<SCITEGIC>MOL_PROPERTY
Conf_Id
SciTegic.value.IntegerValue
1316

@<SCITEGIC>MOL_PROPERTY
Probability
SciTegic.value.DoubleValue
0.13

@<SCITEGIC>MOL_PROPERTY
Sum Probability
SciTegic.value.DoubleValue
99.12

@<SCITEGIC>MOL_PROPERTY
Delta G
SciTegic.value.DoubleValue
2.169

@<SCITEGIC>MOL_PROPERTY
G
SciTegic.value.DoubleValue
64.244

@<SCITEGIC>MOL_PROPERTY
E
SciTegic.value.DoubleValue
31.946

@<SCITEGIC>MOL_PROPERTY
-TS
SciTegic.value.DoubleValue
32.299

@<SCITEGIC>MOL_PROPERTY
U+W
SciTegic.value.DoubleValue
11.378

@<SCITEGIC>MOL_PROPERTY
U
SciTegic.value.DoubleValue
13.665

@<SCITEGIC>MOL_PROPERTY
W
SciTegic.value.DoubleValue
-2.287

@<SCITEGIC>MOL_PROPERTY
W(PB)
SciTegic.value.DoubleValue
-4.435

@<SCITEGIC>MOL_PROPERTY
W(SA)
SciTegic.value.DoubleValue
2.148

@<SCITEGIC>MOL_PROPERTY
Valence
SciTegic.value.DoubleValue
18.607

@<SCITEGIC>MOL_PROPERTY
Coulomb
SciTegic.value.DoubleValue
-7.778

@<SCITEGIC>MOL_PROPERTY
VdW
SciTegic.value.DoubleValue
2.836

@<SCITEGIC>MOL_PROPERTY
VdW6
SciTegic.value.DoubleValue
-12.472

@<SCITEGIC>MOL_PROPERTY
VdW12
SciTegic.value.DoubleValue
15.307

@<SCITEGIC>MOL_PROPERTY
Bond
SciTegic.value.DoubleValue
0.426

@<SCITEGIC>MOL_PROPERTY
Angle
SciTegic.value.DoubleValue
4.743

@<SCITEGIC>MOL_PROPERTY
Pdih
SciTegic.value.DoubleValue
13.438

@<SCITEGIC>MOL_PROPERTY
Idih
SciTegic.value.DoubleValue
0.000

@<SCITEGIC>MOL_PROPERTY
Tether
SciTegic.value.DoubleValue
0.000

@<TRIPOS>MOLECULE
guest-s17_vm2.mol2 : vm2 ligand conformer 73
          25          25           1
SMALL
USER_CHARGES
 
@<TRIPOS>ATOM
       1    C1      20.239537   19.146880   20.607402 C.3        1 MOL1        -0.1684
       2    H1      20.599072   19.324887   19.584722 H          1 MOL1         0.0833
       3    H2      19.198808   18.811896   20.501223 H          1 MOL1         0.0833
       4    C2      21.100514   18.013220   21.212834 C.3        1 MOL1        -0.1684
       5    H3      21.001321   17.138229   20.556007 H          1 MOL1         0.0833
       6    H4      22.163383   18.288093   21.179396 H          1 MOL1         0.0833
       7    C3      20.703264   17.584109   22.644971 C.3        1 MOL1        -0.1684
       8    H5      21.037161   16.546583   22.781756 H          1 MOL1         0.0833
       9    H6      19.610099   17.549520   22.735048 H          1 MOL1         0.0833
      10    C4      21.357818   18.436379   23.771665 C.3        1 MOL1        -0.1760
      11    H7      21.853283   17.745660   24.466296 H          1 MOL1         0.0833
      12    H8      22.167745   19.055565   23.366055 H          1 MOL1         0.0833
      13    C5      20.412785   19.328152   24.614815 C.3        1 MOL1         0.1219
      14    H9      20.966539   19.595849   25.526364 H          1 MOL1         0.0790
      15    C6      20.003642   20.666853   23.956322 C.3        1 MOL1        -0.1760
      16    H10     19.318221   21.172381   24.649232 H          1 MOL1         0.0833
      17    H11     20.881626   21.321577   23.886686 H          1 MOL1         0.0833
      18    C7      19.308800   20.573142   22.574575 C.3        1 MOL1        -0.1684
      19    H12     18.705877   21.482436   22.447041 H          1 MOL1         0.0833
      20    H13     18.587848   19.744999   22.566229 H          1 MOL1         0.0833
      21    C8      20.288077   20.489324   21.373540 C.3        1 MOL1        -0.1684
      22    H14     21.318510   20.714997   21.678156 H          1 MOL1         0.0833
      23    H15     20.012987   21.283437   20.665925 H          1 MOL1         0.0833
      24    O1      19.249563   18.604940   25.003875 O.3        1 MOL1        -0.5508
      25    H16     19.560800   17.737569   25.333981 H          1 MOL1         0.3780
@<TRIPOS>BOND
    1     1     2    1
    2     1     3    1
    3     1     4    1
    4     4     5    1
    5     4     6    1
    6     4     7    1
    7     7     8    1
    8     7     9    1
    9     7    10    1
   10    10    11    1
   11    10    12    1
   12    10    13    1
   13    13    14    1
   14    13    15    1
   15    15    16    1
   16    15    17    1
   17    15    18    1
   18    18    19    1
   19    18    20    1
   20     1    21    1
   21    18    21    1
   22    21    22    1
   23    21    23    1
   24    13    24    1
   25    24    25    1
@<TRIPOS>SUBSTRUCTURE
       1 MOL1            1 RESIDUE      1      MOL     
@<SCITEGIC>MOL_PROPERTY
VM2 Rank
SciTegic.value.IntegerValue
73

@<SCITEGIC>MOL_PROPERTY
Conf_Id
SciTegic.value.IntegerValue
318

@<SCITEGIC>MOL_PROPERTY
Probability
SciTegic.value.DoubleValue
0.13

@<SCITEGIC>MOL_PROPERTY
Sum Probability
SciTegic.value.DoubleValue
99.24

@<SCITEGIC>MOL_PROPERTY
Delta G
SciTegic.value.DoubleValue
2.178

@<SCITEGIC>MOL_PROPERTY
G
SciTegic.value.DoubleValue
64.253

@<SCITEGIC>MOL_PROPERTY
E
SciTegic.value.DoubleValue
32.151

@<SCITEGIC>MOL_PROPERTY
-TS
SciTegic.value.DoubleValue
32.102

@<SCITEGIC>MOL_PROPERTY
U+W
SciTegic.value.DoubleValue
11.583

@<SCITEGIC>MOL_PROPERTY
U
SciTegic.value.DoubleValue
13.660

@<SCITEGIC>MOL_PROPERTY
W
SciTegic.value.DoubleValue
-2.077

@<SCITEGIC>MOL_PROPERTY
W(PB)
SciTegic.value.DoubleValue
-4.202

@<SCITEGIC>MOL_PROPERTY
W(SA)
SciTegic.value.DoubleValue
2.125

@<SCITEGIC>MOL_PROPERTY
Valence
SciTegic.value.DoubleValue
18.998

@<SCITEGIC>MOL_PROPERTY
Coulomb
SciTegic.value.DoubleValue
-7.829

@<SCITEGIC>MOL_PROPERTY
VdW
SciTegic.value.DoubleValue
2.491

@<SCITEGIC>MOL_PROPERTY
VdW6
SciTegic.value.DoubleValue
-12.613

@<SCITEGIC>MOL_PROPERTY
VdW12
SciTegic.value.DoubleValue
15.104

@<SCITEGIC>MOL_PROPERTY
Bond
SciTegic.value.DoubleValue
0.387

@<SCITEGIC>MOL_PROPERTY
Angle
SciTegic.value.DoubleValue
4.271

@<SCITEGIC>MOL_PROPERTY
Pdih
SciTegic.value.DoubleValue
14.339

@<SCITEGIC>MOL_PROPERTY
Idih
SciTegic.value.DoubleValue
0.000

@<SCITEGIC>MOL_PROPERTY
Tether
SciTegic.value.DoubleValue
0.000

@<TRIPOS>MOLECULE
guest-s17_vm2.mol2 : vm2 ligand conformer 74
          25          25           1
SMALL
USER_CHARGES
 
@<TRIPOS>ATOM
       1    C1      19.896170   19.004861   20.786606 C.3        1 MOL1        -0.1684
       2    H1      18.941201   18.619890   21.166367 H          1 MOL1         0.0833
       3    H2      19.772999   19.033002   19.695297 H          1 MOL1         0.0833
       4    C2      21.045554   18.007213   21.088063 C.3        1 MOL1        -0.1684
       5    H3      20.705465   17.000620   20.808964 H          1 MOL1         0.0833
       6    H4      21.892652   18.230626   20.425296 H          1 MOL1         0.0833
       7    C3      21.566864   17.968603   22.544816 C.3        1 MOL1        -0.1684
       8    H5      22.233585   18.821567   22.717100 H          1 MOL1         0.0833
       9    H6      22.209177   17.084162   22.654216 H          1 MOL1         0.0833
      10    C4      20.448479   17.908982   23.618145 C.3        1 MOL1        -0.1760
      11    H7      19.466932   17.760476   23.153907 H          1 MOL1         0.0833
      12    H8      20.609704   17.015825   24.235477 H          1 MOL1         0.0833
      13    C5      20.399745   19.134871   24.559074 C.3        1 MOL1         0.1219
      14    H9      21.258193   19.065263   25.242704 H          1 MOL1         0.0790
      15    C6      20.474732   20.527313   23.879475 C.3        1 MOL1        -0.1760
      16    H10     20.244762   21.272100   24.652939 H          1 MOL1         0.0833
      17    H11     21.506976   20.747296   23.582417 H          1 MOL1         0.0833
      18    C7      19.518820   20.772037   22.682033 C.3        1 MOL1        -0.1684
      19    H12     18.564406   20.250324   22.835056 H          1 MOL1         0.0833
      20    H13     19.268616   21.841636   22.688605 H          1 MOL1         0.0833
      21    C8      20.113861   20.456416   21.281429 C.3        1 MOL1        -0.1684
      22    H14     21.175727   20.731724   21.229446 H          1 MOL1         0.0833
      23    H15     19.606855   21.116743   20.564506 H          1 MOL1         0.0833
      24    O1      19.199775   19.062704   25.320361 O.3        1 MOL1        -0.5508
      25    H16     19.203088   18.192588   25.770193 H          1 MOL1         0.3780
@<TRIPOS>BOND
    1     1     2    1
    2     1     3    1
    3     1     4    1
    4     4     5    1
    5     4     6    1
    6     4     7    1
    7     7     8    1
    8     7     9    1
    9     7    10    1
   10    10    11    1
   11    10    12    1
   12    10    13    1
   13    13    14    1
   14    13    15    1
   15    15    16    1
   16    15    17    1
   17    15    18    1
   18    18    19    1
   19    18    20    1
   20     1    21    1
   21    18    21    1
   22    21    22    1
   23    21    23    1
   24    13    24    1
   25    24    25    1
@<TRIPOS>SUBSTRUCTURE
       1 MOL1            1 RESIDUE      1      MOL     
@<SCITEGIC>MOL_PROPERTY
VM2 Rank
SciTegic.value.IntegerValue
74

@<SCITEGIC>MOL_PROPERTY
Conf_Id
SciTegic.value.IntegerValue
1056

@<SCITEGIC>MOL_PROPERTY
Probability
SciTegic.value.DoubleValue
0.11

@<SCITEGIC>MOL_PROPERTY
Sum Probability
SciTegic.value.DoubleValue
99.35

@<SCITEGIC>MOL_PROPERTY
Delta G
SciTegic.value.DoubleValue
2.274

@<SCITEGIC>MOL_PROPERTY
G
SciTegic.value.DoubleValue
64.350

@<SCITEGIC>MOL_PROPERTY
E
SciTegic.value.DoubleValue
32.026

@<SCITEGIC>MOL_PROPERTY
-TS
SciTegic.value.DoubleValue
32.323

@<SCITEGIC>MOL_PROPERTY
U+W
SciTegic.value.DoubleValue
11.459

@<SCITEGIC>MOL_PROPERTY
U
SciTegic.value.DoubleValue
13.691

@<SCITEGIC>MOL_PROPERTY
W
SciTegic.value.DoubleValue
-2.232

@<SCITEGIC>MOL_PROPERTY
W(PB)
SciTegic.value.DoubleValue
-4.350

@<SCITEGIC>MOL_PROPERTY
W(SA)
SciTegic.value.DoubleValue
2.119

@<SCITEGIC>MOL_PROPERTY
Valence
SciTegic.value.DoubleValue
18.570

@<SCITEGIC>MOL_PROPERTY
Coulomb
SciTegic.value.DoubleValue
-7.751

@<SCITEGIC>MOL_PROPERTY
VdW
SciTegic.value.DoubleValue
2.872

@<SCITEGIC>MOL_PROPERTY
VdW6
SciTegic.value.DoubleValue
-12.549

@<SCITEGIC>MOL_PROPERTY
VdW12
SciTegic.value.DoubleValue
15.421

@<SCITEGIC>MOL_PROPERTY
Bond
SciTegic.value.DoubleValue
0.436

@<SCITEGIC>MOL_PROPERTY
Angle
SciTegic.value.DoubleValue
4.707

@<SCITEGIC>MOL_PROPERTY
Pdih
SciTegic.value.DoubleValue
13.427

@<SCITEGIC>MOL_PROPERTY
Idih
SciTegic.value.DoubleValue
0.000

@<SCITEGIC>MOL_PROPERTY
Tether
SciTegic.value.DoubleValue
0.000

@<TRIPOS>MOLECULE
guest-s17_vm2.mol2 : vm2 ligand conformer 75
          25          25           1
SMALL
USER_CHARGES
 
@<TRIPOS>ATOM
       1    C1      19.855940   19.055238   20.790507 C.3        1 MOL1        -0.1684
       2    H1      18.910758   18.655284   21.179169 H          1 MOL1         0.0833
       3    H2      19.780294   18.943698   19.700208 H          1 MOL1         0.0833
       4    C2      21.038672   18.183051   21.280086 C.3        1 MOL1        -0.1684
       5    H3      21.140393   17.354412   20.565891 H          1 MOL1         0.0833
       6    H4      21.984618   18.737541   21.218564 H          1 MOL1         0.0833
       7    C3      20.850750   17.545389   22.684882 C.3        1 MOL1        -0.1684
       8    H5      21.428754   16.611279   22.691038 H          1 MOL1         0.0833
       9    H6      19.807695   17.241709   22.847125 H          1 MOL1         0.0833
      10    C4      21.364017   18.398666   23.874840 C.3        1 MOL1        -0.1760
      11    H7      21.732847   17.712139   24.648459 H          1 MOL1         0.0833
      12    H8      22.248078   18.970360   23.568626 H          1 MOL1         0.0833
      13    C5      20.333007   19.334758   24.558305 C.3        1 MOL1         0.1219
      14    H9      20.896980   19.993026   25.234875 H          1 MOL1         0.0790
      15    C6      19.494894   20.233337   23.619876 C.3        1 MOL1        -0.1760
      16    H10     18.691420   19.643567   23.164238 H          1 MOL1         0.0833
      17    H11     18.983189   20.982334   24.237925 H          1 MOL1         0.0833
      18    C7      20.320838   20.976108   22.537062 C.3        1 MOL1        -0.1684
      19    H12     21.396492   20.843452   22.701729 H          1 MOL1         0.0833
      20    H13     20.152132   22.056410   22.643151 H          1 MOL1         0.0833
      21    C8      19.967828   20.574521   21.084652 C.3        1 MOL1        -0.1684
      22    H14     19.014197   21.046093   20.810801 H          1 MOL1         0.0833
      23    H15     20.720391   21.011534   20.414266 H          1 MOL1         0.0833
      24    O1      19.438054   18.541933   25.329789 O.3        1 MOL1        -0.5508
      25    H16     18.829428   19.162397   25.781518 H          1 MOL1         0.3780
@<TRIPOS>BOND
    1     1     2    1
    2     1     3    1
    3     1     4    1
    4     4     5    1
    5     4     6    1
    6     4     7    1
    7     7     8    1
    8     7     9    1
    9     7    10    1
   10    10    11    1
   11    10    12    1
   12    10    13    1
   13    13    14    1
   14    13    15    1
   15    15    16    1
   16    15    17    1
   17    15    18    1
   18    18    19    1
   19    18    20    1
   20     1    21    1
   21    18    21    1
   22    21    22    1
   23    21    23    1
   24    13    24    1
   25    24    25    1
@<TRIPOS>SUBSTRUCTURE
       1 MOL1            1 RESIDUE      1      MOL     
@<SCITEGIC>MOL_PROPERTY
VM2 Rank
SciTegic.value.IntegerValue
75

@<SCITEGIC>MOL_PROPERTY
Conf_Id
SciTegic.value.IntegerValue
880

@<SCITEGIC>MOL_PROPERTY
Probability
SciTegic.value.DoubleValue
0.10

@<SCITEGIC>MOL_PROPERTY
Sum Probability
SciTegic.value.DoubleValue
99.45

@<SCITEGIC>MOL_PROPERTY
Delta G
SciTegic.value.DoubleValue
2.299

@<SCITEGIC>MOL_PROPERTY
G
SciTegic.value.DoubleValue
64.375

@<SCITEGIC>MOL_PROPERTY
E
SciTegic.value.DoubleValue
32.051

@<SCITEGIC>MOL_PROPERTY
-TS
SciTegic.value.DoubleValue
32.324

@<SCITEGIC>MOL_PROPERTY
U+W
SciTegic.value.DoubleValue
11.484

@<SCITEGIC>MOL_PROPERTY
U
SciTegic.value.DoubleValue
13.691

@<SCITEGIC>MOL_PROPERTY
W
SciTegic.value.DoubleValue
-2.207

@<SCITEGIC>MOL_PROPERTY
W(PB)
SciTegic.value.DoubleValue
-4.339

@<SCITEGIC>MOL_PROPERTY
W(SA)
SciTegic.value.DoubleValue
2.132

@<SCITEGIC>MOL_PROPERTY
Valence
SciTegic.value.DoubleValue
18.570

@<SCITEGIC>MOL_PROPERTY
Coulomb
SciTegic.value.DoubleValue
-7.751

@<SCITEGIC>MOL_PROPERTY
VdW
SciTegic.value.DoubleValue
2.872

@<SCITEGIC>MOL_PROPERTY
VdW6
SciTegic.value.DoubleValue
-12.549

@<SCITEGIC>MOL_PROPERTY
VdW12
SciTegic.value.DoubleValue
15.421

@<SCITEGIC>MOL_PROPERTY
Bond
SciTegic.value.DoubleValue
0.436

@<SCITEGIC>MOL_PROPERTY
Angle
SciTegic.value.DoubleValue
4.706

@<SCITEGIC>MOL_PROPERTY
Pdih
SciTegic.value.DoubleValue
13.427

@<SCITEGIC>MOL_PROPERTY
Idih
SciTegic.value.DoubleValue
0.000

@<SCITEGIC>MOL_PROPERTY
Tether
SciTegic.value.DoubleValue
0.000

@<TRIPOS>MOLECULE
guest-s17_vm2.mol2 : vm2 ligand conformer 76
          25          25           1
SMALL
USER_CHARGES
 
@<TRIPOS>ATOM
       1    C1      20.230356   19.145802   20.610623 C.3        1 MOL1        -0.1684
       2    H1      19.191360   18.802083   20.516075 H          1 MOL1         0.0833
       3    H2      20.579451   19.319912   19.583658 H          1 MOL1         0.0833
       4    C2      21.106193   18.023947   21.215553 C.3        1 MOL1        -0.1684
       5    H3      21.023352   17.150632   20.554252 H          1 MOL1         0.0833
       6    H4      22.164875   18.314999   21.188230 H          1 MOL1         0.0833
       7    C3      20.708118   17.580282   22.643121 C.3        1 MOL1        -0.1684
       8    H5      21.046706   16.543110   22.769973 H          1 MOL1         0.0833
       9    H6      19.615397   17.537729   22.735481 H          1 MOL1         0.0833
      10    C4      21.356083   18.419745   23.782880 C.3        1 MOL1        -0.1760
      11    H7      21.820279   17.716865   24.486731 H          1 MOL1         0.0833
      12    H8      22.185527   19.024157   23.395116 H          1 MOL1         0.0833
      13    C5      20.411432   19.322342   24.615256 C.3        1 MOL1         0.1219
      14    H9      20.959967   19.584210   25.531649 H          1 MOL1         0.0790
      15    C6      20.026356   20.665611   23.951759 C.3        1 MOL1        -0.1760
      16    H10     19.365508   21.199811   24.646769 H          1 MOL1         0.0833
      17    H11     20.920559   21.296177   23.865341 H          1 MOL1         0.0833
      18    C7      19.312840   20.578239   22.579372 C.3        1 MOL1        -0.1684
      19    H12     18.714105   21.491637   22.461125 H          1 MOL1         0.0833
      20    H13     18.587323   19.754005   22.575002 H          1 MOL1         0.0833
      21    C8      20.277191   20.493380   21.366842 C.3        1 MOL1        -0.1684
      22    H14     19.986539   21.279908   20.656955 H          1 MOL1         0.0833
      23    H15     21.309765   20.729103   21.656474 H          1 MOL1         0.0833
      24    O1      19.235431   18.613653   24.994595 O.3        1 MOL1        -0.5508
      25    H16     18.677902   19.242416   25.496318 H          1 MOL1         0.3780
@<TRIPOS>BOND
    1     1     2    1
    2     1     3    1
    3     1     4    1
    4     4     5    1
    5     4     6    1
    6     4     7    1
    7     7     8    1
    8     7     9    1
    9     7    10    1
   10    10    11    1
   11    10    12    1
   12    10    13    1
   13    13    14    1
   14    13    15    1
   15    15    16    1
   16    15    17    1
   17    15    18    1
   18    18    19    1
   19    18    20    1
   20     1    21    1
   21    18    21    1
   22    21    22    1
   23    21    23    1
   24    13    24    1
   25    24    25    1
@<TRIPOS>SUBSTRUCTURE
       1 MOL1            1 RESIDUE      1      MOL     
@<SCITEGIC>MOL_PROPERTY
VM2 Rank
SciTegic.value.IntegerValue
76

@<SCITEGIC>MOL_PROPERTY
Conf_Id
SciTegic.value.IntegerValue
877

@<SCITEGIC>MOL_PROPERTY
Probability
SciTegic.value.DoubleValue
0.10

@<SCITEGIC>MOL_PROPERTY
Sum Probability
SciTegic.value.DoubleValue
99.55

@<SCITEGIC>MOL_PROPERTY
Delta G
SciTegic.value.DoubleValue
2.304

@<SCITEGIC>MOL_PROPERTY
G
SciTegic.value.DoubleValue
64.380

@<SCITEGIC>MOL_PROPERTY
E
SciTegic.value.DoubleValue
32.415

@<SCITEGIC>MOL_PROPERTY
-TS
SciTegic.value.DoubleValue
31.965

@<SCITEGIC>MOL_PROPERTY
U+W
SciTegic.value.DoubleValue
11.847

@<SCITEGIC>MOL_PROPERTY
U
SciTegic.value.DoubleValue
14.106

@<SCITEGIC>MOL_PROPERTY
W
SciTegic.value.DoubleValue
-2.259

@<SCITEGIC>MOL_PROPERTY
W(PB)
SciTegic.value.DoubleValue
-4.387

@<SCITEGIC>MOL_PROPERTY
W(SA)
SciTegic.value.DoubleValue
2.129

@<SCITEGIC>MOL_PROPERTY
Valence
SciTegic.value.DoubleValue
19.024

@<SCITEGIC>MOL_PROPERTY
Coulomb
SciTegic.value.DoubleValue
-7.308

@<SCITEGIC>MOL_PROPERTY
VdW
SciTegic.value.DoubleValue
2.390

@<SCITEGIC>MOL_PROPERTY
VdW6
SciTegic.value.DoubleValue
-12.496

@<SCITEGIC>MOL_PROPERTY
VdW12
SciTegic.value.DoubleValue
14.886

@<SCITEGIC>MOL_PROPERTY
Bond
SciTegic.value.DoubleValue
0.376

@<SCITEGIC>MOL_PROPERTY
Angle
SciTegic.value.DoubleValue
4.356

@<SCITEGIC>MOL_PROPERTY
Pdih
SciTegic.value.DoubleValue
14.291

@<SCITEGIC>MOL_PROPERTY
Idih
SciTegic.value.DoubleValue
0.000

@<SCITEGIC>MOL_PROPERTY
Tether
SciTegic.value.DoubleValue
0.000

@<TRIPOS>MOLECULE
guest-s17_vm2.mol2 : vm2 ligand conformer 77
          25          25           1
SMALL
USER_CHARGES
 
@<TRIPOS>ATOM
       1    C1      20.236215   19.185788   20.609756 C.3        1 MOL1        -0.1684
       2    H1      19.282386   18.651010   20.505758 H          1 MOL1         0.0833
       3    H2      20.613152   19.321001   19.586782 H          1 MOL1         0.0833
       4    C2      21.252304   18.313969   21.382755 C.3        1 MOL1        -0.1684
       5    H3      21.645040   17.565257   20.681161 H          1 MOL1         0.0833
       6    H4      22.119710   18.917820   21.680465 H          1 MOL1         0.0833
       7    C3      20.648644   17.550913   22.591369 C.3        1 MOL1        -0.1684
       8    H5      20.919497   16.492003   22.481341 H          1 MOL1         0.0833
       9    H6      19.550934   17.572277   22.573222 H          1 MOL1         0.0833
      10    C4      21.177748   18.024504   23.968304 C.3        1 MOL1        -0.1760
      11    H7      21.116789   17.179564   24.666510 H          1 MOL1         0.0833
      12    H8      22.247670   18.257847   23.894158 H          1 MOL1         0.0833
      13    C5      20.438858   19.218640   24.617124 C.3        1 MOL1         0.1219
      14    H9      20.990989   19.450676   25.539379 H          1 MOL1         0.0790
      15    C6      20.421387   20.520991   23.778390 C.3        1 MOL1        -0.1760
      16    H10     20.207765   21.341278   24.475827 H          1 MOL1         0.0833
      17    H11     21.432015   20.722821   23.402162 H          1 MOL1         0.0833
      18    C7      19.378870   20.604596   22.625229 C.3        1 MOL1        -0.1684
      19    H12     18.840955   21.555223   22.741051 H          1 MOL1         0.0833
      20    H13     18.608547   19.827732   22.711622 H          1 MOL1         0.0833
      21    C8      19.992559   20.592084   21.205201 C.3        1 MOL1        -0.1684
      22    H14     19.300684   21.117523   20.532828 H          1 MOL1         0.0833
      23    H15     20.922333   21.176415   21.186696 H          1 MOL1         0.0833
      24    O1      19.117415   18.831515   24.981871 O.3        1 MOL1        -0.5508
      25    H16     19.198441   17.998026   25.488468 H          1 MOL1         0.3780
@<TRIPOS>BOND
    1     1     2    1
    2     1     3    1
    3     1     4    1
    4     4     5    1
    5     4     6    1
    6     4     7    1
    7     7     8    1
    8     7     9    1
    9     7    10    1
   10    10    11    1
   11    10    12    1
   12    10    13    1
   13    13    14    1
   14    13    15    1
   15    15    16    1
   16    15    17    1
   17    15    18    1
   18    18    19    1
   19    18    20    1
   20     1    21    1
   21    18    21    1
   22    21    22    1
   23    21    23    1
   24    13    24    1
   25    24    25    1
@<TRIPOS>SUBSTRUCTURE
       1 MOL1            1 RESIDUE      1      MOL     
@<SCITEGIC>MOL_PROPERTY
VM2 Rank
SciTegic.value.IntegerValue
77

@<SCITEGIC>MOL_PROPERTY
Conf_Id
SciTegic.value.IntegerValue
1010

@<SCITEGIC>MOL_PROPERTY
Probability
SciTegic.value.DoubleValue
0.10

@<SCITEGIC>MOL_PROPERTY
Sum Probability
SciTegic.value.DoubleValue
99.65

@<SCITEGIC>MOL_PROPERTY
Delta G
SciTegic.value.DoubleValue
2.306

@<SCITEGIC>MOL_PROPERTY
G
SciTegic.value.DoubleValue
64.381

@<SCITEGIC>MOL_PROPERTY
E
SciTegic.value.DoubleValue
32.417

@<SCITEGIC>MOL_PROPERTY
-TS
SciTegic.value.DoubleValue
31.964

@<SCITEGIC>MOL_PROPERTY
U+W
SciTegic.value.DoubleValue
11.849

@<SCITEGIC>MOL_PROPERTY
U
SciTegic.value.DoubleValue
14.106

@<SCITEGIC>MOL_PROPERTY
W
SciTegic.value.DoubleValue
-2.256

@<SCITEGIC>MOL_PROPERTY
W(PB)
SciTegic.value.DoubleValue
-4.382

@<SCITEGIC>MOL_PROPERTY
W(SA)
SciTegic.value.DoubleValue
2.126

@<SCITEGIC>MOL_PROPERTY
Valence
SciTegic.value.DoubleValue
19.024

@<SCITEGIC>MOL_PROPERTY
Coulomb
SciTegic.value.DoubleValue
-7.308

@<SCITEGIC>MOL_PROPERTY
VdW
SciTegic.value.DoubleValue
2.390

@<SCITEGIC>MOL_PROPERTY
VdW6
SciTegic.value.DoubleValue
-12.496

@<SCITEGIC>MOL_PROPERTY
VdW12
SciTegic.value.DoubleValue
14.887

@<SCITEGIC>MOL_PROPERTY
Bond
SciTegic.value.DoubleValue
0.376

@<SCITEGIC>MOL_PROPERTY
Angle
SciTegic.value.DoubleValue
4.356

@<SCITEGIC>MOL_PROPERTY
Pdih
SciTegic.value.DoubleValue
14.291

@<SCITEGIC>MOL_PROPERTY
Idih
SciTegic.value.DoubleValue
0.000

@<SCITEGIC>MOL_PROPERTY
Tether
SciTegic.value.DoubleValue
0.000

@<TRIPOS>MOLECULE
guest-s17_vm2.mol2 : vm2 ligand conformer 78
          25          25           1
SMALL
USER_CHARGES
 
@<TRIPOS>ATOM
       1    C1      20.386809   19.340659   20.720942 C.3        1 MOL1        -0.1684
       2    H1      19.871856   18.761068   19.942715 H          1 MOL1         0.0833
       3    H2      20.955539   20.114050   20.187362 H          1 MOL1         0.0833
       4    C2      21.378667   18.388193   21.437543 C.3        1 MOL1        -0.1684
       5    H3      21.832628   17.752414   20.665149 H          1 MOL1         0.0833
       6    H4      22.220327   18.953697   21.852978 H          1 MOL1         0.0833
       7    C3      20.757846   17.466589   22.520244 C.3        1 MOL1        -0.1684
       8    H5      21.200890   16.469198   22.396284 H          1 MOL1         0.0833
       9    H6      19.682724   17.319979   22.358739 H          1 MOL1         0.0833
      10    C4      21.041035   17.907848   23.982480 C.3        1 MOL1        -0.1760
      11    H7      20.748225   17.083252   24.645382 H          1 MOL1         0.0833
      12    H8      22.124981   18.016618   24.116315 H          1 MOL1         0.0833
      13    C5      20.347106   19.190727   24.509905 C.3        1 MOL1         0.1219
      14    H9      20.710187   19.311351   25.540836 H          1 MOL1         0.0790
      15    C6      20.732194   20.502394   23.772090 C.3        1 MOL1        -0.1760
      16    H10     20.800929   21.293888   24.529602 H          1 MOL1         0.0833
      17    H11     21.753083   20.417800   23.385646 H          1 MOL1         0.0833
      18    C7      19.787196   21.026468   22.653785 C.3        1 MOL1        -0.1684
      19    H12     20.285982   21.860206   22.141522 H          1 MOL1         0.0833
      20    H13     18.900470   21.465043   23.130728 H          1 MOL1         0.0833
      21    C8      19.295258   20.013263   21.590336 C.3        1 MOL1        -0.1684
      22    H14     18.624398   20.555763   20.910625 H          1 MOL1         0.0833
      23    H15     18.657098   19.253542   22.054066 H          1 MOL1         0.0833
      24    O1      18.937890   19.006859   24.572674 O.3        1 MOL1        -0.5508
      25    H16     18.553652   19.899347   24.682561 H          1 MOL1         0.3780
@<TRIPOS>BOND
    1     1     2    1
    2     1     3    1
    3     1     4    1
    4     4     5    1
    5     4     6    1
    6     4     7    1
    7     7     8    1
    8     7     9    1
    9     7    10    1
   10    10    11    1
   11    10    12    1
   12    10    13    1
   13    13    14    1
   14    13    15    1
   15    15    16    1
   16    15    17    1
   17    15    18    1
   18    18    19    1
   19    18    20    1
   20     1    21    1
   21    18    21    1
   22    21    22    1
   23    21    23    1
   24    13    24    1
   25    24    25    1
@<TRIPOS>SUBSTRUCTURE
       1 MOL1            1 RESIDUE      1      MOL     
@<SCITEGIC>MOL_PROPERTY
VM2 Rank
SciTegic.value.IntegerValue
78

@<SCITEGIC>MOL_PROPERTY
Conf_Id
SciTegic.value.IntegerValue
971

@<SCITEGIC>MOL_PROPERTY
Probability
SciTegic.value.DoubleValue
0.08

@<SCITEGIC>MOL_PROPERTY
Sum Probability
SciTegic.value.DoubleValue
99.73

@<SCITEGIC>MOL_PROPERTY
Delta G
SciTegic.value.DoubleValue
2.448

@<SCITEGIC>MOL_PROPERTY
G
SciTegic.value.DoubleValue
64.523

@<SCITEGIC>MOL_PROPERTY
E
SciTegic.value.DoubleValue
31.845

@<SCITEGIC>MOL_PROPERTY
-TS
SciTegic.value.DoubleValue
32.678

@<SCITEGIC>MOL_PROPERTY
U+W
SciTegic.value.DoubleValue
11.278

@<SCITEGIC>MOL_PROPERTY
U
SciTegic.value.DoubleValue
13.108

@<SCITEGIC>MOL_PROPERTY
W
SciTegic.value.DoubleValue
-1.831

@<SCITEGIC>MOL_PROPERTY
W(PB)
SciTegic.value.DoubleValue
-3.948

@<SCITEGIC>MOL_PROPERTY
W(SA)
SciTegic.value.DoubleValue
2.117

@<SCITEGIC>MOL_PROPERTY
Valence
SciTegic.value.DoubleValue
17.758

@<SCITEGIC>MOL_PROPERTY
Coulomb
SciTegic.value.DoubleValue
-7.344

@<SCITEGIC>MOL_PROPERTY
VdW
SciTegic.value.DoubleValue
2.694

@<SCITEGIC>MOL_PROPERTY
VdW6
SciTegic.value.DoubleValue
-13.719

@<SCITEGIC>MOL_PROPERTY
VdW12
SciTegic.value.DoubleValue
16.413

@<SCITEGIC>MOL_PROPERTY
Bond
SciTegic.value.DoubleValue
0.511

@<SCITEGIC>MOL_PROPERTY
Angle
SciTegic.value.DoubleValue
7.046

@<SCITEGIC>MOL_PROPERTY
Pdih
SciTegic.value.DoubleValue
10.202

@<SCITEGIC>MOL_PROPERTY
Idih
SciTegic.value.DoubleValue
0.000

@<SCITEGIC>MOL_PROPERTY
Tether
SciTegic.value.DoubleValue
0.000

@<TRIPOS>MOLECULE
guest-s17_vm2.mol2 : vm2 ligand conformer 79
          25          25           1
SMALL
USER_CHARGES
 
@<TRIPOS>ATOM
       1    C1      19.665893   18.985269   21.102286 C.3        1 MOL1        -0.1684
       2    H1      18.715605   18.812696   21.616941 H          1 MOL1         0.0833
       3    H2      19.404181   18.891352   20.039148 H          1 MOL1         0.0833
       4    C2      20.685279   17.855200   21.405906 C.3        1 MOL1        -0.1684
       5    H3      20.144070   16.912594   21.564871 H          1 MOL1         0.0833
       6    H4      21.276188   17.700194   20.492631 H          1 MOL1         0.0833
       7    C3      21.697813   18.072629   22.558470 C.3        1 MOL1        -0.1684
       8    H5      22.265720   18.998098   22.412715 H          1 MOL1         0.0833
       9    H6      22.450157   17.276799   22.472017 H          1 MOL1         0.0833
      10    C4      21.134055   17.994772   24.000273 C.3        1 MOL1        -0.1760
      11    H7      20.642166   17.024032   24.147630 H          1 MOL1         0.0833
      12    H8      21.995524   17.986595   24.680675 H          1 MOL1         0.0833
      13    C5      20.190542   19.123219   24.483809 C.3        1 MOL1         0.1219
      14    H9      20.303627   19.155300   25.577130 H          1 MOL1         0.0790
      15    C6      20.520430   20.548361   23.962543 C.3        1 MOL1        -0.1760
      16    H10     20.272128   21.240428   24.777691 H          1 MOL1         0.0833
      17    H11     21.602894   20.659364   23.824552 H          1 MOL1         0.0833
      18    C7      19.764979   21.057013   22.700077 C.3        1 MOL1        -0.1684
      19    H12     18.679815   20.974526   22.848032 H          1 MOL1         0.0833
      20    H13     19.957225   22.136152   22.627138 H          1 MOL1         0.0833
      21    C8      20.159119   20.435635   21.334963 C.3        1 MOL1        -0.1684
      22    H14     21.238437   20.524078   21.158201 H          1 MOL1         0.0833
      23    H15     19.695191   21.061479   20.560178 H          1 MOL1         0.0833
      24    O1      18.845890   18.770902   24.211672 O.3        1 MOL1        -0.5508
      25    H16     18.799781   18.759582   23.237379 H          1 MOL1         0.3780
@<TRIPOS>BOND
    1     1     2    1
    2     1     3    1
    3     1     4    1
    4     4     5    1
    5     4     6    1
    6     4     7    1
    7     7     8    1
    8     7     9    1
    9     7    10    1
   10    10    11    1
   11    10    12    1
   12    10    13    1
   13    13    14    1
   14    13    15    1
   15    15    16    1
   16    15    17    1
   17    15    18    1
   18    18    19    1
   19    18    20    1
   20     1    21    1
   21    18    21    1
   22    21    22    1
   23    21    23    1
   24    13    24    1
   25    24    25    1
@<TRIPOS>SUBSTRUCTURE
       1 MOL1            1 RESIDUE      1      MOL     
@<SCITEGIC>MOL_PROPERTY
VM2 Rank
SciTegic.value.IntegerValue
79

@<SCITEGIC>MOL_PROPERTY
Conf_Id
SciTegic.value.IntegerValue
352

@<SCITEGIC>MOL_PROPERTY
Probability
SciTegic.value.DoubleValue
0.07

@<SCITEGIC>MOL_PROPERTY
Sum Probability
SciTegic.value.DoubleValue
99.81

@<SCITEGIC>MOL_PROPERTY
Delta G
SciTegic.value.DoubleValue
2.492

@<SCITEGIC>MOL_PROPERTY
G
SciTegic.value.DoubleValue
64.567

@<SCITEGIC>MOL_PROPERTY
E
SciTegic.value.DoubleValue
31.741

@<SCITEGIC>MOL_PROPERTY
-TS
SciTegic.value.DoubleValue
32.826

@<SCITEGIC>MOL_PROPERTY
U+W
SciTegic.value.DoubleValue
11.173

@<SCITEGIC>MOL_PROPERTY
U
SciTegic.value.DoubleValue
12.093

@<SCITEGIC>MOL_PROPERTY
W
SciTegic.value.DoubleValue
-0.919

@<SCITEGIC>MOL_PROPERTY
W(PB)
SciTegic.value.DoubleValue
-3.032

@<SCITEGIC>MOL_PROPERTY
W(SA)
SciTegic.value.DoubleValue
2.112

@<SCITEGIC>MOL_PROPERTY
Valence
SciTegic.value.DoubleValue
19.646

@<SCITEGIC>MOL_PROPERTY
Coulomb
SciTegic.value.DoubleValue
-9.930

@<SCITEGIC>MOL_PROPERTY
VdW
SciTegic.value.DoubleValue
2.377

@<SCITEGIC>MOL_PROPERTY
VdW6
SciTegic.value.DoubleValue
-13.909

@<SCITEGIC>MOL_PROPERTY
VdW12
SciTegic.value.DoubleValue
16.286

@<SCITEGIC>MOL_PROPERTY
Bond
SciTegic.value.DoubleValue
0.498

@<SCITEGIC>MOL_PROPERTY
Angle
SciTegic.value.DoubleValue
8.148

@<SCITEGIC>MOL_PROPERTY
Pdih
SciTegic.value.DoubleValue
11.000

@<SCITEGIC>MOL_PROPERTY
Idih
SciTegic.value.DoubleValue
0.000

@<SCITEGIC>MOL_PROPERTY
Tether
SciTegic.value.DoubleValue
0.000

@<TRIPOS>MOLECULE
guest-s17_vm2.mol2 : vm2 ligand conformer 80
          25          25           1
SMALL
USER_CHARGES
 
@<TRIPOS>ATOM
       1    C1      20.482932   19.150974   20.721463 C.3        1 MOL1        -0.1684
       2    H1      19.717651   19.148224   19.933398 H          1 MOL1         0.0833
       3    H2      21.444655   19.044528   20.201821 H          1 MOL1         0.0833
       4    C2      20.235827   17.903628   21.605937 C.3        1 MOL1        -0.1684
       5    H3      19.240145   17.948638   22.059883 H          1 MOL1         0.0833
       6    H4      20.192799   17.032170   20.938942 H          1 MOL1         0.0833
       7    C3      21.301161   17.599748   22.688437 C.3        1 MOL1        -0.1684
       8    H5      22.258872   17.387242   22.194986 H          1 MOL1         0.0833
       9    H6      21.008552   16.663974   23.183955 H          1 MOL1         0.0833
      10    C4      21.540108   18.667014   23.793673 C.3        1 MOL1        -0.1760
      11    H7      22.157728   18.191175   24.566089 H          1 MOL1         0.0833
      12    H8      22.171951   19.471805   23.404383 H          1 MOL1         0.0833
      13    C5      20.302467   19.275079   24.509928 C.3        1 MOL1         0.1219
      14    H9      20.626768   19.482063   25.540062 H          1 MOL1         0.0790
      15    C6      19.828192   20.643753   23.954147 C.3        1 MOL1        -0.1760
      16    H10     19.021648   21.005631   24.604865 H          1 MOL1         0.0833
      17    H11     20.642607   21.369296   24.078248 H          1 MOL1         0.0833
      18    C7      19.323601   20.708479   22.486696 C.3        1 MOL1        -0.1684
      19    H12     18.884459   21.705133   22.343741 H          1 MOL1         0.0833
      20    H13     18.494317   20.008890   22.325001 H          1 MOL1         0.0833
      21    C8      20.435343   20.534993   21.418503 C.3        1 MOL1        -0.1684
      22    H14     20.278659   21.288046   20.634117 H          1 MOL1         0.0833
      23    H15     21.415149   20.783087   21.842010 H          1 MOL1         0.0833
      24    O1      19.214370   18.359331   24.581216 O.3        1 MOL1        -0.5508
      25    H16     18.474076   18.836327   25.006894 H          1 MOL1         0.3780
@<TRIPOS>BOND
    1     1     2    1
    2     1     3    1
    3     1     4    1
    4     4     5    1
    5     4     6    1
    6     4     7    1
    7     7     8    1
    8     7     9    1
    9     7    10    1
   10    10    11    1
   11    10    12    1
   12    10    13    1
   13    13    14    1
   14    13    15    1
   15    15    16    1
   16    15    17    1
   17    15    18    1
   18    18    19    1
   19    18    20    1
   20     1    21    1
   21    18    21    1
   22    21    22    1
   23    21    23    1
   24    13    24    1
   25    24    25    1
@<TRIPOS>SUBSTRUCTURE
       1 MOL1            1 RESIDUE      1      MOL     
@<SCITEGIC>MOL_PROPERTY
VM2 Rank
SciTegic.value.IntegerValue
80

@<SCITEGIC>MOL_PROPERTY
Conf_Id
SciTegic.value.IntegerValue
961

@<SCITEGIC>MOL_PROPERTY
Probability
SciTegic.value.DoubleValue
0.02

@<SCITEGIC>MOL_PROPERTY
Sum Probability
SciTegic.value.DoubleValue
99.83

@<SCITEGIC>MOL_PROPERTY
Delta G
SciTegic.value.DoubleValue
3.276

@<SCITEGIC>MOL_PROPERTY
G
SciTegic.value.DoubleValue
65.351

@<SCITEGIC>MOL_PROPERTY
E
SciTegic.value.DoubleValue
32.519

@<SCITEGIC>MOL_PROPERTY
-TS
SciTegic.value.DoubleValue
32.832

@<SCITEGIC>MOL_PROPERTY
U+W
SciTegic.value.DoubleValue
11.952

@<SCITEGIC>MOL_PROPERTY
U
SciTegic.value.DoubleValue
13.952

@<SCITEGIC>MOL_PROPERTY
W
SciTegic.value.DoubleValue
-2.000

@<SCITEGIC>MOL_PROPERTY
W(PB)
SciTegic.value.DoubleValue
-4.114

@<SCITEGIC>MOL_PROPERTY
W(SA)
SciTegic.value.DoubleValue
2.114

@<SCITEGIC>MOL_PROPERTY
Valence
SciTegic.value.DoubleValue
17.543

@<SCITEGIC>MOL_PROPERTY
Coulomb
SciTegic.value.DoubleValue
-6.274

@<SCITEGIC>MOL_PROPERTY
VdW
SciTegic.value.DoubleValue
2.682

@<SCITEGIC>MOL_PROPERTY
VdW6
SciTegic.value.DoubleValue
-13.612

@<SCITEGIC>MOL_PROPERTY
VdW12
SciTegic.value.DoubleValue
16.294

@<SCITEGIC>MOL_PROPERTY
Bond
SciTegic.value.DoubleValue
0.512

@<SCITEGIC>MOL_PROPERTY
Angle
SciTegic.value.DoubleValue
7.072

@<SCITEGIC>MOL_PROPERTY
Pdih
SciTegic.value.DoubleValue
9.959

@<SCITEGIC>MOL_PROPERTY
Idih
SciTegic.value.DoubleValue
0.000

@<SCITEGIC>MOL_PROPERTY
Tether
SciTegic.value.DoubleValue
0.000

@<TRIPOS>MOLECULE
guest-s17_vm2.mol2 : vm2 ligand conformer 81
          25          25           1
SMALL
USER_CHARGES
 
@<TRIPOS>ATOM
       1    C1      20.138861   19.137169   20.769370 C.3        1 MOL1        -0.1684
       2    H1      19.427056   18.863881   19.978380 H          1 MOL1         0.0833
       3    H2      21.040915   19.477699   20.242617 H          1 MOL1         0.0833
       4    C2      20.484428   17.847676   21.560448 C.3        1 MOL1        -0.1684
       5    H3      19.592450   17.391059   22.004260 H          1 MOL1         0.0833
       6    H4      20.822274   17.112082   20.817429 H          1 MOL1         0.0833
       7    C3      21.627424   18.001422   22.596803 C.3        1 MOL1        -0.1684
       8    H5      22.300204   18.816205   22.308158 H          1 MOL1         0.0833
       9    H6      22.255959   17.102684   22.531740 H          1 MOL1         0.0833
      10    C4      21.206590   18.138524   24.087136 C.3        1 MOL1        -0.1760
      11    H7      20.903183   17.145659   24.444895 H          1 MOL1         0.0833
      12    H8      22.102292   18.392234   24.668594 H          1 MOL1         0.0833
      13    C5      20.083075   19.130074   24.483387 C.3        1 MOL1         0.1219
      14    H9      20.056876   19.124294   25.582548 H          1 MOL1         0.0790
      15    C6      20.266301   20.614781   24.077745 C.3        1 MOL1        -0.1760
      16    H10     19.379466   21.158376   24.429676 H          1 MOL1         0.0833
      17    H11     21.103187   21.023381   24.658616 H          1 MOL1         0.0833
      18    C7      20.493825   20.986767   22.585481 C.3        1 MOL1        -0.1684
      19    H12     21.538566   20.821992   22.300552 H          1 MOL1         0.0833
      20    H13     20.367587   22.075717   22.512880 H          1 MOL1         0.0833
      21    C8      19.539466   20.336246   21.551007 C.3        1 MOL1        -0.1684
      22    H14     19.305802   21.105739   20.802278 H          1 MOL1         0.0833
      23    H15     18.568106   20.088680   21.994023 H          1 MOL1         0.0833
      24    O1      18.824030   18.650341   24.048624 O.3        1 MOL1        -0.5508
      25    H16     18.891096   18.672113   23.072118 H          1 MOL1         0.3780
@<TRIPOS>BOND
    1     1     2    1
    2     1     3    1
    3     1     4    1
    4     4     5    1
    5     4     6    1
    6     4     7    1
    7     7     8    1
    8     7     9    1
    9     7    10    1
   10    10    11    1
   11    10    12    1
   12    10    13    1
   13    13    14    1
   14    13    15    1
   15    15    16    1
   16    15    17    1
   17    15    18    1
   18    18    19    1
   19    18    20    1
   20     1    21    1
   21    18    21    1
   22    21    22    1
   23    21    23    1
   24    13    24    1
   25    24    25    1
@<TRIPOS>SUBSTRUCTURE
       1 MOL1            1 RESIDUE      1      MOL     
@<SCITEGIC>MOL_PROPERTY
VM2 Rank
SciTegic.value.IntegerValue
81

@<SCITEGIC>MOL_PROPERTY
Conf_Id
SciTegic.value.IntegerValue
1652

@<SCITEGIC>MOL_PROPERTY
Probability
SciTegic.value.DoubleValue
0.02

@<SCITEGIC>MOL_PROPERTY
Sum Probability
SciTegic.value.DoubleValue
99.84

@<SCITEGIC>MOL_PROPERTY
Delta G
SciTegic.value.DoubleValue
3.344

@<SCITEGIC>MOL_PROPERTY
G
SciTegic.value.DoubleValue
65.419

@<SCITEGIC>MOL_PROPERTY
E
SciTegic.value.DoubleValue
32.133

@<SCITEGIC>MOL_PROPERTY
-TS
SciTegic.value.DoubleValue
33.286

@<SCITEGIC>MOL_PROPERTY
U+W
SciTegic.value.DoubleValue
11.566

@<SCITEGIC>MOL_PROPERTY
U
SciTegic.value.DoubleValue
12.383

@<SCITEGIC>MOL_PROPERTY
W
SciTegic.value.DoubleValue
-0.817

@<SCITEGIC>MOL_PROPERTY
W(PB)
SciTegic.value.DoubleValue
-2.934

@<SCITEGIC>MOL_PROPERTY
W(SA)
SciTegic.value.DoubleValue
2.118

@<SCITEGIC>MOL_PROPERTY
Valence
SciTegic.value.DoubleValue
20.110

@<SCITEGIC>MOL_PROPERTY
Coulomb
SciTegic.value.DoubleValue
-10.324

@<SCITEGIC>MOL_PROPERTY
VdW
SciTegic.value.DoubleValue
2.596

@<SCITEGIC>MOL_PROPERTY
VdW6
SciTegic.value.DoubleValue
-14.356

@<SCITEGIC>MOL_PROPERTY
VdW12
SciTegic.value.DoubleValue
16.952

@<SCITEGIC>MOL_PROPERTY
Bond
SciTegic.value.DoubleValue
0.540

@<SCITEGIC>MOL_PROPERTY
Angle
SciTegic.value.DoubleValue
9.254

@<SCITEGIC>MOL_PROPERTY
Pdih
SciTegic.value.DoubleValue
10.316

@<SCITEGIC>MOL_PROPERTY
Idih
SciTegic.value.DoubleValue
0.000

@<SCITEGIC>MOL_PROPERTY
Tether
SciTegic.value.DoubleValue
0.000

@<TRIPOS>MOLECULE
guest-s17_vm2.mol2 : vm2 ligand conformer 82
          25          25           1
SMALL
USER_CHARGES
 
@<TRIPOS>ATOM
       1    C1      19.625884   18.947688   21.182675 C.3        1 MOL1        -0.1684
       2    H1      18.816341   18.734278   21.889334 H          1 MOL1         0.0833
       3    H2      19.172436   18.825554   20.189731 H          1 MOL1         0.0833
       4    C2      20.745717   17.890034   21.314353 C.3        1 MOL1        -0.1684
       5    H3      20.287343   16.892550   21.351260 H          1 MOL1         0.0833
       6    H4      21.346965   17.910517   20.395250 H          1 MOL1         0.0833
       7    C3      21.707393   18.053072   22.515183 C.3        1 MOL1        -0.1684
       8    H5      22.286054   18.978831   22.424646 H          1 MOL1         0.0833
       9    H6      22.454657   17.252033   22.434550 H          1 MOL1         0.0833
      10    C4      21.058531   17.935555   23.920340 C.3        1 MOL1        -0.1760
      11    H7      20.448132   17.023851   23.963233 H          1 MOL1         0.0833
      12    H8      21.878068   17.762843   24.629841 H          1 MOL1         0.0833
      13    C5      20.237185   19.132355   24.478770 C.3        1 MOL1         0.1219
      14    H9      20.488496   19.168875   25.548824 H          1 MOL1         0.0790
      15    C6      20.572553   20.546833   23.926783 C.3        1 MOL1        -0.1760
      16    H10     20.376313   21.252613   24.744357 H          1 MOL1         0.0833
      17    H11     21.649459   20.637361   23.742866 H          1 MOL1         0.0833
      18    C7      19.772623   21.061353   22.694799 C.3        1 MOL1        -0.1684
      19    H12     18.693815   20.986920   22.884620 H          1 MOL1         0.0833
      20    H13     19.973914   22.137178   22.601601 H          1 MOL1         0.0833
      21    C8      20.101718   20.413969   21.326484 C.3        1 MOL1        -0.1684
      22    H14     21.171545   20.507550   21.099279 H          1 MOL1         0.0833
      23    H15     19.589430   21.006416   20.556216 H          1 MOL1         0.0833
      24    O1      18.842396   18.862142   24.400613 O.3        1 MOL1        -0.5508
      25    H16     18.387909   19.678846   24.688890 H          1 MOL1         0.3780
@<TRIPOS>BOND
    1     1     2    1
    2     1     3    1
    3     1     4    1
    4     4     5    1
    5     4     6    1
    6     4     7    1
    7     7     8    1
    8     7     9    1
    9     7    10    1
   10    10    11    1
   11    10    12    1
   12    10    13    1
   13    13    14    1
   14    13    15    1
   15    15    16    1
   16    15    17    1
   17    15    18    1
   18    18    19    1
   19    18    20    1
   20     1    21    1
   21    18    21    1
   22    21    22    1
   23    21    23    1
   24    13    24    1
   25    24    25    1
@<TRIPOS>SUBSTRUCTURE
       1 MOL1            1 RESIDUE      1      MOL     
@<SCITEGIC>MOL_PROPERTY
VM2 Rank
SciTegic.value.IntegerValue
82

@<SCITEGIC>MOL_PROPERTY
Conf_Id
SciTegic.value.IntegerValue
224

@<SCITEGIC>MOL_PROPERTY
Probability
SciTegic.value.DoubleValue
0.01

@<SCITEGIC>MOL_PROPERTY
Sum Probability
SciTegic.value.DoubleValue
99.86

@<SCITEGIC>MOL_PROPERTY
Delta G
SciTegic.value.DoubleValue
3.506

@<SCITEGIC>MOL_PROPERTY
G
SciTegic.value.DoubleValue
65.581

@<SCITEGIC>MOL_PROPERTY
E
SciTegic.value.DoubleValue
32.985

@<SCITEGIC>MOL_PROPERTY
-TS
SciTegic.value.DoubleValue
32.596

@<SCITEGIC>MOL_PROPERTY
U+W
SciTegic.value.DoubleValue
12.417

@<SCITEGIC>MOL_PROPERTY
U
SciTegic.value.DoubleValue
14.381

@<SCITEGIC>MOL_PROPERTY
W
SciTegic.value.DoubleValue
-1.963

@<SCITEGIC>MOL_PROPERTY
W(PB)
SciTegic.value.DoubleValue
-4.079

@<SCITEGIC>MOL_PROPERTY
W(SA)
SciTegic.value.DoubleValue
2.116

@<SCITEGIC>MOL_PROPERTY
Valence
SciTegic.value.DoubleValue
18.713

@<SCITEGIC>MOL_PROPERTY
Coulomb
SciTegic.value.DoubleValue
-6.942

@<SCITEGIC>MOL_PROPERTY
VdW
SciTegic.value.DoubleValue
2.610

@<SCITEGIC>MOL_PROPERTY
VdW6
SciTegic.value.DoubleValue
-13.510

@<SCITEGIC>MOL_PROPERTY
VdW12
SciTegic.value.DoubleValue
16.120

@<SCITEGIC>MOL_PROPERTY
Bond
SciTegic.value.DoubleValue
0.503

@<SCITEGIC>MOL_PROPERTY
Angle
SciTegic.value.DoubleValue
7.223

@<SCITEGIC>MOL_PROPERTY
Pdih
SciTegic.value.DoubleValue
10.987

@<SCITEGIC>MOL_PROPERTY
Idih
SciTegic.value.DoubleValue
0.000

@<SCITEGIC>MOL_PROPERTY
Tether
SciTegic.value.DoubleValue
0.000

@<TRIPOS>MOLECULE
guest-s17_vm2.mol2 : vm2 ligand conformer 83
          25          25           1
SMALL
USER_CHARGES
 
@<TRIPOS>ATOM
       1    C1      20.797053   19.513407   20.989657 C.3        1 MOL1        -0.1684
       2    H1      20.862312   19.719349   19.912662 H          1 MOL1         0.0833
       3    H2      21.608797   20.100086   21.434081 H          1 MOL1         0.0833
       4    C2      21.066431   18.004303   21.204831 C.3        1 MOL1        -0.1684
       5    H3      20.514366   17.439717   20.441174 H          1 MOL1         0.0833
       6    H4      22.129630   17.811089   21.007695 H          1 MOL1         0.0833
       7    C3      20.695615   17.416682   22.592294 C.3        1 MOL1        -0.1684
       8    H5      21.078964   16.387621   22.613243 H          1 MOL1         0.0833
       9    H6      19.608698   17.305350   22.687829 H          1 MOL1         0.0833
      10    C4      21.277085   18.160811   23.825859 C.3        1 MOL1        -0.1760
      11    H7      22.269572   18.563402   23.586984 H          1 MOL1         0.0833
      12    H8      21.454260   17.403796   24.600750 H          1 MOL1         0.0833
      13    C5      20.400855   19.260855   24.490966 C.3        1 MOL1         0.1219
      14    H9      20.822616   19.392513   25.497987 H          1 MOL1         0.0790
      15    C6      20.477722   20.662390   23.833569 C.3        1 MOL1        -0.1760
      16    H10     20.311038   21.404378   24.625217 H          1 MOL1         0.0833
      17    H11     21.507692   20.844489   23.504774 H          1 MOL1         0.0833
      18    C7      19.484606   20.992977   22.682299 C.3        1 MOL1        -0.1684
      19    H12     19.752172   21.980283   22.282058 H          1 MOL1         0.0833
      20    H13     18.474410   21.107255   23.097724 H          1 MOL1         0.0833
      21    C8      19.415792   19.992489   21.503160 C.3        1 MOL1        -0.1684
      22    H14     18.782733   19.142034   21.781466 H          1 MOL1         0.0833
      23    H15     18.881434   20.478440   20.675655 H          1 MOL1         0.0833
      24    O1      19.048842   18.839087   24.637366 O.3        1 MOL1        -0.5508
      25    H16     18.545350   19.627453   24.922766 H          1 MOL1         0.3780
@<TRIPOS>BOND
    1     1     2    1
    2     1     3    1
    3     1     4    1
    4     4     5    1
    5     4     6    1
    6     4     7    1
    7     7     8    1
    8     7     9    1
    9     7    10    1
   10    10    11    1
   11    10    12    1
   12    10    13    1
   13    13    14    1
   14    13    15    1
   15    15    16    1
   16    15    17    1
   17    15    18    1
   18    18    19    1
   19    18    20    1
   20     1    21    1
   21    18    21    1
   22    21    22    1
   23    21    23    1
   24    13    24    1
   25    24    25    1
@<TRIPOS>SUBSTRUCTURE
       1 MOL1            1 RESIDUE      1      MOL     
@<SCITEGIC>MOL_PROPERTY
VM2 Rank
SciTegic.value.IntegerValue
83

@<SCITEGIC>MOL_PROPERTY
Conf_Id
SciTegic.value.IntegerValue
1488

@<SCITEGIC>MOL_PROPERTY
Probability
SciTegic.value.DoubleValue
0.01

@<SCITEGIC>MOL_PROPERTY
Sum Probability
SciTegic.value.DoubleValue
99.87

@<SCITEGIC>MOL_PROPERTY
Delta G
SciTegic.value.DoubleValue
3.531

@<SCITEGIC>MOL_PROPERTY
G
SciTegic.value.DoubleValue
65.607

@<SCITEGIC>MOL_PROPERTY
E
SciTegic.value.DoubleValue
33.220

@<SCITEGIC>MOL_PROPERTY
-TS
SciTegic.value.DoubleValue
32.386

@<SCITEGIC>MOL_PROPERTY
U+W
SciTegic.value.DoubleValue
12.653

@<SCITEGIC>MOL_PROPERTY
U
SciTegic.value.DoubleValue
14.604

@<SCITEGIC>MOL_PROPERTY
W
SciTegic.value.DoubleValue
-1.952

@<SCITEGIC>MOL_PROPERTY
W(PB)
SciTegic.value.DoubleValue
-4.077

@<SCITEGIC>MOL_PROPERTY
W(SA)
SciTegic.value.DoubleValue
2.125

@<SCITEGIC>MOL_PROPERTY
Valence
SciTegic.value.DoubleValue
18.883

@<SCITEGIC>MOL_PROPERTY
Coulomb
SciTegic.value.DoubleValue
-7.234

@<SCITEGIC>MOL_PROPERTY
VdW
SciTegic.value.DoubleValue
2.956

@<SCITEGIC>MOL_PROPERTY
VdW6
SciTegic.value.DoubleValue
-13.441

@<SCITEGIC>MOL_PROPERTY
VdW12
SciTegic.value.DoubleValue
16.397

@<SCITEGIC>MOL_PROPERTY
Bond
SciTegic.value.DoubleValue
0.515

@<SCITEGIC>MOL_PROPERTY
Angle
SciTegic.value.DoubleValue
6.286

@<SCITEGIC>MOL_PROPERTY
Pdih
SciTegic.value.DoubleValue
12.082

@<SCITEGIC>MOL_PROPERTY
Idih
SciTegic.value.DoubleValue
0.000

@<SCITEGIC>MOL_PROPERTY
Tether
SciTegic.value.DoubleValue
0.000

@<TRIPOS>MOLECULE
guest-s17_vm2.mol2 : vm2 ligand conformer 84
          25          25           1
SMALL
USER_CHARGES
 
@<TRIPOS>ATOM
       1    C1      20.892866   19.355203   20.998375 C.3        1 MOL1        -0.1684
       2    H1      21.106740   19.258028   19.925340 H          1 MOL1         0.0833
       3    H2      21.866099   19.561015   21.457820 H          1 MOL1         0.0833
       4    C2      20.305780   18.015608   21.510134 C.3        1 MOL1        -0.1684
       5    H3      19.246487   18.123935   21.770239 H          1 MOL1         0.0833
       6    H4      20.317502   17.288454   20.686995 H          1 MOL1         0.0833
       7    C3      21.070822   17.398245   22.705816 C.3        1 MOL1        -0.1684
       8    H5      21.986460   16.927080   22.323498 H          1 MOL1         0.0833
       9    H6      20.466559   16.578104   23.116141 H          1 MOL1         0.0833
      10    C4      21.477978   18.361032   23.858318 C.3        1 MOL1        -0.1760
      11    H7      21.899806   17.742005   24.660753 H          1 MOL1         0.0833
      12    H8      22.312822   18.996276   23.539562 H          1 MOL1         0.0833
      13    C5      20.381152   19.253984   24.492341 C.3        1 MOL1         0.1219
      14    H9      20.746232   19.482390   25.504199 H          1 MOL1         0.0790
      15    C6      20.171798   20.638973   23.815423 C.3        1 MOL1        -0.1760
      16    H10     19.719990   21.285173   24.579105 H          1 MOL1         0.0833
      17    H11     21.142516   21.098313   23.589845 H          1 MOL1         0.0833
      18    C7      19.250811   20.704660   22.566031 C.3        1 MOL1        -0.1684
      19    H12     18.749845   21.682078   22.572894 H          1 MOL1         0.0833
      20    H13     18.433676   19.978198   22.652354 H          1 MOL1         0.0833
      21    C8      19.957581   20.573584   21.190840 C.3        1 MOL1        -0.1684
      22    H14     20.535697   21.487431   20.997833 H          1 MOL1         0.0833
      23    H15     19.181144   20.542596   20.414381 H          1 MOL1         0.0833
      24    O1      19.155212   18.541710   24.622721 O.3        1 MOL1        -0.5508
      25    H16     19.392404   17.639886   24.917569 H          1 MOL1         0.3780
@<TRIPOS>BOND
    1     1     2    1
    2     1     3    1
    3     1     4    1
    4     4     5    1
    5     4     6    1
    6     4     7    1
    7     7     8    1
    8     7     9    1
    9     7    10    1
   10    10    11    1
   11    10    12    1
   12    10    13    1
   13    13    14    1
   14    13    15    1
   15    15    16    1
   16    15    17    1
   17    15    18    1
   18    18    19    1
   19    18    20    1
   20     1    21    1
   21    18    21    1
   22    21    22    1
   23    21    23    1
   24    13    24    1
   25    24    25    1
@<TRIPOS>SUBSTRUCTURE
       1 MOL1            1 RESIDUE      1      MOL     
@<SCITEGIC>MOL_PROPERTY
VM2 Rank
SciTegic.value.IntegerValue
84

@<SCITEGIC>MOL_PROPERTY
Conf_Id
SciTegic.value.IntegerValue
643

@<SCITEGIC>MOL_PROPERTY
Probability
SciTegic.value.DoubleValue
0.01

@<SCITEGIC>MOL_PROPERTY
Sum Probability
SciTegic.value.DoubleValue
99.88

@<SCITEGIC>MOL_PROPERTY
Delta G
SciTegic.value.DoubleValue
3.595

@<SCITEGIC>MOL_PROPERTY
G
SciTegic.value.DoubleValue
65.671

@<SCITEGIC>MOL_PROPERTY
E
SciTegic.value.DoubleValue
33.286

@<SCITEGIC>MOL_PROPERTY
-TS
SciTegic.value.DoubleValue
32.384

@<SCITEGIC>MOL_PROPERTY
U+W
SciTegic.value.DoubleValue
12.719

@<SCITEGIC>MOL_PROPERTY
U
SciTegic.value.DoubleValue
14.604

@<SCITEGIC>MOL_PROPERTY
W
SciTegic.value.DoubleValue
-1.886

@<SCITEGIC>MOL_PROPERTY
W(PB)
SciTegic.value.DoubleValue
-4.020

@<SCITEGIC>MOL_PROPERTY
W(SA)
SciTegic.value.DoubleValue
2.135

@<SCITEGIC>MOL_PROPERTY
Valence
SciTegic.value.DoubleValue
18.883

@<SCITEGIC>MOL_PROPERTY
Coulomb
SciTegic.value.DoubleValue
-7.234

@<SCITEGIC>MOL_PROPERTY
VdW
SciTegic.value.DoubleValue
2.956

@<SCITEGIC>MOL_PROPERTY
VdW6
SciTegic.value.DoubleValue
-13.441

@<SCITEGIC>MOL_PROPERTY
VdW12
SciTegic.value.DoubleValue
16.397

@<SCITEGIC>MOL_PROPERTY
Bond
SciTegic.value.DoubleValue
0.515

@<SCITEGIC>MOL_PROPERTY
Angle
SciTegic.value.DoubleValue
6.286

@<SCITEGIC>MOL_PROPERTY
Pdih
SciTegic.value.DoubleValue
12.082

@<SCITEGIC>MOL_PROPERTY
Idih
SciTegic.value.DoubleValue
0.000

@<SCITEGIC>MOL_PROPERTY
Tether
SciTegic.value.DoubleValue
0.000

@<TRIPOS>MOLECULE
guest-s17_vm2.mol2 : vm2 ligand conformer 85
          25          25           1
SMALL
USER_CHARGES
 
@<TRIPOS>ATOM
       1    C1      20.129645   19.131995   20.677894 C.3        1 MOL1        -0.1684
       2    H1      19.120602   19.064751   20.248835 H          1 MOL1         0.0833
       3    H2      20.819514   19.041803   19.827694 H          1 MOL1         0.0833
       4    C2      20.342998   17.916338   21.611988 C.3        1 MOL1        -0.1684
       5    H3      19.433072   17.723555   22.187568 H          1 MOL1         0.0833
       6    H4      20.459257   17.024775   20.980647 H          1 MOL1         0.0833
       7    C3      21.577201   18.024825   22.540704 C.3        1 MOL1        -0.1684
       8    H5      22.204440   18.882520   22.272788 H          1 MOL1         0.0833
       9    H6      22.217023   17.149341   22.365005 H          1 MOL1         0.0833
      10    C4      21.244792   18.068364   24.054560 C.3        1 MOL1        -0.1760
      11    H7      20.882595   17.079740   24.366836 H          1 MOL1         0.0833
      12    H8      22.189574   18.213328   24.594315 H          1 MOL1         0.0833
      13    C5      20.242794   19.139392   24.563432 C.3        1 MOL1         0.1219
      14    H9      20.476164   19.269163   25.630125 H          1 MOL1         0.0790
      15    C6      20.344188   20.548118   23.922016 C.3        1 MOL1        -0.1760
      16    H10     19.960928   21.250008   24.674294 H          1 MOL1         0.0833
      17    H11     21.399433   20.821102   23.794295 H          1 MOL1         0.0833
      18    C7      19.549197   20.820947   22.607515 C.3        1 MOL1        -0.1684
      19    H12     19.317373   21.894917   22.606447 H          1 MOL1         0.0833
      20    H13     18.569977   20.326658   22.598191 H          1 MOL1         0.0833
      21    C8      20.321421   20.541640   21.295374 C.3        1 MOL1        -0.1684
      22    H14     19.981719   21.267370   20.543670 H          1 MOL1         0.0833
      23    H15     21.387514   20.762674   21.432377 H          1 MOL1         0.0833
      24    O1      18.911763   18.651382   24.486517 O.3        1 MOL1        -0.5508
      25    H16     18.699103   18.652827   23.532671 H          1 MOL1         0.3780
@<TRIPOS>BOND
    1     1     2    1
    2     1     3    1
    3     1     4    1
    4     4     5    1
    5     4     6    1
    6     4     7    1
    7     7     8    1
    8     7     9    1
    9     7    10    1
   10    10    11    1
   11    10    12    1
   12    10    13    1
   13    13    14    1
   14    13    15    1
   15    15    16    1
   16    15    17    1
   17    15    18    1
   18    18    19    1
   19    18    20    1
   20     1    21    1
   21    18    21    1
   22    21    22    1
   23    21    23    1
   24    13    24    1
   25    24    25    1
@<TRIPOS>SUBSTRUCTURE
       1 MOL1            1 RESIDUE      1      MOL     
@<SCITEGIC>MOL_PROPERTY
VM2 Rank
SciTegic.value.IntegerValue
85

@<SCITEGIC>MOL_PROPERTY
Conf_Id
SciTegic.value.IntegerValue
791

@<SCITEGIC>MOL_PROPERTY
Probability
SciTegic.value.DoubleValue
0.01

@<SCITEGIC>MOL_PROPERTY
Sum Probability
SciTegic.value.DoubleValue
99.89

@<SCITEGIC>MOL_PROPERTY
Delta G
SciTegic.value.DoubleValue
3.596

@<SCITEGIC>MOL_PROPERTY
G
SciTegic.value.DoubleValue
65.672

@<SCITEGIC>MOL_PROPERTY
E
SciTegic.value.DoubleValue
33.221

@<SCITEGIC>MOL_PROPERTY
-TS
SciTegic.value.DoubleValue
32.451

@<SCITEGIC>MOL_PROPERTY
U+W
SciTegic.value.DoubleValue
12.653

@<SCITEGIC>MOL_PROPERTY
U
SciTegic.value.DoubleValue
13.786

@<SCITEGIC>MOL_PROPERTY
W
SciTegic.value.DoubleValue
-1.133

@<SCITEGIC>MOL_PROPERTY
W(PB)
SciTegic.value.DoubleValue
-3.259

@<SCITEGIC>MOL_PROPERTY
W(SA)
SciTegic.value.DoubleValue
2.127

@<SCITEGIC>MOL_PROPERTY
Valence
SciTegic.value.DoubleValue
20.491

@<SCITEGIC>MOL_PROPERTY
Coulomb
SciTegic.value.DoubleValue
-9.471

@<SCITEGIC>MOL_PROPERTY
VdW
SciTegic.value.DoubleValue
2.766

@<SCITEGIC>MOL_PROPERTY
VdW6
SciTegic.value.DoubleValue
-13.486

@<SCITEGIC>MOL_PROPERTY
VdW12
SciTegic.value.DoubleValue
16.252

@<SCITEGIC>MOL_PROPERTY
Bond
SciTegic.value.DoubleValue
0.508

@<SCITEGIC>MOL_PROPERTY
Angle
SciTegic.value.DoubleValue
6.902

@<SCITEGIC>MOL_PROPERTY
Pdih
SciTegic.value.DoubleValue
13.080

@<SCITEGIC>MOL_PROPERTY
Idih
SciTegic.value.DoubleValue
0.000

@<SCITEGIC>MOL_PROPERTY
Tether
SciTegic.value.DoubleValue
0.000

@<TRIPOS>MOLECULE
guest-s17_vm2.mol2 : vm2 ligand conformer 86
          25          25           1
SMALL
USER_CHARGES
 
@<TRIPOS>ATOM
       1    C1      20.073287   19.084953   20.684951 C.3        1 MOL1        -0.1684
       2    H1      19.307033   18.403474   20.290966 H          1 MOL1         0.0833
       3    H2      20.471838   19.619038   19.811565 H          1 MOL1         0.0833
       4    C2      21.227248   18.246967   21.294297 C.3        1 MOL1        -0.1684
       5    H3      22.135865   18.854104   21.394205 H          1 MOL1         0.0833
       6    H4      21.487273   17.477691   20.554200 H          1 MOL1         0.0833
       7    C3      20.917118   17.532747   22.632119 C.3        1 MOL1        -0.1684
       8    H5      21.519461   16.613889   22.638199 H          1 MOL1         0.0833
       9    H6      19.877941   17.182360   22.657041 H          1 MOL1         0.0833
      10    C4      21.313065   18.321815   23.918573 C.3        1 MOL1        -0.1760
      11    H7      21.562999   17.574439   24.683049 H          1 MOL1         0.0833
      12    H8      22.244459   18.878465   23.754190 H          1 MOL1         0.0833
      13    C5      20.254382   19.253690   24.564334 C.3        1 MOL1         0.1219
      14    H9      20.537069   19.354426   25.622200 H          1 MOL1         0.0790
      15    C6      20.181475   20.706485   24.022002 C.3        1 MOL1        -0.1760
      16    H10     19.230895   21.149893   24.347377 H          1 MOL1         0.0833
      17    H11     20.960733   21.290426   24.528689 H          1 MOL1         0.0833
      18    C7      20.346044   20.937291   22.497601 C.3        1 MOL1        -0.1684
      19    H12     21.390318   20.775473   22.207499 H          1 MOL1         0.0833
      20    H13     20.166774   22.003014   22.300594 H          1 MOL1         0.0833
      21    C8      19.380088   20.112384   21.612167 C.3        1 MOL1        -0.1684
      22    H14     18.618910   19.613604   22.219004 H          1 MOL1         0.0833
      23    H15     18.810772   20.805676   20.977963 H          1 MOL1         0.0833
      24    O1      18.971293   18.646670   24.533955 O.3        1 MOL1        -0.5508
      25    H16     18.799384   18.471368   23.588036 H          1 MOL1         0.3780
@<TRIPOS>BOND
    1     1     2    1
    2     1     3    1
    3     1     4    1
    4     4     5    1
    5     4     6    1
    6     4     7    1
    7     7     8    1
    8     7     9    1
    9     7    10    1
   10    10    11    1
   11    10    12    1
   12    10    13    1
   13    13    14    1
   14    13    15    1
   15    15    16    1
   16    15    17    1
   17    15    18    1
   18    18    19    1
   19    18    20    1
   20     1    21    1
   21    18    21    1
   22    21    22    1
   23    21    23    1
   24    13    24    1
   25    24    25    1
@<TRIPOS>SUBSTRUCTURE
       1 MOL1            1 RESIDUE      1      MOL     
@<SCITEGIC>MOL_PROPERTY
VM2 Rank
SciTegic.value.IntegerValue
86

@<SCITEGIC>MOL_PROPERTY
Conf_Id
SciTegic.value.IntegerValue
672

@<SCITEGIC>MOL_PROPERTY
Probability
SciTegic.value.DoubleValue
0.01

@<SCITEGIC>MOL_PROPERTY
Sum Probability
SciTegic.value.DoubleValue
99.90

@<SCITEGIC>MOL_PROPERTY
Delta G
SciTegic.value.DoubleValue
3.597

@<SCITEGIC>MOL_PROPERTY
G
SciTegic.value.DoubleValue
65.672

@<SCITEGIC>MOL_PROPERTY
E
SciTegic.value.DoubleValue
33.221

@<SCITEGIC>MOL_PROPERTY
-TS
SciTegic.value.DoubleValue
32.451

@<SCITEGIC>MOL_PROPERTY
U+W
SciTegic.value.DoubleValue
12.653

@<SCITEGIC>MOL_PROPERTY
U
SciTegic.value.DoubleValue
13.786

@<SCITEGIC>MOL_PROPERTY
W
SciTegic.value.DoubleValue
-1.133

@<SCITEGIC>MOL_PROPERTY
W(PB)
SciTegic.value.DoubleValue
-3.267

@<SCITEGIC>MOL_PROPERTY
W(SA)
SciTegic.value.DoubleValue
2.134

@<SCITEGIC>MOL_PROPERTY
Valence
SciTegic.value.DoubleValue
20.490

@<SCITEGIC>MOL_PROPERTY
Coulomb
SciTegic.value.DoubleValue
-9.471

@<SCITEGIC>MOL_PROPERTY
VdW
SciTegic.value.DoubleValue
2.766

@<SCITEGIC>MOL_PROPERTY
VdW6
SciTegic.value.DoubleValue
-13.486

@<SCITEGIC>MOL_PROPERTY
VdW12
SciTegic.value.DoubleValue
16.252

@<SCITEGIC>MOL_PROPERTY
Bond
SciTegic.value.DoubleValue
0.509

@<SCITEGIC>MOL_PROPERTY
Angle
SciTegic.value.DoubleValue
6.901

@<SCITEGIC>MOL_PROPERTY
Pdih
SciTegic.value.DoubleValue
13.081

@<SCITEGIC>MOL_PROPERTY
Idih
SciTegic.value.DoubleValue
0.000

@<SCITEGIC>MOL_PROPERTY
Tether
SciTegic.value.DoubleValue
0.000

@<TRIPOS>MOLECULE
guest-s17_vm2.mol2 : vm2 ligand conformer 87
          25          25           1
SMALL
USER_CHARGES
 
@<TRIPOS>ATOM
       1    C1      20.896605   19.360412   20.999290 C.3        1 MOL1        -0.1684
       2    H1      21.117904   19.267736   19.927369 H          1 MOL1         0.0833
       3    H2      21.865848   19.567157   21.466694 H          1 MOL1         0.0833
       4    C2      20.309130   18.017882   21.502462 C.3        1 MOL1        -0.1684
       5    H3      19.247392   18.122612   21.753758 H          1 MOL1         0.0833
       6    H4      20.329259   17.292984   20.677544 H          1 MOL1         0.0833
       7    C3      21.062110   17.396775   22.704154 C.3        1 MOL1        -0.1684
       8    H5      21.972158   16.909702   22.328943 H          1 MOL1         0.0833
       9    H6      20.442241   16.589815   23.118220 H          1 MOL1         0.0833
      10    C4      21.475806   18.354283   23.858671 C.3        1 MOL1        -0.1760
      11    H7      21.883439   17.727347   24.662075 H          1 MOL1         0.0833
      12    H8      22.319047   18.980893   23.545489 H          1 MOL1         0.0833
      13    C5      20.384755   19.253981   24.493477 C.3        1 MOL1         0.1219
      14    H9      20.756130   19.487853   25.501791 H          1 MOL1         0.0790
      15    C6      20.176814   20.635872   23.810124 C.3        1 MOL1        -0.1760
      16    H10     19.739748   21.294892   24.571559 H          1 MOL1         0.0833
      17    H11     21.149535   21.085274   23.572607 H          1 MOL1         0.0833
      18    C7      19.248822   20.699497   22.565933 C.3        1 MOL1        -0.1684
      19    H12     18.743981   21.675039   22.575120 H          1 MOL1         0.0833
      20    H13     18.435497   19.968755   22.649099 H          1 MOL1         0.0833
      21    C8      19.955077   20.574204   21.190197 C.3        1 MOL1        -0.1684
      22    H14     19.179007   20.539446   20.413505 H          1 MOL1         0.0833
      23    H15     20.528756   21.491012   20.997877 H          1 MOL1         0.0833
      24    O1      19.154880   18.550094   24.635692 O.3        1 MOL1        -0.5508
      25    H16     18.504990   19.195250   24.979759 H          1 MOL1         0.3780
@<TRIPOS>BOND
    1     1     2    1
    2     1     3    1
    3     1     4    1
    4     4     5    1
    5     4     6    1
    6     4     7    1
    7     7     8    1
    8     7     9    1
    9     7    10    1
   10    10    11    1
   11    10    12    1
   12    10    13    1
   13    13    14    1
   14    13    15    1
   15    15    16    1
   16    15    17    1
   17    15    18    1
   18    18    19    1
   19    18    20    1
   20     1    21    1
   21    18    21    1
   22    21    22    1
   23    21    23    1
   24    13    24    1
   25    24    25    1
@<TRIPOS>SUBSTRUCTURE
       1 MOL1            1 RESIDUE      1      MOL     
@<SCITEGIC>MOL_PROPERTY
VM2 Rank
SciTegic.value.IntegerValue
87

@<SCITEGIC>MOL_PROPERTY
Conf_Id
SciTegic.value.IntegerValue
1487

@<SCITEGIC>MOL_PROPERTY
Probability
SciTegic.value.DoubleValue
0.01

@<SCITEGIC>MOL_PROPERTY
Sum Probability
SciTegic.value.DoubleValue
99.91

@<SCITEGIC>MOL_PROPERTY
Delta G
SciTegic.value.DoubleValue
3.875

@<SCITEGIC>MOL_PROPERTY
G
SciTegic.value.DoubleValue
65.950

@<SCITEGIC>MOL_PROPERTY
E
SciTegic.value.DoubleValue
33.502

@<SCITEGIC>MOL_PROPERTY
-TS
SciTegic.value.DoubleValue
32.448

@<SCITEGIC>MOL_PROPERTY
U+W
SciTegic.value.DoubleValue
12.934

@<SCITEGIC>MOL_PROPERTY
U
SciTegic.value.DoubleValue
14.863

@<SCITEGIC>MOL_PROPERTY
W
SciTegic.value.DoubleValue
-1.929

@<SCITEGIC>MOL_PROPERTY
W(PB)
SciTegic.value.DoubleValue
-4.063

@<SCITEGIC>MOL_PROPERTY
W(SA)
SciTegic.value.DoubleValue
2.134

@<SCITEGIC>MOL_PROPERTY
Valence
SciTegic.value.DoubleValue
18.821

@<SCITEGIC>MOL_PROPERTY
Coulomb
SciTegic.value.DoubleValue
-6.904

@<SCITEGIC>MOL_PROPERTY
VdW
SciTegic.value.DoubleValue
2.946

@<SCITEGIC>MOL_PROPERTY
VdW6
SciTegic.value.DoubleValue
-13.394

@<SCITEGIC>MOL_PROPERTY
VdW12
SciTegic.value.DoubleValue
16.340

@<SCITEGIC>MOL_PROPERTY
Bond
SciTegic.value.DoubleValue
0.514

@<SCITEGIC>MOL_PROPERTY
Angle
SciTegic.value.DoubleValue
6.250

@<SCITEGIC>MOL_PROPERTY
Pdih
SciTegic.value.DoubleValue
12.058

@<SCITEGIC>MOL_PROPERTY
Idih
SciTegic.value.DoubleValue
0.000

@<SCITEGIC>MOL_PROPERTY
Tether
SciTegic.value.DoubleValue
0.000

@<TRIPOS>MOLECULE
guest-s17_vm2.mol2 : vm2 ligand conformer 88
          25          25           1
SMALL
USER_CHARGES
 
@<TRIPOS>ATOM
       1    C1      20.543685   19.202709   20.884777 C.3        1 MOL1        -0.1684
       2    H1      20.289920   19.084592   19.822224 H          1 MOL1         0.0833
       3    H2      21.578323   19.570914   20.895017 H          1 MOL1         0.0833
       4    C2      20.455991   17.796585   21.522974 C.3        1 MOL1        -0.1684
       5    H3      19.410988   17.548199   21.743142 H          1 MOL1         0.0833
       6    H4      20.748566   17.064601   20.757439 H          1 MOL1         0.0833
       7    C3      21.367368   17.539620   22.753958 C.3        1 MOL1        -0.1684
       8    H5      22.379869   17.323909   22.386380 H          1 MOL1         0.0833
       9    H6      21.032991   16.614489   23.243590 H          1 MOL1         0.0833
      10    C4      21.493857   18.658297   23.827259 C.3        1 MOL1        -0.1760
      11    H7      22.096625   18.248858   24.648154 H          1 MOL1         0.0833
      12    H8      22.105735   19.475808   23.431340 H          1 MOL1         0.0833
      13    C5      20.186433   19.213503   24.455789 C.3        1 MOL1         0.1219
      14    H9      20.333744   19.226225   25.545378 H          1 MOL1         0.0790
      15    C6      19.836841   20.668462   24.054187 C.3        1 MOL1        -0.1760
      16    H10     18.773203   20.842851   24.265462 H          1 MOL1         0.0833
      17    H11     20.378119   21.339535   24.733676 H          1 MOL1         0.0833
      18    C7      20.143542   21.131461   22.603512 C.3        1 MOL1        -0.1684
      19    H12     21.222865   21.269346   22.460907 H          1 MOL1         0.0833
      20    H13     19.720041   22.139703   22.497710 H          1 MOL1         0.0833
      21    C8      19.562595   20.256450   21.466519 C.3        1 MOL1        -0.1684
      22    H14     18.609187   19.801113   21.764825 H          1 MOL1         0.0833
      23    H15     19.308222   20.938031   20.643007 H          1 MOL1         0.0833
      24    O1      19.073688   18.375914   24.191025 O.3        1 MOL1        -0.5508
      25    H16     19.045713   18.327503   23.215776 H          1 MOL1         0.3780
@<TRIPOS>BOND
    1     1     2    1
    2     1     3    1
    3     1     4    1
    4     4     5    1
    5     4     6    1
    6     4     7    1
    7     7     8    1
    8     7     9    1
    9     7    10    1
   10    10    11    1
   11    10    12    1
   12    10    13    1
   13    13    14    1
   14    13    15    1
   15    15    16    1
   16    15    17    1
   17    15    18    1
   18    18    19    1
   19    18    20    1
   20     1    21    1
   21    18    21    1
   22    21    22    1
   23    21    23    1
   24    13    24    1
   25    24    25    1
@<TRIPOS>SUBSTRUCTURE
       1 MOL1            1 RESIDUE      1      MOL     
@<SCITEGIC>MOL_PROPERTY
VM2 Rank
SciTegic.value.IntegerValue
88

@<SCITEGIC>MOL_PROPERTY
Conf_Id
SciTegic.value.IntegerValue
1007

@<SCITEGIC>MOL_PROPERTY
Probability
SciTegic.value.DoubleValue
0.01

@<SCITEGIC>MOL_PROPERTY
Sum Probability
SciTegic.value.DoubleValue
99.92

@<SCITEGIC>MOL_PROPERTY
Delta G
SciTegic.value.DoubleValue
3.933

@<SCITEGIC>MOL_PROPERTY
G
SciTegic.value.DoubleValue
66.008

@<SCITEGIC>MOL_PROPERTY
E
SciTegic.value.DoubleValue
33.364

@<SCITEGIC>MOL_PROPERTY
-TS
SciTegic.value.DoubleValue
32.644

@<SCITEGIC>MOL_PROPERTY
U+W
SciTegic.value.DoubleValue
12.797

@<SCITEGIC>MOL_PROPERTY
U
SciTegic.value.DoubleValue
13.787

@<SCITEGIC>MOL_PROPERTY
W
SciTegic.value.DoubleValue
-0.990

@<SCITEGIC>MOL_PROPERTY
W(PB)
SciTegic.value.DoubleValue
-3.085

@<SCITEGIC>MOL_PROPERTY
W(SA)
SciTegic.value.DoubleValue
2.095

@<SCITEGIC>MOL_PROPERTY
Valence
SciTegic.value.DoubleValue
20.983

@<SCITEGIC>MOL_PROPERTY
Coulomb
SciTegic.value.DoubleValue
-10.046

@<SCITEGIC>MOL_PROPERTY
VdW
SciTegic.value.DoubleValue
2.849

@<SCITEGIC>MOL_PROPERTY
VdW6
SciTegic.value.DoubleValue
-14.095

@<SCITEGIC>MOL_PROPERTY
VdW12
SciTegic.value.DoubleValue
16.945

@<SCITEGIC>MOL_PROPERTY
Bond
SciTegic.value.DoubleValue
0.518

@<SCITEGIC>MOL_PROPERTY
Angle
SciTegic.value.DoubleValue
7.298

@<SCITEGIC>MOL_PROPERTY
Pdih
SciTegic.value.DoubleValue
13.167

@<SCITEGIC>MOL_PROPERTY
Idih
SciTegic.value.DoubleValue
0.000

@<SCITEGIC>MOL_PROPERTY
Tether
SciTegic.value.DoubleValue
0.000

@<TRIPOS>MOLECULE
guest-s17_vm2.mol2 : vm2 ligand conformer 89
          25          25           1
SMALL
USER_CHARGES
 
@<TRIPOS>ATOM
       1    C1      20.512261   19.371901   20.888147 C.3        1 MOL1        -0.1684
       2    H1      20.272788   19.269902   19.820619 H          1 MOL1         0.0833
       3    H2      21.502487   19.845967   20.917599 H          1 MOL1         0.0833
       4    C2      20.554814   17.936157   21.478193 C.3        1 MOL1        -0.1684
       5    H3      19.553366   17.582684   21.756517 H          1 MOL1         0.0833
       6    H4      20.876558   17.271049   20.664841 H          1 MOL1         0.0833
       7    C3      21.559853   17.736840   22.638392 C.3        1 MOL1        -0.1684
       8    H5      22.421657   18.404223   22.511191 H          1 MOL1         0.0833
       9    H6      21.978263   16.725090   22.546781 H          1 MOL1         0.0833
      10    C4      20.983793   17.853129   24.076282 C.3        1 MOL1        -0.1760
      11    H7      20.352874   16.977041   24.278239 H          1 MOL1         0.0833
      12    H8      21.826272   17.767131   24.774751 H          1 MOL1         0.0833
      13    C5      20.190216   19.128969   24.454274 C.3        1 MOL1         0.1219
      14    H9      20.279375   19.229943   25.545568 H          1 MOL1         0.0790
      15    C6      20.732135   20.444345   23.830757 C.3        1 MOL1        -0.1760
      16    H10     20.848985   21.164599   24.650767 H          1 MOL1         0.0833
      17    H11     21.751642   20.299778   23.457698 H          1 MOL1         0.0833
      18    C7      19.873388   21.138035   22.734961 C.3        1 MOL1        -0.1684
      19    H12     20.442352   22.006210   22.375304 H          1 MOL1         0.0833
      20    H13     18.971207   21.555745   23.202939 H          1 MOL1         0.0833
      21    C8      19.439800   20.304396   21.498432 C.3        1 MOL1        -0.1684
      22    H14     18.522187   19.739644   21.701518 H          1 MOL1         0.0833
      23    H15     19.143877   21.024119   20.722627 H          1 MOL1         0.0833
      24    O1      18.817740   18.929228   24.160561 O.3        1 MOL1        -0.5508
      25    H16     18.784952   18.938550   23.184305 H          1 MOL1         0.3780
@<TRIPOS>BOND
    1     1     2    1
    2     1     3    1
    3     1     4    1
    4     4     5    1
    5     4     6    1
    6     4     7    1
    7     7     8    1
    8     7     9    1
    9     7    10    1
   10    10    11    1
   11    10    12    1
   12    10    13    1
   13    13    14    1
   14    13    15    1
   15    15    16    1
   16    15    17    1
   17    15    18    1
   18    18    19    1
   19    18    20    1
   20     1    21    1
   21    18    21    1
   22    21    22    1
   23    21    23    1
   24    13    24    1
   25    24    25    1
@<TRIPOS>SUBSTRUCTURE
       1 MOL1            1 RESIDUE      1      MOL     
@<SCITEGIC>MOL_PROPERTY
VM2 Rank
SciTegic.value.IntegerValue
89

@<SCITEGIC>MOL_PROPERTY
Conf_Id
SciTegic.value.IntegerValue
419

@<SCITEGIC>MOL_PROPERTY
Probability
SciTegic.value.DoubleValue
0.01

@<SCITEGIC>MOL_PROPERTY
Sum Probability
SciTegic.value.DoubleValue
99.92

@<SCITEGIC>MOL_PROPERTY
Delta G
SciTegic.value.DoubleValue
3.963

@<SCITEGIC>MOL_PROPERTY
G
SciTegic.value.DoubleValue
66.038

@<SCITEGIC>MOL_PROPERTY
E
SciTegic.value.DoubleValue
33.394

@<SCITEGIC>MOL_PROPERTY
-TS
SciTegic.value.DoubleValue
32.644

@<SCITEGIC>MOL_PROPERTY
U+W
SciTegic.value.DoubleValue
12.827

@<SCITEGIC>MOL_PROPERTY
U
SciTegic.value.DoubleValue
13.787

@<SCITEGIC>MOL_PROPERTY
W
SciTegic.value.DoubleValue
-0.960

@<SCITEGIC>MOL_PROPERTY
W(PB)
SciTegic.value.DoubleValue
-3.077

@<SCITEGIC>MOL_PROPERTY
W(SA)
SciTegic.value.DoubleValue
2.117

@<SCITEGIC>MOL_PROPERTY
Valence
SciTegic.value.DoubleValue
20.983

@<SCITEGIC>MOL_PROPERTY
Coulomb
SciTegic.value.DoubleValue
-10.046

@<SCITEGIC>MOL_PROPERTY
VdW
SciTegic.value.DoubleValue
2.849

@<SCITEGIC>MOL_PROPERTY
VdW6
SciTegic.value.DoubleValue
-14.095

@<SCITEGIC>MOL_PROPERTY
VdW12
SciTegic.value.DoubleValue
16.944

@<SCITEGIC>MOL_PROPERTY
Bond
SciTegic.value.DoubleValue
0.518

@<SCITEGIC>MOL_PROPERTY
Angle
SciTegic.value.DoubleValue
7.298

@<SCITEGIC>MOL_PROPERTY
Pdih
SciTegic.value.DoubleValue
13.167

@<SCITEGIC>MOL_PROPERTY
Idih
SciTegic.value.DoubleValue
0.000

@<SCITEGIC>MOL_PROPERTY
Tether
SciTegic.value.DoubleValue
0.000

@<TRIPOS>MOLECULE
guest-s17_vm2.mol2 : vm2 ligand conformer 90
          25          25           1
SMALL
USER_CHARGES
 
@<TRIPOS>ATOM
       1    C1      20.086878   19.098049   20.758243 C.3        1 MOL1        -0.1684
       2    H1      20.329874   19.667883   19.851029 H          1 MOL1         0.0833
       3    H2      19.463161   18.260118   20.418792 H          1 MOL1         0.0833
       4    C2      21.424245   18.544040   21.315118 C.3        1 MOL1        -0.1684
       5    H3      21.928062   18.012971   20.496011 H          1 MOL1         0.0833
       6    H4      22.099560   19.377587   21.531000 H          1 MOL1         0.0833
       7    C3      21.351558   17.560163   22.518971 C.3        1 MOL1        -0.1684
       8    H5      22.337775   17.516891   23.000583 H          1 MOL1         0.0833
       9    H6      21.181083   16.554475   22.111138 H          1 MOL1         0.0833
      10    C4      20.264355   17.799262   23.601972 C.3        1 MOL1        -0.1760
      11    H7      19.273872   17.700265   23.148407 H          1 MOL1         0.0833
      12    H8      20.312839   16.955931   24.302966 H          1 MOL1         0.0833
      13    C5      20.366018   19.090736   24.460863 C.3        1 MOL1         0.1219
      14    H9      21.085694   18.878131   25.264386 H          1 MOL1         0.0790
      15    C6      20.856374   20.385617   23.766476 C.3        1 MOL1        -0.1760
      16    H10     20.955920   21.155299   24.543212 H          1 MOL1         0.0833
      17    H11     21.885795   20.235567   23.429625 H          1 MOL1         0.0833
      18    C7      19.985321   20.991820   22.623018 C.3        1 MOL1        -0.1684
      19    H12     20.612357   21.664870   22.022844 H          1 MOL1         0.0833
      20    H13     19.230182   21.638918   23.089767 H          1 MOL1         0.0833
      21    C8      19.232027   20.022232   21.673110 C.3        1 MOL1        -0.1684
      22    H14     18.601455   20.632571   21.012181 H          1 MOL1         0.0833
      23    H15     18.506727   19.434596   22.243224 H          1 MOL1         0.0833
      24    O1      19.097224   19.351081   25.042228 O.3        1 MOL1        -0.5508
      25    H16     18.557608   19.731839   24.320371 H          1 MOL1         0.3780
@<TRIPOS>BOND
    1     1     2    1
    2     1     3    1
    3     1     4    1
    4     4     5    1
    5     4     6    1
    6     4     7    1
    7     7     8    1
    8     7     9    1
    9     7    10    1
   10    10    11    1
   11    10    12    1
   12    10    13    1
   13    13    14    1
   14    13    15    1
   15    15    16    1
   16    15    17    1
   17    15    18    1
   18    18    19    1
   19    18    20    1
   20     1    21    1
   21    18    21    1
   22    21    22    1
   23    21    23    1
   24    13    24    1
   25    24    25    1
@<TRIPOS>SUBSTRUCTURE
       1 MOL1            1 RESIDUE      1      MOL     
@<SCITEGIC>MOL_PROPERTY
VM2 Rank
SciTegic.value.IntegerValue
90

@<SCITEGIC>MOL_PROPERTY
Conf_Id
SciTegic.value.IntegerValue
188

@<SCITEGIC>MOL_PROPERTY
Probability
SciTegic.value.DoubleValue
0.01

@<SCITEGIC>MOL_PROPERTY
Sum Probability
SciTegic.value.DoubleValue
99.93

@<SCITEGIC>MOL_PROPERTY
Delta G
SciTegic.value.DoubleValue
4.003

@<SCITEGIC>MOL_PROPERTY
G
SciTegic.value.DoubleValue
66.079

@<SCITEGIC>MOL_PROPERTY
E
SciTegic.value.DoubleValue
33.265

@<SCITEGIC>MOL_PROPERTY
-TS
SciTegic.value.DoubleValue
32.814

@<SCITEGIC>MOL_PROPERTY
U+W
SciTegic.value.DoubleValue
12.697

@<SCITEGIC>MOL_PROPERTY
U
SciTegic.value.DoubleValue
14.050

@<SCITEGIC>MOL_PROPERTY
W
SciTegic.value.DoubleValue
-1.353

@<SCITEGIC>MOL_PROPERTY
W(PB)
SciTegic.value.DoubleValue
-3.459

@<SCITEGIC>MOL_PROPERTY
W(SA)
SciTegic.value.DoubleValue
2.106

@<SCITEGIC>MOL_PROPERTY
Valence
SciTegic.value.DoubleValue
19.391

@<SCITEGIC>MOL_PROPERTY
Coulomb
SciTegic.value.DoubleValue
-9.106

@<SCITEGIC>MOL_PROPERTY
VdW
SciTegic.value.DoubleValue
3.765

@<SCITEGIC>MOL_PROPERTY
VdW6
SciTegic.value.DoubleValue
-14.145

@<SCITEGIC>MOL_PROPERTY
VdW12
SciTegic.value.DoubleValue
17.910

@<SCITEGIC>MOL_PROPERTY
Bond
SciTegic.value.DoubleValue
0.723

@<SCITEGIC>MOL_PROPERTY
Angle
SciTegic.value.DoubleValue
9.667

@<SCITEGIC>MOL_PROPERTY
Pdih
SciTegic.value.DoubleValue
9.002

@<SCITEGIC>MOL_PROPERTY
Idih
SciTegic.value.DoubleValue
0.000

@<SCITEGIC>MOL_PROPERTY
Tether
SciTegic.value.DoubleValue
0.000

@<TRIPOS>MOLECULE
guest-s17_vm2.mol2 : vm2 ligand conformer 91
          25          25           1
SMALL
USER_CHARGES
 
@<TRIPOS>ATOM
       1    C1      20.110092   19.109689   20.755488 C.3        1 MOL1        -0.1684
       2    H1      19.077942   19.224565   20.397930 H          1 MOL1         0.0833
       3    H2      20.707159   18.890990   19.859677 H          1 MOL1         0.0833
       4    C2      20.185088   17.860745   21.680894 C.3        1 MOL1        -0.1684
       5    H3      19.251061   17.737125   22.236516 H          1 MOL1         0.0833
       6    H4      20.210467   16.978476   21.026738 H          1 MOL1         0.0833
       7    C3      21.391791   17.754877   22.651737 C.3        1 MOL1        -0.1684
       8    H5      22.321479   17.748160   22.066919 H          1 MOL1         0.0833
       9    H6      21.340167   16.764819   23.124969 H          1 MOL1         0.0833
      10    C4      21.525801   18.813405   23.789834 C.3        1 MOL1        -0.1760
      11    H7      22.142713   18.365731   24.580180 H          1 MOL1         0.0833
      12    H8      22.125424   19.664933   23.456605 H          1 MOL1         0.0833
      13    C5      20.234172   19.345523   24.459074 C.3        1 MOL1         0.1219
      14    H9      20.557589   20.022052   25.263122 H          1 MOL1         0.0790
      15    C6      19.236359   20.147663   23.577669 C.3        1 MOL1        -0.1760
      16    H10     18.494656   19.488981   23.116593 H          1 MOL1         0.0833
      17    H11     18.642437   20.764546   24.264446 H          1 MOL1         0.0833
      18    C7      19.822805   21.096780   22.497240 C.3        1 MOL1        -0.1684
      19    H12     20.457247   21.849821   22.983921 H          1 MOL1         0.0833
      20    H13     18.979062   21.656638   22.071266 H          1 MOL1         0.0833
      21    C8      20.610497   20.468649   21.310836 C.3        1 MOL1        -0.1684
      22    H14     20.580793   21.193388   20.485807 H          1 MOL1         0.0833
      23    H15     21.676798   20.393567   21.544972 H          1 MOL1         0.0833
      24    O1      19.547397   18.245670   25.037229 O.3        1 MOL1        -0.5508
      25    H16     19.468336   17.586294   24.318749 H          1 MOL1         0.3780
@<TRIPOS>BOND
    1     1     2    1
    2     1     3    1
    3     1     4    1
    4     4     5    1
    5     4     6    1
    6     4     7    1
    7     7     8    1
    8     7     9    1
    9     7    10    1
   10    10    11    1
   11    10    12    1
   12    10    13    1
   13    13    14    1
   14    13    15    1
   15    15    16    1
   16    15    17    1
   17    15    18    1
   18    18    19    1
   19    18    20    1
   20     1    21    1
   21    18    21    1
   22    21    22    1
   23    21    23    1
   24    13    24    1
   25    24    25    1
@<TRIPOS>SUBSTRUCTURE
       1 MOL1            1 RESIDUE      1      MOL     
@<SCITEGIC>MOL_PROPERTY
VM2 Rank
SciTegic.value.IntegerValue
91

@<SCITEGIC>MOL_PROPERTY
Conf_Id
SciTegic.value.IntegerValue
1677

@<SCITEGIC>MOL_PROPERTY
Probability
SciTegic.value.DoubleValue
0.01

@<SCITEGIC>MOL_PROPERTY
Sum Probability
SciTegic.value.DoubleValue
99.94

@<SCITEGIC>MOL_PROPERTY
Delta G
SciTegic.value.DoubleValue
4.044

@<SCITEGIC>MOL_PROPERTY
G
SciTegic.value.DoubleValue
66.120

@<SCITEGIC>MOL_PROPERTY
E
SciTegic.value.DoubleValue
33.306

@<SCITEGIC>MOL_PROPERTY
-TS
SciTegic.value.DoubleValue
32.814

@<SCITEGIC>MOL_PROPERTY
U+W
SciTegic.value.DoubleValue
12.738

@<SCITEGIC>MOL_PROPERTY
U
SciTegic.value.DoubleValue
14.050

@<SCITEGIC>MOL_PROPERTY
W
SciTegic.value.DoubleValue
-1.312

@<SCITEGIC>MOL_PROPERTY
W(PB)
SciTegic.value.DoubleValue
-3.425

@<SCITEGIC>MOL_PROPERTY
W(SA)
SciTegic.value.DoubleValue
2.113

@<SCITEGIC>MOL_PROPERTY
Valence
SciTegic.value.DoubleValue
19.391

@<SCITEGIC>MOL_PROPERTY
Coulomb
SciTegic.value.DoubleValue
-9.106

@<SCITEGIC>MOL_PROPERTY
VdW
SciTegic.value.DoubleValue
3.764

@<SCITEGIC>MOL_PROPERTY
VdW6
SciTegic.value.DoubleValue
-14.145

@<SCITEGIC>MOL_PROPERTY
VdW12
SciTegic.value.DoubleValue
17.909

@<SCITEGIC>MOL_PROPERTY
Bond
SciTegic.value.DoubleValue
0.723

@<SCITEGIC>MOL_PROPERTY
Angle
SciTegic.value.DoubleValue
9.668

@<SCITEGIC>MOL_PROPERTY
Pdih
SciTegic.value.DoubleValue
9.001

@<SCITEGIC>MOL_PROPERTY
Idih
SciTegic.value.DoubleValue
0.000

@<SCITEGIC>MOL_PROPERTY
Tether
SciTegic.value.DoubleValue
0.000

@<TRIPOS>MOLECULE
guest-s17_vm2.mol2 : vm2 ligand conformer 92
          25          25           1
SMALL
USER_CHARGES
 
@<TRIPOS>ATOM
       1    C1      19.625482   18.948486   21.181019 C.3        1 MOL1        -0.1684
       2    H1      18.812814   18.739375   21.885395 H          1 MOL1         0.0833
       3    H2      19.174741   18.826470   20.186834 H          1 MOL1         0.0833
       4    C2      20.742106   17.887996   21.317482 C.3        1 MOL1        -0.1684
       5    H3      20.281592   16.891742   21.359885 H          1 MOL1         0.0833
       6    H4      21.341942   17.902313   20.397323 H          1 MOL1         0.0833
       7    C3      21.706988   18.055867   22.514949 C.3        1 MOL1        -0.1684
       8    H5      22.282528   18.983321   22.421284 H          1 MOL1         0.0833
       9    H6      22.456698   17.257189   22.433114 H          1 MOL1         0.0833
      10    C4      21.063953   17.938955   23.922350 C.3        1 MOL1        -0.1760
      11    H7      20.468335   17.018207   23.971097 H          1 MOL1         0.0833
      12    H8      21.889677   17.779980   24.628192 H          1 MOL1         0.0833
      13    C5      20.235192   19.132374   24.478543 C.3        1 MOL1         0.1219
      14    H9      20.483707   19.169745   25.549218 H          1 MOL1         0.0790
      15    C6      20.571944   20.547376   23.928145 C.3        1 MOL1        -0.1760
      16    H10     20.364870   21.250074   24.745484 H          1 MOL1         0.0833
      17    H11     21.649450   20.641923   23.750580 H          1 MOL1         0.0833
      18    C7      19.774195   21.060244   22.694292 C.3        1 MOL1        -0.1684
      19    H12     18.696197   20.978586   22.888506 H          1 MOL1         0.0833
      20    H13     19.969930   22.137059   22.602660 H          1 MOL1         0.0833
      21    C8      20.103756   20.413957   21.325283 C.3        1 MOL1        -0.1684
      22    H14     21.173509   20.507096   21.097890 H          1 MOL1         0.0833
      23    H15     19.591483   21.007386   20.555813 H          1 MOL1         0.0833
      24    O1      18.840384   18.857745   24.397936 O.3        1 MOL1        -0.5508
      25    H16     18.703788   17.972808   24.791985 H          1 MOL1         0.3780
@<TRIPOS>BOND
    1     1     2    1
    2     1     3    1
    3     1     4    1
    4     4     5    1
    5     4     6    1
    6     4     7    1
    7     7     8    1
    8     7     9    1
    9     7    10    1
   10    10    11    1
   11    10    12    1
   12    10    13    1
   13    13    14    1
   14    13    15    1
   15    15    16    1
   16    15    17    1
   17    15    18    1
   18    18    19    1
   19    18    20    1
   20     1    21    1
   21    18    21    1
   22    21    22    1
   23    21    23    1
   24    13    24    1
   25    24    25    1
@<TRIPOS>SUBSTRUCTURE
       1 MOL1            1 RESIDUE      1      MOL     
@<SCITEGIC>MOL_PROPERTY
VM2 Rank
SciTegic.value.IntegerValue
92

@<SCITEGIC>MOL_PROPERTY
Conf_Id
SciTegic.value.IntegerValue
130

@<SCITEGIC>MOL_PROPERTY
Probability
SciTegic.value.DoubleValue
0.00

@<SCITEGIC>MOL_PROPERTY
Sum Probability
SciTegic.value.DoubleValue
99.94

@<SCITEGIC>MOL_PROPERTY
Delta G
SciTegic.value.DoubleValue
4.107

@<SCITEGIC>MOL_PROPERTY
G
SciTegic.value.DoubleValue
66.183

@<SCITEGIC>MOL_PROPERTY
E
SciTegic.value.DoubleValue
33.558

@<SCITEGIC>MOL_PROPERTY
-TS
SciTegic.value.DoubleValue
32.624

@<SCITEGIC>MOL_PROPERTY
U+W
SciTegic.value.DoubleValue
12.991

@<SCITEGIC>MOL_PROPERTY
U
SciTegic.value.DoubleValue
14.959

@<SCITEGIC>MOL_PROPERTY
W
SciTegic.value.DoubleValue
-1.968

@<SCITEGIC>MOL_PROPERTY
W(PB)
SciTegic.value.DoubleValue
-4.075

@<SCITEGIC>MOL_PROPERTY
W(SA)
SciTegic.value.DoubleValue
2.108

@<SCITEGIC>MOL_PROPERTY
Valence
SciTegic.value.DoubleValue
18.591

@<SCITEGIC>MOL_PROPERTY
Coulomb
SciTegic.value.DoubleValue
-6.260

@<SCITEGIC>MOL_PROPERTY
VdW
SciTegic.value.DoubleValue
2.627

@<SCITEGIC>MOL_PROPERTY
VdW6
SciTegic.value.DoubleValue
-13.467

@<SCITEGIC>MOL_PROPERTY
VdW12
SciTegic.value.DoubleValue
16.094

@<SCITEGIC>MOL_PROPERTY
Bond
SciTegic.value.DoubleValue
0.508

@<SCITEGIC>MOL_PROPERTY
Angle
SciTegic.value.DoubleValue
7.247

@<SCITEGIC>MOL_PROPERTY
Pdih
SciTegic.value.DoubleValue
10.836

@<SCITEGIC>MOL_PROPERTY
Idih
SciTegic.value.DoubleValue
0.000

@<SCITEGIC>MOL_PROPERTY
Tether
SciTegic.value.DoubleValue
0.000

@<TRIPOS>MOLECULE
guest-s17_vm2.mol2 : vm2 ligand conformer 93
          25          25           1
SMALL
USER_CHARGES
 
@<TRIPOS>ATOM
       1    C1      19.610859   18.885567   21.197731 C.3        1 MOL1        -0.1684
       2    H1      18.900440   18.471006   21.921432 H          1 MOL1         0.0833
       3    H2      19.188268   18.637661   20.214666 H          1 MOL1         0.0833
       4    C2      20.986977   18.188270   21.329076 C.3        1 MOL1        -0.1684
       5    H3      21.030086   17.394033   20.571451 H          1 MOL1         0.0833
       6    H4      21.805778   18.874082   21.076132 H          1 MOL1         0.0833
       7    C3      21.234350   17.520143   22.704902 C.3        1 MOL1        -0.1684
       8    H5      22.131826   16.894607   22.607532 H          1 MOL1         0.0833
       9    H6      20.417221   16.819871   22.924871 H          1 MOL1         0.0833
      10    C4      21.458381   18.466430   23.919880 C.3        1 MOL1        -0.1760
      11    H7      21.822607   17.835983   24.741210 H          1 MOL1         0.0833
      12    H8      22.284527   19.157527   23.716522 H          1 MOL1         0.0833
      13    C5      20.230306   19.239159   24.479605 C.3        1 MOL1         0.1219
      14    H9      20.451373   19.405388   25.544029 H          1 MOL1         0.0790
      15    C6      19.964147   20.660252   23.905081 C.3        1 MOL1        -0.1760
      16    H10     18.893193   20.892354   23.969113 H          1 MOL1         0.0833
      17    H11     20.448805   21.367180   24.591132 H          1 MOL1         0.0833
      18    C7      20.476859   21.008823   22.482561 C.3        1 MOL1        -0.1684
      19    H12     21.537577   20.757199   22.374161 H          1 MOL1         0.0833
      20    H13     20.441824   22.102275   22.383659 H          1 MOL1         0.0833
      21    C8      19.654302   20.426971   21.308696 C.3        1 MOL1        -0.1684
      22    H14     18.625453   20.807619   21.363211 H          1 MOL1         0.0833
      23    H15     20.072570   20.825648   20.374453 H          1 MOL1         0.0833
      24    O1      19.047819   18.447385   24.432467 O.3        1 MOL1        -0.5508
      25    H16     18.333003   18.983799   24.830393 H          1 MOL1         0.3780
@<TRIPOS>BOND
    1     1     2    1
    2     1     3    1
    3     1     4    1
    4     4     5    1
    5     4     6    1
    6     4     7    1
    7     7     8    1
    8     7     9    1
    9     7    10    1
   10    10    11    1
   11    10    12    1
   12    10    13    1
   13    13    14    1
   14    13    15    1
   15    15    16    1
   16    15    17    1
   17    15    18    1
   18    18    19    1
   19    18    20    1
   20     1    21    1
   21    18    21    1
   22    21    22    1
   23    21    23    1
   24    13    24    1
   25    24    25    1
@<TRIPOS>SUBSTRUCTURE
       1 MOL1            1 RESIDUE      1      MOL     
@<SCITEGIC>MOL_PROPERTY
VM2 Rank
SciTegic.value.IntegerValue
93

@<SCITEGIC>MOL_PROPERTY
Conf_Id
SciTegic.value.IntegerValue
1012

@<SCITEGIC>MOL_PROPERTY
Probability
SciTegic.value.DoubleValue
0.00

@<SCITEGIC>MOL_PROPERTY
Sum Probability
SciTegic.value.DoubleValue
99.95

@<SCITEGIC>MOL_PROPERTY
Delta G
SciTegic.value.DoubleValue
4.137

@<SCITEGIC>MOL_PROPERTY
G
SciTegic.value.DoubleValue
66.212

@<SCITEGIC>MOL_PROPERTY
E
SciTegic.value.DoubleValue
33.589

@<SCITEGIC>MOL_PROPERTY
-TS
SciTegic.value.DoubleValue
32.623

@<SCITEGIC>MOL_PROPERTY
U+W
SciTegic.value.DoubleValue
13.021

@<SCITEGIC>MOL_PROPERTY
U
SciTegic.value.DoubleValue
14.959

@<SCITEGIC>MOL_PROPERTY
W
SciTegic.value.DoubleValue
-1.938

@<SCITEGIC>MOL_PROPERTY
W(PB)
SciTegic.value.DoubleValue
-4.057

@<SCITEGIC>MOL_PROPERTY
W(SA)
SciTegic.value.DoubleValue
2.119

@<SCITEGIC>MOL_PROPERTY
Valence
SciTegic.value.DoubleValue
18.591

@<SCITEGIC>MOL_PROPERTY
Coulomb
SciTegic.value.DoubleValue
-6.260

@<SCITEGIC>MOL_PROPERTY
VdW
SciTegic.value.DoubleValue
2.627

@<SCITEGIC>MOL_PROPERTY
VdW6
SciTegic.value.DoubleValue
-13.467

@<SCITEGIC>MOL_PROPERTY
VdW12
SciTegic.value.DoubleValue
16.094

@<SCITEGIC>MOL_PROPERTY
Bond
SciTegic.value.DoubleValue
0.508

@<SCITEGIC>MOL_PROPERTY
Angle
SciTegic.value.DoubleValue
7.247

@<SCITEGIC>MOL_PROPERTY
Pdih
SciTegic.value.DoubleValue
10.836

@<SCITEGIC>MOL_PROPERTY
Idih
SciTegic.value.DoubleValue
0.000

@<SCITEGIC>MOL_PROPERTY
Tether
SciTegic.value.DoubleValue
0.000

@<TRIPOS>MOLECULE
guest-s17_vm2.mol2 : vm2 ligand conformer 94
          25          25           1
SMALL
USER_CHARGES
 
@<TRIPOS>ATOM
       1    C1      21.327521   19.720406   21.251918 C.3        1 MOL1        -0.1684
       2    H1      21.894246   19.959324   20.341619 H          1 MOL1         0.0833
       3    H2      21.900260   20.212895   22.044142 H          1 MOL1         0.0833
       4    C2      21.364326   18.172706   21.417937 C.3        1 MOL1        -0.1684
       5    H3      21.341890   17.734196   20.410899 H          1 MOL1         0.0833
       6    H4      22.335700   17.882868   21.840937 H          1 MOL1         0.0833
       7    C3      20.229722   17.494919   22.230293 C.3        1 MOL1        -0.1684
       8    H5      20.359156   16.407854   22.139345 H          1 MOL1         0.0833
       9    H6      19.270829   17.680996   21.736384 H          1 MOL1         0.0833
      10    C4      20.142550   17.820830   23.751245 C.3        1 MOL1        -0.1760
      11    H7      19.130274   17.590820   24.108010 H          1 MOL1         0.0833
      12    H8      20.806492   17.118897   24.272958 H          1 MOL1         0.0833
      13    C5      20.534290   19.243909   24.221614 C.3        1 MOL1         0.1219
      14    H9      21.563225   19.433072   23.898515 H          1 MOL1         0.0790
      15    C6      19.617031   20.415106   23.765007 C.3        1 MOL1        -0.1760
      16    H10     18.789035   20.497824   24.482086 H          1 MOL1         0.0833
      17    H11     20.180685   21.352851   23.851324 H          1 MOL1         0.0833
      18    C7      18.978317   20.344665   22.351645 C.3        1 MOL1        -0.1684
      19    H12     18.320366   19.471729   22.294985 H          1 MOL1         0.0833
      20    H13     18.287220   21.193311   22.257012 H          1 MOL1         0.0833
      21    C8      19.936632   20.396331   21.125959 C.3        1 MOL1        -0.1684
      22    H14     20.115094   21.454909   20.892640 H          1 MOL1         0.0833
      23    H15     19.414840   19.988055   20.249889 H          1 MOL1         0.0833
      24    O1      20.533611   19.234128   25.644383 O.3        1 MOL1        -0.5508
      25    H16     20.841766   20.118608   25.932661 H          1 MOL1         0.3780
@<TRIPOS>BOND
    1     1     2    1
    2     1     3    1
    3     1     4    1
    4     4     5    1
    5     4     6    1
    6     4     7    1
    7     7     8    1
    8     7     9    1
    9     7    10    1
   10    10    11    1
   11    10    12    1
   12    10    13    1
   13    13    14    1
   14    13    15    1
   15    15    16    1
   16    15    17    1
   17    15    18    1
   18    18    19    1
   19    18    20    1
   20     1    21    1
   21    18    21    1
   22    21    22    1
   23    21    23    1
   24    13    24    1
   25    24    25    1
@<TRIPOS>SUBSTRUCTURE
       1 MOL1            1 RESIDUE      1      MOL     
@<SCITEGIC>MOL_PROPERTY
VM2 Rank
SciTegic.value.IntegerValue
94

@<SCITEGIC>MOL_PROPERTY
Conf_Id
SciTegic.value.IntegerValue
554

@<SCITEGIC>MOL_PROPERTY
Probability
SciTegic.value.DoubleValue
0.00

@<SCITEGIC>MOL_PROPERTY
Sum Probability
SciTegic.value.DoubleValue
99.95

@<SCITEGIC>MOL_PROPERTY
Delta G
SciTegic.value.DoubleValue
4.145

@<SCITEGIC>MOL_PROPERTY
G
SciTegic.value.DoubleValue
66.220

@<SCITEGIC>MOL_PROPERTY
E
SciTegic.value.DoubleValue
33.542

@<SCITEGIC>MOL_PROPERTY
-TS
SciTegic.value.DoubleValue
32.679

@<SCITEGIC>MOL_PROPERTY
U+W
SciTegic.value.DoubleValue
12.974

@<SCITEGIC>MOL_PROPERTY
U
SciTegic.value.DoubleValue
15.029

@<SCITEGIC>MOL_PROPERTY
W
SciTegic.value.DoubleValue
-2.055

@<SCITEGIC>MOL_PROPERTY
W(PB)
SciTegic.value.DoubleValue
-4.194

@<SCITEGIC>MOL_PROPERTY
W(SA)
SciTegic.value.DoubleValue
2.139

@<SCITEGIC>MOL_PROPERTY
Valence
SciTegic.value.DoubleValue
18.887

@<SCITEGIC>MOL_PROPERTY
Coulomb
SciTegic.value.DoubleValue
-8.127

@<SCITEGIC>MOL_PROPERTY
VdW
SciTegic.value.DoubleValue
4.270

@<SCITEGIC>MOL_PROPERTY
VdW6
SciTegic.value.DoubleValue
-13.485

@<SCITEGIC>MOL_PROPERTY
VdW12
SciTegic.value.DoubleValue
17.755

@<SCITEGIC>MOL_PROPERTY
Bond
SciTegic.value.DoubleValue
0.714

@<SCITEGIC>MOL_PROPERTY
Angle
SciTegic.value.DoubleValue
8.959

@<SCITEGIC>MOL_PROPERTY
Pdih
SciTegic.value.DoubleValue
9.213

@<SCITEGIC>MOL_PROPERTY
Idih
SciTegic.value.DoubleValue
0.000

@<SCITEGIC>MOL_PROPERTY
Tether
SciTegic.value.DoubleValue
0.000

@<TRIPOS>MOLECULE
guest-s17_vm2.mol2 : vm2 ligand conformer 95
          25          25           1
SMALL
USER_CHARGES
 
@<TRIPOS>ATOM
       1    C1      21.378665   19.559794   21.242103 C.3        1 MOL1        -0.1684
       2    H1      21.941816   19.785841   20.326315 H          1 MOL1         0.0833
       3    H2      22.136367   19.627136   22.029217 H          1 MOL1         0.0833
       4    C2      20.879010   18.094995   21.132473 C.3        1 MOL1        -0.1684
       5    H3      20.216501   18.003797   20.261141 H          1 MOL1         0.0833
       6    H4      21.755137   17.474490   20.899558 H          1 MOL1         0.0833
       7    C3      20.175103   17.461888   22.368206 C.3        1 MOL1        -0.1684
       8    H5      20.290877   16.372819   22.282790 H          1 MOL1         0.0833
       9    H6      19.091605   17.608526   22.316687 H          1 MOL1         0.0833
      10    C4      20.683165   17.878809   23.774818 C.3        1 MOL1        -0.1760
      11    H7      20.163380   17.239050   24.500873 H          1 MOL1         0.0833
      12    H8      21.746494   17.619823   23.857146 H          1 MOL1         0.0833
      13    C5      20.499667   19.358850   24.219070 C.3        1 MOL1         0.1219
      14    H9      21.356349   19.953529   23.885403 H          1 MOL1         0.0790
      15    C6      19.210319   20.078072   23.749853 C.3        1 MOL1        -0.1760
      16    H10     18.336551   19.524303   24.116947 H          1 MOL1         0.0833
      17    H11     19.182241   21.048487   24.262904 H          1 MOL1         0.0833
      18    C7      19.031059   20.355515   22.227356 C.3        1 MOL1        -0.1684
      19    H12     18.349468   21.211790   22.132676 H          1 MOL1         0.0833
      20    H13     18.485335   19.538982   21.744136 H          1 MOL1         0.0833
      21    C8      20.306239   20.676870   21.404381 C.3        1 MOL1        -0.1684
      22    H14     20.786626   21.574650   21.816353 H          1 MOL1         0.0833
      23    H15     19.972940   20.960427   20.396698 H          1 MOL1         0.0833
      24    O1      20.500773   19.378208   25.641741 O.3        1 MOL1        -0.5508
      25    H16     21.347632   18.977082   25.928612 H          1 MOL1         0.3780
@<TRIPOS>BOND
    1     1     2    1
    2     1     3    1
    3     1     4    1
    4     4     5    1
    5     4     6    1
    6     4     7    1
    7     7     8    1
    8     7     9    1
    9     7    10    1
   10    10    11    1
   11    10    12    1
   12    10    13    1
   13    13    14    1
   14    13    15    1
   15    15    16    1
   16    15    17    1
   17    15    18    1
   18    18    19    1
   19    18    20    1
   20     1    21    1
   21    18    21    1
   22    21    22    1
   23    21    23    1
   24    13    24    1
   25    24    25    1
@<TRIPOS>SUBSTRUCTURE
       1 MOL1            1 RESIDUE      1      MOL     
@<SCITEGIC>MOL_PROPERTY
VM2 Rank
SciTegic.value.IntegerValue
95

@<SCITEGIC>MOL_PROPERTY
Conf_Id
SciTegic.value.IntegerValue
153

@<SCITEGIC>MOL_PROPERTY
Probability
SciTegic.value.DoubleValue
0.00

@<SCITEGIC>MOL_PROPERTY
Sum Probability
SciTegic.value.DoubleValue
99.95

@<SCITEGIC>MOL_PROPERTY
Delta G
SciTegic.value.DoubleValue
4.146

@<SCITEGIC>MOL_PROPERTY
G
SciTegic.value.DoubleValue
66.222

@<SCITEGIC>MOL_PROPERTY
E
SciTegic.value.DoubleValue
33.544

@<SCITEGIC>MOL_PROPERTY
-TS
SciTegic.value.DoubleValue
32.678

@<SCITEGIC>MOL_PROPERTY
U+W
SciTegic.value.DoubleValue
12.976

@<SCITEGIC>MOL_PROPERTY
U
SciTegic.value.DoubleValue
15.029

@<SCITEGIC>MOL_PROPERTY
W
SciTegic.value.DoubleValue
-2.053

@<SCITEGIC>MOL_PROPERTY
W(PB)
SciTegic.value.DoubleValue
-4.201

@<SCITEGIC>MOL_PROPERTY
W(SA)
SciTegic.value.DoubleValue
2.148

@<SCITEGIC>MOL_PROPERTY
Valence
SciTegic.value.DoubleValue
18.886

@<SCITEGIC>MOL_PROPERTY
Coulomb
SciTegic.value.DoubleValue
-8.127

@<SCITEGIC>MOL_PROPERTY
VdW
SciTegic.value.DoubleValue
4.270

@<SCITEGIC>MOL_PROPERTY
VdW6
SciTegic.value.DoubleValue
-13.485

@<SCITEGIC>MOL_PROPERTY
VdW12
SciTegic.value.DoubleValue
17.755

@<SCITEGIC>MOL_PROPERTY
Bond
SciTegic.value.DoubleValue
0.714

@<SCITEGIC>MOL_PROPERTY
Angle
SciTegic.value.DoubleValue
8.960

@<SCITEGIC>MOL_PROPERTY
Pdih
SciTegic.value.DoubleValue
9.213

@<SCITEGIC>MOL_PROPERTY
Idih
SciTegic.value.DoubleValue
0.000

@<SCITEGIC>MOL_PROPERTY
Tether
SciTegic.value.DoubleValue
0.000

@<TRIPOS>MOLECULE
guest-s17_vm2.mol2 : vm2 ligand conformer 96
          25          25           1
SMALL
USER_CHARGES
 
@<TRIPOS>ATOM
       1    C1      20.713607   19.495976   20.721281 C.3        1 MOL1        -0.1684
       2    H1      21.313224   20.383510   20.478164 H          1 MOL1         0.0833
       3    H2      20.481697   19.026594   19.755518 H          1 MOL1         0.0833
       4    C2      21.596593   18.495885   21.523741 C.3        1 MOL1        -0.1684
       5    H3      22.234610   17.975428   20.796450 H          1 MOL1         0.0833
       6    H4      22.313903   19.029195   22.155287 H          1 MOL1         0.0833
       7    C3      20.872043   17.414182   22.367110 C.3        1 MOL1        -0.1684
       8    H5      21.646333   16.737163   22.753149 H          1 MOL1         0.0833
       9    H6      20.248689   16.798182   21.705020 H          1 MOL1         0.0833
      10    C4      20.011550   17.878807   23.579926 C.3        1 MOL1        -0.1760
      11    H7      18.972936   18.038553   23.276801 H          1 MOL1         0.0833
      12    H8      19.952378   17.028103   24.271912 H          1 MOL1         0.0833
      13    C5      20.505156   19.103912   24.390489 C.3        1 MOL1         0.1219
      14    H9      21.522970   18.888715   24.745692 H          1 MOL1         0.0790
      15    C6      20.532932   20.485835   23.676057 C.3        1 MOL1        -0.1760
      16    H10     20.490308   21.261149   24.452963 H          1 MOL1         0.0833
      17    H11     21.509316   20.653465   23.213324 H          1 MOL1         0.0833
      18    C7      19.416911   20.797362   22.641438 C.3        1 MOL1        -0.1684
      19    H12     19.543851   21.846511   22.341527 H          1 MOL1         0.0833
      20    H13     18.437645   20.752342   23.136255 H          1 MOL1         0.0833
      21    C8      19.363736   19.945929   21.339584 C.3        1 MOL1        -0.1684
      22    H14     18.837554   20.545464   20.584272 H          1 MOL1         0.0833
      23    H15     18.715940   19.073366   21.469002 H          1 MOL1         0.0833
      24    O1      19.651472   19.225114   25.520375 O.3        1 MOL1        -0.5508
      25    H16     18.776387   19.486434   25.168187 H          1 MOL1         0.3780
@<TRIPOS>BOND
    1     1     2    1
    2     1     3    1
    3     1     4    1
    4     4     5    1
    5     4     6    1
    6     4     7    1
    7     7     8    1
    8     7     9    1
    9     7    10    1
   10    10    11    1
   11    10    12    1
   12    10    13    1
   13    13    14    1
   14    13    15    1
   15    15    16    1
   16    15    17    1
   17    15    18    1
   18    18    19    1
   19    18    20    1
   20     1    21    1
   21    18    21    1
   22    21    22    1
   23    21    23    1
   24    13    24    1
   25    24    25    1
@<TRIPOS>SUBSTRUCTURE
       1 MOL1            1 RESIDUE      1      MOL     
@<SCITEGIC>MOL_PROPERTY
VM2 Rank
SciTegic.value.IntegerValue
96

@<SCITEGIC>MOL_PROPERTY
Conf_Id
SciTegic.value.IntegerValue
204

@<SCITEGIC>MOL_PROPERTY
Probability
SciTegic.value.DoubleValue
0.00

@<SCITEGIC>MOL_PROPERTY
Sum Probability
SciTegic.value.DoubleValue
99.96

@<SCITEGIC>MOL_PROPERTY
Delta G
SciTegic.value.DoubleValue
4.153

@<SCITEGIC>MOL_PROPERTY
G
SciTegic.value.DoubleValue
66.228

@<SCITEGIC>MOL_PROPERTY
E
SciTegic.value.DoubleValue
33.565

@<SCITEGIC>MOL_PROPERTY
-TS
SciTegic.value.DoubleValue
32.663

@<SCITEGIC>MOL_PROPERTY
U+W
SciTegic.value.DoubleValue
12.998

@<SCITEGIC>MOL_PROPERTY
U
SciTegic.value.DoubleValue
14.560

@<SCITEGIC>MOL_PROPERTY
W
SciTegic.value.DoubleValue
-1.562

@<SCITEGIC>MOL_PROPERTY
W(PB)
SciTegic.value.DoubleValue
-3.690

@<SCITEGIC>MOL_PROPERTY
W(SA)
SciTegic.value.DoubleValue
2.128

@<SCITEGIC>MOL_PROPERTY
Valence
SciTegic.value.DoubleValue
19.306

@<SCITEGIC>MOL_PROPERTY
Coulomb
SciTegic.value.DoubleValue
-8.913

@<SCITEGIC>MOL_PROPERTY
VdW
SciTegic.value.DoubleValue
4.167

@<SCITEGIC>MOL_PROPERTY
VdW6
SciTegic.value.DoubleValue
-13.653

@<SCITEGIC>MOL_PROPERTY
VdW12
SciTegic.value.DoubleValue
17.820

@<SCITEGIC>MOL_PROPERTY
Bond
SciTegic.value.DoubleValue
0.720

@<SCITEGIC>MOL_PROPERTY
Angle
SciTegic.value.DoubleValue
9.344

@<SCITEGIC>MOL_PROPERTY
Pdih
SciTegic.value.DoubleValue
9.243

@<SCITEGIC>MOL_PROPERTY
Idih
SciTegic.value.DoubleValue
0.000

@<SCITEGIC>MOL_PROPERTY
Tether
SciTegic.value.DoubleValue
0.000

@<TRIPOS>MOLECULE
guest-s17_vm2.mol2 : vm2 ligand conformer 97
          25          25           1
SMALL
USER_CHARGES
 
@<TRIPOS>ATOM
       1    C1      20.787515   19.285143   20.718682 C.3        1 MOL1        -0.1684
       2    H1      20.282360   19.416923   19.752114 H          1 MOL1         0.0833
       3    H2      21.846487   19.124760   20.475328 H          1 MOL1         0.0833
       4    C2      20.209628   17.994690   21.357184 C.3        1 MOL1        -0.1684
       5    H3      19.128908   18.107793   21.487603 H          1 MOL1         0.0833
       6    H4      20.294840   17.190883   20.613248 H          1 MOL1         0.0833
       7    C3      20.876805   17.478028   22.665054 C.3        1 MOL1        -0.1684
       8    H5      21.735716   16.859024   22.372001 H          1 MOL1         0.0833
       9    H6      20.183667   16.793313   23.171570 H          1 MOL1         0.0833
      10    C4      21.403002   18.526534   23.683261 C.3        1 MOL1        -0.1760
      11    H7      21.948072   17.982970   24.466810 H          1 MOL1         0.0833
      12    H8      22.184716   19.126815   23.209830 H          1 MOL1         0.0833
      13    C5      20.366582   19.449365   24.386905 C.3        1 MOL1         0.1219
      14    H9      20.895855   20.350579   24.727653 H          1 MOL1         0.0790
      15    C6      19.127533   19.900462   23.572776 C.3        1 MOL1        -0.1760
      16    H10     18.543492   19.022092   23.283836 H          1 MOL1         0.0833
      17    H11     18.461703   20.441133   24.258626 H          1 MOL1         0.0833
      18    C7      19.362670   20.831200   22.345714 C.3        1 MOL1        -0.1684
      19    H12     19.386847   21.864973   22.716704 H          1 MOL1         0.0833
      20    H13     18.485786   20.777570   21.686480 H          1 MOL1         0.0833
      21    C8      20.647760   20.623219   21.502140 C.3        1 MOL1        -0.1684
      22    H14     21.526986   20.801483   22.129027 H          1 MOL1         0.0833
      23    H15     20.692746   21.434617   20.762883 H          1 MOL1         0.0833
      24    O1      19.882505   18.754361   25.528283 O.3        1 MOL1        -0.5508
      25    H16     19.483597   17.927349   25.189136 H          1 MOL1         0.3780
@<TRIPOS>BOND
    1     1     2    1
    2     1     3    1
    3     1     4    1
    4     4     5    1
    5     4     6    1
    6     4     7    1
    7     7     8    1
    8     7     9    1
    9     7    10    1
   10    10    11    1
   11    10    12    1
   12    10    13    1
   13    13    14    1
   14    13    15    1
   15    15    16    1
   16    15    17    1
   17    15    18    1
   18    18    19    1
   19    18    20    1
   20     1    21    1
   21    18    21    1
   22    21    22    1
   23    21    23    1
   24    13    24    1
   25    24    25    1
@<TRIPOS>SUBSTRUCTURE
       1 MOL1            1 RESIDUE      1      MOL     
@<SCITEGIC>MOL_PROPERTY
VM2 Rank
SciTegic.value.IntegerValue
97

@<SCITEGIC>MOL_PROPERTY
Conf_Id
SciTegic.value.IntegerValue
184

@<SCITEGIC>MOL_PROPERTY
Probability
SciTegic.value.DoubleValue
0.00

@<SCITEGIC>MOL_PROPERTY
Sum Probability
SciTegic.value.DoubleValue
99.96

@<SCITEGIC>MOL_PROPERTY
Delta G
SciTegic.value.DoubleValue
4.165

@<SCITEGIC>MOL_PROPERTY
G
SciTegic.value.DoubleValue
66.240

@<SCITEGIC>MOL_PROPERTY
E
SciTegic.value.DoubleValue
33.577

@<SCITEGIC>MOL_PROPERTY
-TS
SciTegic.value.DoubleValue
32.664

@<SCITEGIC>MOL_PROPERTY
U+W
SciTegic.value.DoubleValue
13.009

@<SCITEGIC>MOL_PROPERTY
U
SciTegic.value.DoubleValue
14.560

@<SCITEGIC>MOL_PROPERTY
W
SciTegic.value.DoubleValue
-1.550

@<SCITEGIC>MOL_PROPERTY
W(PB)
SciTegic.value.DoubleValue
-3.681

@<SCITEGIC>MOL_PROPERTY
W(SA)
SciTegic.value.DoubleValue
2.130

@<SCITEGIC>MOL_PROPERTY
Valence
SciTegic.value.DoubleValue
19.306

@<SCITEGIC>MOL_PROPERTY
Coulomb
SciTegic.value.DoubleValue
-8.913

@<SCITEGIC>MOL_PROPERTY
VdW
SciTegic.value.DoubleValue
4.167

@<SCITEGIC>MOL_PROPERTY
VdW6
SciTegic.value.DoubleValue
-13.653

@<SCITEGIC>MOL_PROPERTY
VdW12
SciTegic.value.DoubleValue
17.820

@<SCITEGIC>MOL_PROPERTY
Bond
SciTegic.value.DoubleValue
0.720

@<SCITEGIC>MOL_PROPERTY
Angle
SciTegic.value.DoubleValue
9.343

@<SCITEGIC>MOL_PROPERTY
Pdih
SciTegic.value.DoubleValue
9.244

@<SCITEGIC>MOL_PROPERTY
Idih
SciTegic.value.DoubleValue
0.000

@<SCITEGIC>MOL_PROPERTY
Tether
SciTegic.value.DoubleValue
0.000

@<TRIPOS>MOLECULE
guest-s17_vm2.mol2 : vm2 ligand conformer 98
          25          25           1
SMALL
USER_CHARGES
 
@<TRIPOS>ATOM
       1    C1      21.378875   19.559817   21.242157 C.3        1 MOL1        -0.1684
       2    H1      21.942147   19.786191   20.326527 H          1 MOL1         0.0833
       3    H2      22.136477   19.626970   22.029405 H          1 MOL1         0.0833
       4    C2      20.879619   18.094902   21.132133 C.3        1 MOL1        -0.1684
       5    H3      20.217323   18.003594   20.260657 H          1 MOL1         0.0833
       6    H4      21.756026   17.474752   20.899336 H          1 MOL1         0.0833
       7    C3      20.175810   17.461239   22.367699 C.3        1 MOL1        -0.1684
       8    H5      20.293699   16.372345   22.283280 H          1 MOL1         0.0833
       9    H6      19.092110   17.605835   22.315220 H          1 MOL1         0.0833
      10    C4      20.681601   17.879829   23.774816 C.3        1 MOL1        -0.1760
      11    H7      20.162570   17.241927   24.502827 H          1 MOL1         0.0833
      12    H8      21.744783   17.622391   23.862316 H          1 MOL1         0.0833
      13    C5      20.499276   19.359601   24.219357 C.3        1 MOL1         0.1219
      14    H9      21.358489   19.950592   23.885749 H          1 MOL1         0.0790
      15    C6      19.209821   20.079867   23.750091 C.3        1 MOL1        -0.1760
      16    H10     18.335725   19.525133   24.115605 H          1 MOL1         0.0833
      17    H11     19.177511   21.052782   24.257689 H          1 MOL1         0.0833
      18    C7      19.030999   20.354371   22.227201 C.3        1 MOL1        -0.1684
      19    H12     18.348094   21.209408   22.130398 H          1 MOL1         0.0833
      20    H13     18.486633   19.536428   21.744855 H          1 MOL1         0.0833
      21    C8      20.306049   20.676482   21.404406 C.3        1 MOL1        -0.1684
      22    H14     19.972555   20.959452   20.396610 H          1 MOL1         0.0833
      23    H15     20.786001   21.574734   21.815819 H          1 MOL1         0.0833
      24    O1      20.501951   19.376893   25.642139 O.3        1 MOL1        -0.5508
      25    H16     20.452591   20.317016   25.913779 H          1 MOL1         0.3780
@<TRIPOS>BOND
    1     1     2    1
    2     1     3    1
    3     1     4    1
    4     4     5    1
    5     4     6    1
    6     4     7    1
    7     7     8    1
    8     7     9    1
    9     7    10    1
   10    10    11    1
   11    10    12    1
   12    10    13    1
   13    13    14    1
   14    13    15    1
   15    15    16    1
   16    15    17    1
   17    15    18    1
   18    18    19    1
   19    18    20    1
   20     1    21    1
   21    18    21    1
   22    21    22    1
   23    21    23    1
   24    13    24    1
   25    24    25    1
@<TRIPOS>SUBSTRUCTURE
       1 MOL1            1 RESIDUE      1      MOL     
@<SCITEGIC>MOL_PROPERTY
VM2 Rank
SciTegic.value.IntegerValue
98

@<SCITEGIC>MOL_PROPERTY
Conf_Id
SciTegic.value.IntegerValue
1281

@<SCITEGIC>MOL_PROPERTY
Probability
SciTegic.value.DoubleValue
0.00

@<SCITEGIC>MOL_PROPERTY
Sum Probability
SciTegic.value.DoubleValue
99.97

@<SCITEGIC>MOL_PROPERTY
Delta G
SciTegic.value.DoubleValue
4.183

@<SCITEGIC>MOL_PROPERTY
G
SciTegic.value.DoubleValue
66.258

@<SCITEGIC>MOL_PROPERTY
E
SciTegic.value.DoubleValue
33.597

@<SCITEGIC>MOL_PROPERTY
-TS
SciTegic.value.DoubleValue
32.661

@<SCITEGIC>MOL_PROPERTY
U+W
SciTegic.value.DoubleValue
13.030

@<SCITEGIC>MOL_PROPERTY
U
SciTegic.value.DoubleValue
15.076

@<SCITEGIC>MOL_PROPERTY
W
SciTegic.value.DoubleValue
-2.046

@<SCITEGIC>MOL_PROPERTY
W(PB)
SciTegic.value.DoubleValue
-4.188

@<SCITEGIC>MOL_PROPERTY
W(SA)
SciTegic.value.DoubleValue
2.142

@<SCITEGIC>MOL_PROPERTY
Valence
SciTegic.value.DoubleValue
18.884

@<SCITEGIC>MOL_PROPERTY
Coulomb
SciTegic.value.DoubleValue
-8.074

@<SCITEGIC>MOL_PROPERTY
VdW
SciTegic.value.DoubleValue
4.266

@<SCITEGIC>MOL_PROPERTY
VdW6
SciTegic.value.DoubleValue
-13.486

@<SCITEGIC>MOL_PROPERTY
VdW12
SciTegic.value.DoubleValue
17.752

@<SCITEGIC>MOL_PROPERTY
Bond
SciTegic.value.DoubleValue
0.713

@<SCITEGIC>MOL_PROPERTY
Angle
SciTegic.value.DoubleValue
8.957

@<SCITEGIC>MOL_PROPERTY
Pdih
SciTegic.value.DoubleValue
9.214

@<SCITEGIC>MOL_PROPERTY
Idih
SciTegic.value.DoubleValue
0.000

@<SCITEGIC>MOL_PROPERTY
Tether
SciTegic.value.DoubleValue
0.000

@<TRIPOS>MOLECULE
guest-s17_vm2.mol2 : vm2 ligand conformer 99
          25          25           1
SMALL
USER_CHARGES
 
@<TRIPOS>ATOM
       1    C1      21.327689   19.720487   21.251956 C.3        1 MOL1        -0.1684
       2    H1      21.894731   19.959240   20.341814 H          1 MOL1         0.0833
       3    H2      21.900261   20.212999   22.044308 H          1 MOL1         0.0833
       4    C2      21.363848   18.172792   21.417926 C.3        1 MOL1        -0.1684
       5    H3      21.340800   17.734565   20.410768 H          1 MOL1         0.0833
       6    H4      22.335254   17.882262   21.840339 H          1 MOL1         0.0833
       7    C3      20.228798   17.495689   22.230140 C.3        1 MOL1        -0.1684
       8    H5      20.356383   16.408550   22.137031 H          1 MOL1         0.0833
       9    H6      19.269836   17.683777   21.737153 H          1 MOL1         0.0833
      10    C4      20.143509   17.819210   23.751515 C.3        1 MOL1        -0.1760
      11    H7      19.130379   17.589583   24.106775 H          1 MOL1         0.0833
      12    H8      20.806389   17.112530   24.267708 H          1 MOL1         0.0833
      13    C5      20.534555   19.243113   24.221913 C.3        1 MOL1         0.1219
      14    H9      21.562654   19.436673   23.898866 H          1 MOL1         0.0790
      15    C6      19.616677   20.413294   23.765006 C.3        1 MOL1        -0.1760
      16    H10     18.790501   20.495246   24.484055 H          1 MOL1         0.0833
      17    H11     20.181279   21.349851   23.856516 H          1 MOL1         0.0833
      18    C7      18.978391   20.345664   22.351134 C.3        1 MOL1        -0.1684
      19    H12     18.288931   21.195718   22.257509 H          1 MOL1         0.0833
      20    H13     18.318816   19.474053   22.293486 H          1 MOL1         0.0833
      21    C8      19.937039   20.396852   21.125625 C.3        1 MOL1        -0.1684
      22    H14     19.415302   19.988864   20.249395 H          1 MOL1         0.0833
      23    H15     20.116010   21.455377   20.892468 H          1 MOL1         0.0833
      24    O1      20.533494   19.235901   25.644785 O.3        1 MOL1        -0.5508
      25    H16     21.163478   18.539601   25.924679 H          1 MOL1         0.3780
@<TRIPOS>BOND
    1     1     2    1
    2     1     3    1
    3     1     4    1
    4     4     5    1
    5     4     6    1
    6     4     7    1
    7     7     8    1
    8     7     9    1
    9     7    10    1
   10    10    11    1
   11    10    12    1
   12    10    13    1
   13    13    14    1
   14    13    15    1
   15    15    16    1
   16    15    17    1
   17    15    18    1
   18    18    19    1
   19    18    20    1
   20     1    21    1
   21    18    21    1
   22    21    22    1
   23    21    23    1
   24    13    24    1
   25    24    25    1
@<TRIPOS>SUBSTRUCTURE
       1 MOL1            1 RESIDUE      1      MOL     
@<SCITEGIC>MOL_PROPERTY
VM2 Rank
SciTegic.value.IntegerValue
99

@<SCITEGIC>MOL_PROPERTY
Conf_Id
SciTegic.value.IntegerValue
1445

@<SCITEGIC>MOL_PROPERTY
Probability
SciTegic.value.DoubleValue
0.00

@<SCITEGIC>MOL_PROPERTY
Sum Probability
SciTegic.value.DoubleValue
99.97

@<SCITEGIC>MOL_PROPERTY
Delta G
SciTegic.value.DoubleValue
4.186

@<SCITEGIC>MOL_PROPERTY
G
SciTegic.value.DoubleValue
66.261

@<SCITEGIC>MOL_PROPERTY
E
SciTegic.value.DoubleValue
33.601

@<SCITEGIC>MOL_PROPERTY
-TS
SciTegic.value.DoubleValue
32.661

@<SCITEGIC>MOL_PROPERTY
U+W
SciTegic.value.DoubleValue
13.033

@<SCITEGIC>MOL_PROPERTY
U
SciTegic.value.DoubleValue
15.076

@<SCITEGIC>MOL_PROPERTY
W
SciTegic.value.DoubleValue
-2.043

@<SCITEGIC>MOL_PROPERTY
W(PB)
SciTegic.value.DoubleValue
-4.186

@<SCITEGIC>MOL_PROPERTY
W(SA)
SciTegic.value.DoubleValue
2.143

@<SCITEGIC>MOL_PROPERTY
Valence
SciTegic.value.DoubleValue
18.884

@<SCITEGIC>MOL_PROPERTY
Coulomb
SciTegic.value.DoubleValue
-8.074

@<SCITEGIC>MOL_PROPERTY
VdW
SciTegic.value.DoubleValue
4.266

@<SCITEGIC>MOL_PROPERTY
VdW6
SciTegic.value.DoubleValue
-13.486

@<SCITEGIC>MOL_PROPERTY
VdW12
SciTegic.value.DoubleValue
17.751

@<SCITEGIC>MOL_PROPERTY
Bond
SciTegic.value.DoubleValue
0.713

@<SCITEGIC>MOL_PROPERTY
Angle
SciTegic.value.DoubleValue
8.958

@<SCITEGIC>MOL_PROPERTY
Pdih
SciTegic.value.DoubleValue
9.213

@<SCITEGIC>MOL_PROPERTY
Idih
SciTegic.value.DoubleValue
0.000

@<SCITEGIC>MOL_PROPERTY
Tether
SciTegic.value.DoubleValue
0.000

@<TRIPOS>MOLECULE
guest-s17_vm2.mol2 : vm2 ligand conformer 100
          25          25           1
SMALL
USER_CHARGES
 
@<TRIPOS>ATOM
       1    C1      21.378762   19.558991   21.242989 C.3        1 MOL1        -0.1684
       2    H1      22.135879   19.624257   22.030961 H          1 MOL1         0.0833
       3    H2      21.942821   19.785204   20.327808 H          1 MOL1         0.0833
       4    C2      20.876497   18.095207   21.131679 C.3        1 MOL1        -0.1684
       5    H3      20.211687   18.006404   20.261855 H          1 MOL1         0.0833
       6    H4      21.751190   17.473886   20.895557 H          1 MOL1         0.0833
       7    C3      20.175303   17.461219   22.368538 C.3        1 MOL1        -0.1684
       8    H5      20.292628   16.372321   22.282862 H          1 MOL1         0.0833
       9    H6      19.091516   17.606604   22.318686 H          1 MOL1         0.0833
      10    C4      20.686243   17.879167   23.773797 C.3        1 MOL1        -0.1760
      11    H7      20.178103   17.232130   24.500978 H          1 MOL1         0.0833
      12    H8      21.752218   17.629690   23.852399 H          1 MOL1         0.0833
      13    C5      20.497797   19.358259   24.219377 C.3        1 MOL1         0.1219
      14    H9      21.355387   19.952781   23.888104 H          1 MOL1         0.0790
      15    C6      19.208482   20.078140   23.749555 C.3        1 MOL1        -0.1760
      16    H10     18.331129   19.526954   24.111816 H          1 MOL1         0.0833
      17    H11     19.181258   21.049928   24.260496 H          1 MOL1         0.0833
      18    C7      19.031583   20.355359   22.226917 C.3        1 MOL1        -0.1684
      19    H12     18.349827   21.211391   22.130906 H          1 MOL1         0.0833
      20    H13     18.487124   19.538538   21.742624 H          1 MOL1         0.0833
      21    C8      20.307860   20.677266   21.406095 C.3        1 MOL1        -0.1684
      22    H14     20.788888   21.573657   21.820357 H          1 MOL1         0.0833
      23    H15     19.976043   20.963083   20.398558 H          1 MOL1         0.0833
      24    O1      20.501473   19.379392   25.641055 O.3        1 MOL1        -0.5508
      25    H16     19.710110   18.879215   25.927705 H          1 MOL1         0.3780
@<TRIPOS>BOND
    1     1     2    1
    2     1     3    1
    3     1     4    1
    4     4     5    1
    5     4     6    1
    6     4     7    1
    7     7     8    1
    8     7     9    1
    9     7    10    1
   10    10    11    1
   11    10    12    1
   12    10    13    1
   13    13    14    1
   14    13    15    1
   15    15    16    1
   16    15    17    1
   17    15    18    1
   18    18    19    1
   19    18    20    1
   20     1    21    1
   21    18    21    1
   22    21    22    1
   23    21    23    1
   24    13    24    1
   25    24    25    1
@<TRIPOS>SUBSTRUCTURE
       1 MOL1            1 RESIDUE      1      MOL     
@<SCITEGIC>MOL_PROPERTY
VM2 Rank
SciTegic.value.IntegerValue
100

@<SCITEGIC>MOL_PROPERTY
Conf_Id
SciTegic.value.IntegerValue
331

@<SCITEGIC>MOL_PROPERTY
Probability
SciTegic.value.DoubleValue
0.00

@<SCITEGIC>MOL_PROPERTY
Sum Probability
SciTegic.value.DoubleValue
99.98

@<SCITEGIC>MOL_PROPERTY
Delta G
SciTegic.value.DoubleValue
4.200

@<SCITEGIC>MOL_PROPERTY
G
SciTegic.value.DoubleValue
66.276

@<SCITEGIC>MOL_PROPERTY
E
SciTegic.value.DoubleValue
33.617

@<SCITEGIC>MOL_PROPERTY
-TS
SciTegic.value.DoubleValue
32.659

@<SCITEGIC>MOL_PROPERTY
U+W
SciTegic.value.DoubleValue
13.049

@<SCITEGIC>MOL_PROPERTY
U
SciTegic.value.DoubleValue
15.005

@<SCITEGIC>MOL_PROPERTY
W
SciTegic.value.DoubleValue
-1.955

@<SCITEGIC>MOL_PROPERTY
W(PB)
SciTegic.value.DoubleValue
-4.087

@<SCITEGIC>MOL_PROPERTY
W(SA)
SciTegic.value.DoubleValue
2.131

@<SCITEGIC>MOL_PROPERTY
Valence
SciTegic.value.DoubleValue
19.235

@<SCITEGIC>MOL_PROPERTY
Coulomb
SciTegic.value.DoubleValue
-8.450

@<SCITEGIC>MOL_PROPERTY
VdW
SciTegic.value.DoubleValue
4.220

@<SCITEGIC>MOL_PROPERTY
VdW6
SciTegic.value.DoubleValue
-13.530

@<SCITEGIC>MOL_PROPERTY
VdW12
SciTegic.value.DoubleValue
17.750

@<SCITEGIC>MOL_PROPERTY
Bond
SciTegic.value.DoubleValue
0.710

@<SCITEGIC>MOL_PROPERTY
Angle
SciTegic.value.DoubleValue
8.935

@<SCITEGIC>MOL_PROPERTY
Pdih
SciTegic.value.DoubleValue
9.590

@<SCITEGIC>MOL_PROPERTY
Idih
SciTegic.value.DoubleValue
0.000

@<SCITEGIC>MOL_PROPERTY
Tether
SciTegic.value.DoubleValue
0.000

@<TRIPOS>MOLECULE
guest-s17_vm2.mol2 : vm2 ligand conformer 101
          25          25           1
SMALL
USER_CHARGES
 
@<TRIPOS>ATOM
       1    C1      21.327131   19.721107   21.252882 C.3        1 MOL1        -0.1684
       2    H1      21.894648   19.960569   20.343227 H          1 MOL1         0.0833
       3    H2      21.897926   20.214643   22.045980 H          1 MOL1         0.0833
       4    C2      21.365885   18.173648   21.419745 C.3        1 MOL1        -0.1684
       5    H3      21.346252   17.734600   20.412880 H          1 MOL1         0.0833
       6    H4      22.336649   17.885283   21.845166 H          1 MOL1         0.0833
       7    C3      20.230059   17.495426   22.229785 C.3        1 MOL1        -0.1684
       8    H5      20.359234   16.408414   22.137473 H          1 MOL1         0.0833
       9    H6      19.271914   17.682612   21.734718 H          1 MOL1         0.0833
      10    C4      20.141243   17.819444   23.750869 C.3        1 MOL1        -0.1760
      11    H7      19.128305   17.585032   24.102714 H          1 MOL1         0.0833
      12    H8      20.806754   17.117136   24.270517 H          1 MOL1         0.0833
      13    C5      20.532437   19.242952   24.221921 C.3        1 MOL1         0.1219
      14    H9      21.561902   19.432896   23.901316 H          1 MOL1         0.0790
      15    C6      19.619392   20.417008   23.763990 C.3        1 MOL1        -0.1760
      16    H10     18.794360   20.513113   24.482142 H          1 MOL1         0.0833
      17    H11     20.191699   21.349928   23.846744 H          1 MOL1         0.0833
      18    C7      18.978008   20.345271   22.351912 C.3        1 MOL1        -0.1684
      19    H12     18.288109   21.194880   22.257006 H          1 MOL1         0.0833
      20    H13     18.318975   19.472999   22.296834 H          1 MOL1         0.0833
      21    C8      19.935143   20.394448   21.125167 C.3        1 MOL1        -0.1684
      22    H14     20.112060   21.452589   20.888694 H          1 MOL1         0.0833
      23    H15     19.413484   19.982896   20.250553 H          1 MOL1         0.0833
      24    O1      20.534701   19.233697   25.643729 O.3        1 MOL1        -0.5508
      25    H16     19.619307   19.024425   25.920963 H          1 MOL1         0.3780
@<TRIPOS>BOND
    1     1     2    1
    2     1     3    1
    3     1     4    1
    4     4     5    1
    5     4     6    1
    6     4     7    1
    7     7     8    1
    8     7     9    1
    9     7    10    1
   10    10    11    1
   11    10    12    1
   12    10    13    1
   13    13    14    1
   14    13    15    1
   15    15    16    1
   16    15    17    1
   17    15    18    1
   18    18    19    1
   19    18    20    1
   20     1    21    1
   21    18    21    1
   22    21    22    1
   23    21    23    1
   24    13    24    1
   25    24    25    1
@<TRIPOS>SUBSTRUCTURE
       1 MOL1            1 RESIDUE      1      MOL     
@<SCITEGIC>MOL_PROPERTY
VM2 Rank
SciTegic.value.IntegerValue
101

@<SCITEGIC>MOL_PROPERTY
Conf_Id
SciTegic.value.IntegerValue
1639

@<SCITEGIC>MOL_PROPERTY
Probability
SciTegic.value.DoubleValue
0.00

@<SCITEGIC>MOL_PROPERTY
Sum Probability
SciTegic.value.DoubleValue
99.98

@<SCITEGIC>MOL_PROPERTY
Delta G
SciTegic.value.DoubleValue
4.254

@<SCITEGIC>MOL_PROPERTY
G
SciTegic.value.DoubleValue
66.330

@<SCITEGIC>MOL_PROPERTY
E
SciTegic.value.DoubleValue
33.671

@<SCITEGIC>MOL_PROPERTY
-TS
SciTegic.value.DoubleValue
32.659

@<SCITEGIC>MOL_PROPERTY
U+W
SciTegic.value.DoubleValue
13.104

@<SCITEGIC>MOL_PROPERTY
U
SciTegic.value.DoubleValue
15.005

@<SCITEGIC>MOL_PROPERTY
W
SciTegic.value.DoubleValue
-1.901

@<SCITEGIC>MOL_PROPERTY
W(PB)
SciTegic.value.DoubleValue
-4.032

@<SCITEGIC>MOL_PROPERTY
W(SA)
SciTegic.value.DoubleValue
2.131

@<SCITEGIC>MOL_PROPERTY
Valence
SciTegic.value.DoubleValue
19.235

@<SCITEGIC>MOL_PROPERTY
Coulomb
SciTegic.value.DoubleValue
-8.450

@<SCITEGIC>MOL_PROPERTY
VdW
SciTegic.value.DoubleValue
4.220

@<SCITEGIC>MOL_PROPERTY
VdW6
SciTegic.value.DoubleValue
-13.530

@<SCITEGIC>MOL_PROPERTY
VdW12
SciTegic.value.DoubleValue
17.750

@<SCITEGIC>MOL_PROPERTY
Bond
SciTegic.value.DoubleValue
0.710

@<SCITEGIC>MOL_PROPERTY
Angle
SciTegic.value.DoubleValue
8.935

@<SCITEGIC>MOL_PROPERTY
Pdih
SciTegic.value.DoubleValue
9.590

@<SCITEGIC>MOL_PROPERTY
Idih
SciTegic.value.DoubleValue
0.000

@<SCITEGIC>MOL_PROPERTY
Tether
SciTegic.value.DoubleValue
0.000

@<TRIPOS>MOLECULE
guest-s17_vm2.mol2 : vm2 ligand conformer 102
          25          25           1
SMALL
USER_CHARGES
 
@<TRIPOS>ATOM
       1    C1      20.721543   19.500536   20.722505 C.3        1 MOL1        -0.1684
       2    H1      20.497051   19.037121   19.752127 H          1 MOL1         0.0833
       3    H2      21.322639   20.389787   20.489576 H          1 MOL1         0.0833
       4    C2      21.597740   18.495159   21.525890 C.3        1 MOL1        -0.1684
       5    H3      22.236199   17.973303   20.800001 H          1 MOL1         0.0833
       6    H4      22.314543   19.024605   22.161387 H          1 MOL1         0.0833
       7    C3      20.864870   17.415517   22.364919 C.3        1 MOL1        -0.1684
       8    H5      21.633944   16.731373   22.748729 H          1 MOL1         0.0833
       9    H6      20.236835   16.806593   21.700762 H          1 MOL1         0.0833
      10    C4      20.008024   17.882683   23.579776 C.3        1 MOL1        -0.1760
      11    H7      18.969113   18.050790   23.281580 H          1 MOL1         0.0833
      12    H8      19.944381   17.032474   24.271672 H          1 MOL1         0.0833
      13    C5      20.506118   19.105799   24.389981 C.3        1 MOL1         0.1219
      14    H9      21.527997   18.889967   24.733419 H          1 MOL1         0.0790
      15    C6      20.528621   20.487878   23.673279 C.3        1 MOL1        -0.1760
      16    H10     20.482116   21.267214   24.445141 H          1 MOL1         0.0833
      17    H11     21.503220   20.657826   23.207416 H          1 MOL1         0.0833
      18    C7      19.409388   20.790864   22.640114 C.3        1 MOL1        -0.1684
      19    H12     19.519682   21.843687   22.346937 H          1 MOL1         0.0833
      20    H13     18.432625   20.725553   23.138501 H          1 MOL1         0.0833
      21    C8      19.366802   19.945207   21.333871 C.3        1 MOL1        -0.1684
      22    H14     18.721405   19.069849   21.457771 H          1 MOL1         0.0833
      23    H15     18.842762   20.545676   20.577871 H          1 MOL1         0.0833
      24    O1      19.660894   19.219356   25.529666 O.3        1 MOL1        -0.5508
      25    H16     20.008765   19.960452   26.067260 H          1 MOL1         0.3780
@<TRIPOS>BOND
    1     1     2    1
    2     1     3    1
    3     1     4    1
    4     4     5    1
    5     4     6    1
    6     4     7    1
    7     7     8    1
    8     7     9    1
    9     7    10    1
   10    10    11    1
   11    10    12    1
   12    10    13    1
   13    13    14    1
   14    13    15    1
   15    15    16    1
   16    15    17    1
   17    15    18    1
   18    18    19    1
   19    18    20    1
   20     1    21    1
   21    18    21    1
   22    21    22    1
   23    21    23    1
   24    13    24    1
   25    24    25    1
@<TRIPOS>SUBSTRUCTURE
       1 MOL1            1 RESIDUE      1      MOL     
@<SCITEGIC>MOL_PROPERTY
VM2 Rank
SciTegic.value.IntegerValue
102

@<SCITEGIC>MOL_PROPERTY
Conf_Id
SciTegic.value.IntegerValue
1071

@<SCITEGIC>MOL_PROPERTY
Probability
SciTegic.value.DoubleValue
0.00

@<SCITEGIC>MOL_PROPERTY
Sum Probability
SciTegic.value.DoubleValue
99.98

@<SCITEGIC>MOL_PROPERTY
Delta G
SciTegic.value.DoubleValue
4.583

@<SCITEGIC>MOL_PROPERTY
G
SciTegic.value.DoubleValue
66.658

@<SCITEGIC>MOL_PROPERTY
E
SciTegic.value.DoubleValue
33.998

@<SCITEGIC>MOL_PROPERTY
-TS
SciTegic.value.DoubleValue
32.661

@<SCITEGIC>MOL_PROPERTY
U+W
SciTegic.value.DoubleValue
13.430

@<SCITEGIC>MOL_PROPERTY
U
SciTegic.value.DoubleValue
15.643

@<SCITEGIC>MOL_PROPERTY
W
SciTegic.value.DoubleValue
-2.213

@<SCITEGIC>MOL_PROPERTY
W(PB)
SciTegic.value.DoubleValue
-4.344

@<SCITEGIC>MOL_PROPERTY
W(SA)
SciTegic.value.DoubleValue
2.131

@<SCITEGIC>MOL_PROPERTY
Valence
SciTegic.value.DoubleValue
18.916

@<SCITEGIC>MOL_PROPERTY
Coulomb
SciTegic.value.DoubleValue
-7.506

@<SCITEGIC>MOL_PROPERTY
VdW
SciTegic.value.DoubleValue
4.232

@<SCITEGIC>MOL_PROPERTY
VdW6
SciTegic.value.DoubleValue
-13.632

@<SCITEGIC>MOL_PROPERTY
VdW12
SciTegic.value.DoubleValue
17.864

@<SCITEGIC>MOL_PROPERTY
Bond
SciTegic.value.DoubleValue
0.735

@<SCITEGIC>MOL_PROPERTY
Angle
SciTegic.value.DoubleValue
9.140

@<SCITEGIC>MOL_PROPERTY
Pdih
SciTegic.value.DoubleValue
9.042

@<SCITEGIC>MOL_PROPERTY
Idih
SciTegic.value.DoubleValue
0.000

@<SCITEGIC>MOL_PROPERTY
Tether
SciTegic.value.DoubleValue
0.000

@<TRIPOS>MOLECULE
guest-s17_vm2.mol2 : vm2 ligand conformer 103
          25          25           1
SMALL
USER_CHARGES
 
@<TRIPOS>ATOM
       1    C1      20.795527   19.287804   20.719669 C.3        1 MOL1        -0.1684
       2    H1      20.299396   19.420876   19.748623 H          1 MOL1         0.0833
       3    H2      21.856699   19.127497   20.486095 H          1 MOL1         0.0833
       4    C2      20.210703   17.997265   21.351576 C.3        1 MOL1        -0.1684
       5    H3      19.129573   18.113935   21.476821 H          1 MOL1         0.0833
       6    H4      20.297785   17.194336   20.606970 H          1 MOL1         0.0833
       7    C3      20.866975   17.476879   22.663719 C.3        1 MOL1        -0.1684
       8    H5      21.717335   16.843278   22.377378 H          1 MOL1         0.0833
       9    H6      20.160799   16.807725   23.173886 H          1 MOL1         0.0833
      10    C4      21.401883   18.522069   23.680261 C.3        1 MOL1        -0.1760
      11    H7      21.947595   17.972947   24.458697 H          1 MOL1         0.0833
      12    H8      22.183886   19.119471   23.203466 H          1 MOL1         0.0833
      13    C5      20.369053   19.448852   24.386406 C.3        1 MOL1         0.1219
      14    H9      20.900630   20.353301   24.715293 H          1 MOL1         0.0790
      15    C6      19.128239   19.895342   23.573036 C.3        1 MOL1        -0.1760
      16    H10     18.550032   19.011202   23.289318 H          1 MOL1         0.0833
      17    H11     18.459996   20.432454   24.259032 H          1 MOL1         0.0833
      18    C7      19.358687   20.825000   22.343833 C.3        1 MOL1        -0.1684
      19    H12     19.374251   21.859721   22.712540 H          1 MOL1         0.0833
      20    H13     18.483635   20.763121   21.682942 H          1 MOL1         0.0833
      21    C8      20.647582   20.624519   21.504039 C.3        1 MOL1        -0.1684
      22    H14     21.523853   20.805136   22.134518 H          1 MOL1         0.0833
      23    H15     20.691575   21.437144   20.766079 H          1 MOL1         0.0833
      24    O1      19.885352   18.765270   25.537462 O.3        1 MOL1        -0.5508
      25    H16     20.668422   18.529124   26.076236 H          1 MOL1         0.3780
@<TRIPOS>BOND
    1     1     2    1
    2     1     3    1
    3     1     4    1
    4     4     5    1
    5     4     6    1
    6     4     7    1
    7     7     8    1
    8     7     9    1
    9     7    10    1
   10    10    11    1
   11    10    12    1
   12    10    13    1
   13    13    14    1
   14    13    15    1
   15    15    16    1
   16    15    17    1
   17    15    18    1
   18    18    19    1
   19    18    20    1
   20     1    21    1
   21    18    21    1
   22    21    22    1
   23    21    23    1
   24    13    24    1
   25    24    25    1
@<TRIPOS>SUBSTRUCTURE
       1 MOL1            1 RESIDUE      1      MOL     
@<SCITEGIC>MOL_PROPERTY
VM2 Rank
SciTegic.value.IntegerValue
103

@<SCITEGIC>MOL_PROPERTY
Conf_Id
SciTegic.value.IntegerValue
1635

@<SCITEGIC>MOL_PROPERTY
Probability
SciTegic.value.DoubleValue
0.00

@<SCITEGIC>MOL_PROPERTY
Sum Probability
SciTegic.value.DoubleValue
99.98

@<SCITEGIC>MOL_PROPERTY
Delta G
SciTegic.value.DoubleValue
4.618

@<SCITEGIC>MOL_PROPERTY
G
SciTegic.value.DoubleValue
66.694

@<SCITEGIC>MOL_PROPERTY
E
SciTegic.value.DoubleValue
34.034

@<SCITEGIC>MOL_PROPERTY
-TS
SciTegic.value.DoubleValue
32.660

@<SCITEGIC>MOL_PROPERTY
U+W
SciTegic.value.DoubleValue
13.466

@<SCITEGIC>MOL_PROPERTY
U
SciTegic.value.DoubleValue
15.643

@<SCITEGIC>MOL_PROPERTY
W
SciTegic.value.DoubleValue
-2.176

@<SCITEGIC>MOL_PROPERTY
W(PB)
SciTegic.value.DoubleValue
-4.307

@<SCITEGIC>MOL_PROPERTY
W(SA)
SciTegic.value.DoubleValue
2.131

@<SCITEGIC>MOL_PROPERTY
Valence
SciTegic.value.DoubleValue
18.917

@<SCITEGIC>MOL_PROPERTY
Coulomb
SciTegic.value.DoubleValue
-7.506

@<SCITEGIC>MOL_PROPERTY
VdW
SciTegic.value.DoubleValue
4.232

@<SCITEGIC>MOL_PROPERTY
VdW6
SciTegic.value.DoubleValue
-13.632

@<SCITEGIC>MOL_PROPERTY
VdW12
SciTegic.value.DoubleValue
17.864

@<SCITEGIC>MOL_PROPERTY
Bond
SciTegic.value.DoubleValue
0.735

@<SCITEGIC>MOL_PROPERTY
Angle
SciTegic.value.DoubleValue
9.140

@<SCITEGIC>MOL_PROPERTY
Pdih
SciTegic.value.DoubleValue
9.042

@<SCITEGIC>MOL_PROPERTY
Idih
SciTegic.value.DoubleValue
0.000

@<SCITEGIC>MOL_PROPERTY
Tether
SciTegic.value.DoubleValue
0.000

@<TRIPOS>MOLECULE
guest-s17_vm2.mol2 : vm2 ligand conformer 104
          25          25           1
SMALL
USER_CHARGES
 
@<TRIPOS>ATOM
       1    C1      20.108254   19.106549   20.654852 C.3        1 MOL1        -0.1684
       2    H1      19.356719   18.443489   20.205194 H          1 MOL1         0.0833
       3    H2      20.534530   19.685108   19.824097 H          1 MOL1         0.0833
       4    C2      21.233742   18.238547   21.275258 C.3        1 MOL1        -0.1684
       5    H3      21.482782   17.458893   20.542438 H          1 MOL1         0.0833
       6    H4      22.154498   18.825482   21.385235 H          1 MOL1         0.0833
       7    C3      20.881744   17.547452   22.616921 C.3        1 MOL1        -0.1684
       8    H5      21.429085   16.595095   22.632408 H          1 MOL1         0.0833
       9    H6      19.821150   17.266008   22.640396 H          1 MOL1         0.0833
      10    C4      21.309769   18.329356   23.897978 C.3        1 MOL1        -0.1760
      11    H7      21.579835   17.579151   24.652603 H          1 MOL1         0.0833
      12    H8      22.237724   18.885568   23.714557 H          1 MOL1         0.0833
      13    C5      20.267651   19.263652   24.571536 C.3        1 MOL1         0.1219
      14    H9      20.598913   19.381327   25.613546 H          1 MOL1         0.0790
      15    C6      20.161410   20.711519   24.017030 C.3        1 MOL1        -0.1760
      16    H10     19.195923   21.132127   24.327995 H          1 MOL1         0.0833
      17    H11     20.921028   21.320444   24.523831 H          1 MOL1         0.0833
      18    C7      20.334135   20.926971   22.491671 C.3        1 MOL1        -0.1684
      19    H12     21.381720   20.764031   22.213612 H          1 MOL1         0.0833
      20    H13     20.147599   21.987136   22.273439 H          1 MOL1         0.0833
      21    C8      19.381987   20.072203   21.620205 C.3        1 MOL1        -0.1684
      22    H14     18.744067   20.741579   21.027504 H          1 MOL1         0.0833
      23    H15     18.686865   19.502880   22.247670 H          1 MOL1         0.0833
      24    O1      18.985309   18.646752   24.614549 O.3        1 MOL1        -0.5508
      25    H16     19.132943   17.723413   24.902986 H          1 MOL1         0.3780
@<TRIPOS>BOND
    1     1     2    1
    2     1     3    1
    3     1     4    1
    4     4     5    1
    5     4     6    1
    6     4     7    1
    7     7     8    1
    8     7     9    1
    9     7    10    1
   10    10    11    1
   11    10    12    1
   12    10    13    1
   13    13    14    1
   14    13    15    1
   15    15    16    1
   16    15    17    1
   17    15    18    1
   18    18    19    1
   19    18    20    1
   20     1    21    1
   21    18    21    1
   22    21    22    1
   23    21    23    1
   24    13    24    1
   25    24    25    1
@<TRIPOS>SUBSTRUCTURE
       1 MOL1            1 RESIDUE      1      MOL     
@<SCITEGIC>MOL_PROPERTY
VM2 Rank
SciTegic.value.IntegerValue
104

@<SCITEGIC>MOL_PROPERTY
Conf_Id
SciTegic.value.IntegerValue
1654

@<SCITEGIC>MOL_PROPERTY
Probability
SciTegic.value.DoubleValue
0.00

@<SCITEGIC>MOL_PROPERTY
Sum Probability
SciTegic.value.DoubleValue
99.99

@<SCITEGIC>MOL_PROPERTY
Delta G
SciTegic.value.DoubleValue
4.677

@<SCITEGIC>MOL_PROPERTY
G
SciTegic.value.DoubleValue
66.753

@<SCITEGIC>MOL_PROPERTY
E
SciTegic.value.DoubleValue
34.240

@<SCITEGIC>MOL_PROPERTY
-TS
SciTegic.value.DoubleValue
32.513

@<SCITEGIC>MOL_PROPERTY
U+W
SciTegic.value.DoubleValue
13.672

@<SCITEGIC>MOL_PROPERTY
U
SciTegic.value.DoubleValue
15.604

@<SCITEGIC>MOL_PROPERTY
W
SciTegic.value.DoubleValue
-1.932

@<SCITEGIC>MOL_PROPERTY
W(PB)
SciTegic.value.DoubleValue
-4.048

@<SCITEGIC>MOL_PROPERTY
W(SA)
SciTegic.value.DoubleValue
2.116

@<SCITEGIC>MOL_PROPERTY
Valence
SciTegic.value.DoubleValue
19.784

@<SCITEGIC>MOL_PROPERTY
Coulomb
SciTegic.value.DoubleValue
-7.372

@<SCITEGIC>MOL_PROPERTY
VdW
SciTegic.value.DoubleValue
3.193

@<SCITEGIC>MOL_PROPERTY
VdW6
SciTegic.value.DoubleValue
-13.422

@<SCITEGIC>MOL_PROPERTY
VdW12
SciTegic.value.DoubleValue
16.615

@<SCITEGIC>MOL_PROPERTY
Bond
SciTegic.value.DoubleValue
0.544

@<SCITEGIC>MOL_PROPERTY
Angle
SciTegic.value.DoubleValue
5.996

@<SCITEGIC>MOL_PROPERTY
Pdih
SciTegic.value.DoubleValue
13.244

@<SCITEGIC>MOL_PROPERTY
Idih
SciTegic.value.DoubleValue
0.000

@<SCITEGIC>MOL_PROPERTY
Tether
SciTegic.value.DoubleValue
0.000

@<TRIPOS>MOLECULE
guest-s17_vm2.mol2 : vm2 ligand conformer 105
          25          25           1
SMALL
USER_CHARGES
 
@<TRIPOS>ATOM
       1    C1      20.171170   19.142960   20.649082 C.3        1 MOL1        -0.1684
       2    H1      19.187646   19.073800   20.164786 H          1 MOL1         0.0833
       3    H2      20.910958   19.041496   19.843467 H          1 MOL1         0.0833
       4    C2      20.315385   17.946562   21.618458 C.3        1 MOL1        -0.1684
       5    H3      19.400667   17.850365   22.214337 H          1 MOL1         0.0833
       6    H4      20.364903   17.023132   21.025899 H          1 MOL1         0.0833
       7    C3      21.561454   18.023439   22.533917 C.3        1 MOL1        -0.1684
       8    H5      22.190087   18.884241   22.278696 H          1 MOL1         0.0833
       9    H6      22.192765   17.146632   22.336366 H          1 MOL1         0.0833
      10    C4      21.233890   18.049675   24.048839 C.3        1 MOL1        -0.1760
      11    H7      20.845152   17.066397   24.345182 H          1 MOL1         0.0833
      12    H8      22.182594   18.162550   24.589096 H          1 MOL1         0.0833
      13    C5      20.258560   19.140990   24.571184 C.3        1 MOL1         0.1219
      14    H9      20.538464   19.292916   25.623772 H          1 MOL1         0.0790
      15    C6      20.348054   20.539934   23.902198 C.3        1 MOL1        -0.1760
      16    H10     19.977273   21.257904   24.645330 H          1 MOL1         0.0833
      17    H11     21.401332   20.810599   23.755695 H          1 MOL1         0.0833
      18    C7      19.535802   20.785698   22.592414 C.3        1 MOL1        -0.1684
      19    H12     19.241382   21.844036   22.599065 H          1 MOL1         0.0833
      20    H13     18.590607   20.227914   22.582259 H          1 MOL1         0.0833
      21    C8      20.321329   20.553015   21.276972 C.3        1 MOL1        -0.1684
      22    H14     21.381218   20.796585   21.424240 H          1 MOL1         0.0833
      23    H15     19.966598   21.278667   20.532324 H          1 MOL1         0.0833
      24    O1      18.918356   18.660728   24.566936 O.3        1 MOL1        -0.5508
      25    H16     18.354676   19.413664   24.836929 H          1 MOL1         0.3780
@<TRIPOS>BOND
    1     1     2    1
    2     1     3    1
    3     1     4    1
    4     4     5    1
    5     4     6    1
    6     4     7    1
    7     7     8    1
    8     7     9    1
    9     7    10    1
   10    10    11    1
   11    10    12    1
   12    10    13    1
   13    13    14    1
   14    13    15    1
   15    15    16    1
   16    15    17    1
   17    15    18    1
   18    18    19    1
   19    18    20    1
   20     1    21    1
   21    18    21    1
   22    21    22    1
   23    21    23    1
   24    13    24    1
   25    24    25    1
@<TRIPOS>SUBSTRUCTURE
       1 MOL1            1 RESIDUE      1      MOL     
@<SCITEGIC>MOL_PROPERTY
VM2 Rank
SciTegic.value.IntegerValue
105

@<SCITEGIC>MOL_PROPERTY
Conf_Id
SciTegic.value.IntegerValue
1272

@<SCITEGIC>MOL_PROPERTY
Probability
SciTegic.value.DoubleValue
0.00

@<SCITEGIC>MOL_PROPERTY
Sum Probability
SciTegic.value.DoubleValue
99.99

@<SCITEGIC>MOL_PROPERTY
Delta G
SciTegic.value.DoubleValue
4.700

@<SCITEGIC>MOL_PROPERTY
G
SciTegic.value.DoubleValue
66.776

@<SCITEGIC>MOL_PROPERTY
E
SciTegic.value.DoubleValue
34.262

@<SCITEGIC>MOL_PROPERTY
-TS
SciTegic.value.DoubleValue
32.514

@<SCITEGIC>MOL_PROPERTY
U+W
SciTegic.value.DoubleValue
13.695

@<SCITEGIC>MOL_PROPERTY
U
SciTegic.value.DoubleValue
15.604

@<SCITEGIC>MOL_PROPERTY
W
SciTegic.value.DoubleValue
-1.910

@<SCITEGIC>MOL_PROPERTY
W(PB)
SciTegic.value.DoubleValue
-4.058

@<SCITEGIC>MOL_PROPERTY
W(SA)
SciTegic.value.DoubleValue
2.148

@<SCITEGIC>MOL_PROPERTY
Valence
SciTegic.value.DoubleValue
19.784

@<SCITEGIC>MOL_PROPERTY
Coulomb
SciTegic.value.DoubleValue
-7.372

@<SCITEGIC>MOL_PROPERTY
VdW
SciTegic.value.DoubleValue
3.193

@<SCITEGIC>MOL_PROPERTY
VdW6
SciTegic.value.DoubleValue
-13.422

@<SCITEGIC>MOL_PROPERTY
VdW12
SciTegic.value.DoubleValue
16.615

@<SCITEGIC>MOL_PROPERTY
Bond
SciTegic.value.DoubleValue
0.544

@<SCITEGIC>MOL_PROPERTY
Angle
SciTegic.value.DoubleValue
5.996

@<SCITEGIC>MOL_PROPERTY
Pdih
SciTegic.value.DoubleValue
13.243

@<SCITEGIC>MOL_PROPERTY
Idih
SciTegic.value.DoubleValue
0.000

@<SCITEGIC>MOL_PROPERTY
Tether
SciTegic.value.DoubleValue
0.000

@<TRIPOS>MOLECULE
guest-s17_vm2.mol2 : vm2 ligand conformer 106
          25          25           1
SMALL
USER_CHARGES
 
@<TRIPOS>ATOM
       1    C1      20.726661   19.502945   20.723645 C.3        1 MOL1        -0.1684
       2    H1      21.328576   20.392858   20.495401 H          1 MOL1         0.0833
       3    H2      20.507072   19.041181   19.751361 H          1 MOL1         0.0833
       4    C2      21.598774   18.496571   21.529935 C.3        1 MOL1        -0.1684
       5    H3      22.240936   17.975659   20.806634 H          1 MOL1         0.0833
       6    H4      22.311990   19.025557   22.169938 H          1 MOL1         0.0833
       7    C3      20.860811   17.416157   22.363521 C.3        1 MOL1        -0.1684
       8    H5      21.627246   16.728303   22.746054 H          1 MOL1         0.0833
       9    H6      20.232285   16.811494   21.695891 H          1 MOL1         0.0833
      10    C4      20.003521   17.882163   23.578468 C.3        1 MOL1        -0.1760
      11    H7      18.965972   18.054994   23.277461 H          1 MOL1         0.0833
      12    H8      19.936987   17.027373   24.264102 H          1 MOL1         0.0833
      13    C5      20.506071   19.104255   24.388445 C.3        1 MOL1         0.1219
      14    H9      21.530839   18.891281   24.724995 H          1 MOL1         0.0790
      15    C6      20.523478   20.487000   23.673700 C.3        1 MOL1        -0.1760
      16    H10     20.467449   21.259552   24.452259 H          1 MOL1         0.0833
      17    H11     21.499431   20.664941   23.213712 H          1 MOL1         0.0833
      18    C7      19.405792   20.788260   22.638046 C.3        1 MOL1        -0.1684
      19    H12     19.513038   21.842258   22.348152 H          1 MOL1         0.0833
      20    H13     18.428451   20.718429   23.134649 H          1 MOL1         0.0833
      21    C8      19.369033   19.945695   21.329639 C.3        1 MOL1        -0.1684
      22    H14     18.848001   20.547581   20.572692 H          1 MOL1         0.0833
      23    H15     18.723633   19.069663   21.448996 H          1 MOL1         0.0833
      24    O1      19.669860   19.219955   25.534601 O.3        1 MOL1        -0.5508
      25    H16     19.722154   18.365318   26.010312 H          1 MOL1         0.3780
@<TRIPOS>BOND
    1     1     2    1
    2     1     3    1
    3     1     4    1
    4     4     5    1
    5     4     6    1
    6     4     7    1
    7     7     8    1
    8     7     9    1
    9     7    10    1
   10    10    11    1
   11    10    12    1
   12    10    13    1
   13    13    14    1
   14    13    15    1
   15    15    16    1
   16    15    17    1
   17    15    18    1
   18    18    19    1
   19    18    20    1
   20     1    21    1
   21    18    21    1
   22    21    22    1
   23    21    23    1
   24    13    24    1
   25    24    25    1
@<TRIPOS>SUBSTRUCTURE
       1 MOL1            1 RESIDUE      1      MOL     
@<SCITEGIC>MOL_PROPERTY
VM2 Rank
SciTegic.value.IntegerValue
106

@<SCITEGIC>MOL_PROPERTY
Conf_Id
SciTegic.value.IntegerValue
1624

@<SCITEGIC>MOL_PROPERTY
Probability
SciTegic.value.DoubleValue
0.00

@<SCITEGIC>MOL_PROPERTY
Sum Probability
SciTegic.value.DoubleValue
99.99

@<SCITEGIC>MOL_PROPERTY
Delta G
SciTegic.value.DoubleValue
4.702

@<SCITEGIC>MOL_PROPERTY
G
SciTegic.value.DoubleValue
66.777

@<SCITEGIC>MOL_PROPERTY
E
SciTegic.value.DoubleValue
34.090

@<SCITEGIC>MOL_PROPERTY
-TS
SciTegic.value.DoubleValue
32.688

@<SCITEGIC>MOL_PROPERTY
U+W
SciTegic.value.DoubleValue
13.522

@<SCITEGIC>MOL_PROPERTY
U
SciTegic.value.DoubleValue
15.675

@<SCITEGIC>MOL_PROPERTY
W
SciTegic.value.DoubleValue
-2.153

@<SCITEGIC>MOL_PROPERTY
W(PB)
SciTegic.value.DoubleValue
-4.273

@<SCITEGIC>MOL_PROPERTY
W(SA)
SciTegic.value.DoubleValue
2.120

@<SCITEGIC>MOL_PROPERTY
Valence
SciTegic.value.DoubleValue
18.885

@<SCITEGIC>MOL_PROPERTY
Coulomb
SciTegic.value.DoubleValue
-7.469

@<SCITEGIC>MOL_PROPERTY
VdW
SciTegic.value.DoubleValue
4.259

@<SCITEGIC>MOL_PROPERTY
VdW6
SciTegic.value.DoubleValue
-13.644

@<SCITEGIC>MOL_PROPERTY
VdW12
SciTegic.value.DoubleValue
17.904

@<SCITEGIC>MOL_PROPERTY
Bond
SciTegic.value.DoubleValue
0.733

@<SCITEGIC>MOL_PROPERTY
Angle
SciTegic.value.DoubleValue
9.055

@<SCITEGIC>MOL_PROPERTY
Pdih
SciTegic.value.DoubleValue
9.097

@<SCITEGIC>MOL_PROPERTY
Idih
SciTegic.value.DoubleValue
0.000

@<SCITEGIC>MOL_PROPERTY
Tether
SciTegic.value.DoubleValue
0.000

@<TRIPOS>MOLECULE
guest-s17_vm2.mol2 : vm2 ligand conformer 107
          25          25           1
SMALL
USER_CHARGES
 
@<TRIPOS>ATOM
       1    C1      20.800525   19.289834   20.720704 C.3        1 MOL1        -0.1684
       2    H1      20.308847   19.425409   19.747742 H          1 MOL1         0.0833
       3    H2      21.862713   19.129618   20.491728 H          1 MOL1         0.0833
       4    C2      20.212222   17.998473   21.347354 C.3        1 MOL1        -0.1684
       5    H3      19.130604   18.115660   21.468149 H          1 MOL1         0.0833
       6    H4      20.302212   17.196760   20.601789 H          1 MOL1         0.0833
       7    C3      20.862356   17.475871   22.661664 C.3        1 MOL1        -0.1684
       8    H5      21.711402   16.839130   22.378586 H          1 MOL1         0.0833
       9    H6      20.152404   16.809454   23.170134 H          1 MOL1         0.0833
      10    C4      21.397778   18.518755   23.680620 C.3        1 MOL1        -0.1760
      11    H7      21.932096   17.967242   24.465774 H          1 MOL1         0.0833
      12    H8      22.186632   19.111713   23.209615 H          1 MOL1         0.0833
      13    C5      20.368113   19.449897   24.384829 C.3        1 MOL1         0.1219
      14    H9      20.903884   20.354415   24.706655 H          1 MOL1         0.0790
      15    C6      19.124977   19.892484   23.571897 C.3        1 MOL1        -0.1760
      16    H10     18.551062   19.006155   23.285494 H          1 MOL1         0.0833
      17    H11     18.451513   20.430545   24.251693 H          1 MOL1         0.0833
      18    C7      19.356518   20.821617   22.342544 C.3        1 MOL1        -0.1684
      19    H12     19.367696   21.856894   22.709932 H          1 MOL1         0.0833
      20    H13     18.484186   20.756498   21.678324 H          1 MOL1         0.0833
      21    C8      20.649323   20.624294   21.507996 C.3        1 MOL1        -0.1684
      22    H14     20.696533   21.439021   20.772554 H          1 MOL1         0.0833
      23    H15     21.522934   20.802565   22.142921 H          1 MOL1         0.0833
      24    O1      19.892188   18.771775   25.542392 O.3        1 MOL1        -0.5508
      25    H16     19.298432   19.394280   26.010772 H          1 MOL1         0.3780
@<TRIPOS>BOND
    1     1     2    1
    2     1     3    1
    3     1     4    1
    4     4     5    1
    5     4     6    1
    6     4     7    1
    7     7     8    1
    8     7     9    1
    9     7    10    1
   10    10    11    1
   11    10    12    1
   12    10    13    1
   13    13    14    1
   14    13    15    1
   15    15    16    1
   16    15    17    1
   17    15    18    1
   18    18    19    1
   19    18    20    1
   20     1    21    1
   21    18    21    1
   22    21    22    1
   23    21    23    1
   24    13    24    1
   25    24    25    1
@<TRIPOS>SUBSTRUCTURE
       1 MOL1            1 RESIDUE      1      MOL     
@<SCITEGIC>MOL_PROPERTY
VM2 Rank
SciTegic.value.IntegerValue
107

@<SCITEGIC>MOL_PROPERTY
Conf_Id
SciTegic.value.IntegerValue
527

@<SCITEGIC>MOL_PROPERTY
Probability
SciTegic.value.DoubleValue
0.00

@<SCITEGIC>MOL_PROPERTY
Sum Probability
SciTegic.value.DoubleValue
99.99

@<SCITEGIC>MOL_PROPERTY
Delta G
SciTegic.value.DoubleValue
4.714

@<SCITEGIC>MOL_PROPERTY
G
SciTegic.value.DoubleValue
66.790

@<SCITEGIC>MOL_PROPERTY
E
SciTegic.value.DoubleValue
34.102

@<SCITEGIC>MOL_PROPERTY
-TS
SciTegic.value.DoubleValue
32.688

@<SCITEGIC>MOL_PROPERTY
U+W
SciTegic.value.DoubleValue
13.534

@<SCITEGIC>MOL_PROPERTY
U
SciTegic.value.DoubleValue
15.675

@<SCITEGIC>MOL_PROPERTY
W
SciTegic.value.DoubleValue
-2.141

@<SCITEGIC>MOL_PROPERTY
W(PB)
SciTegic.value.DoubleValue
-4.263

@<SCITEGIC>MOL_PROPERTY
W(SA)
SciTegic.value.DoubleValue
2.122

@<SCITEGIC>MOL_PROPERTY
Valence
SciTegic.value.DoubleValue
18.885

@<SCITEGIC>MOL_PROPERTY
Coulomb
SciTegic.value.DoubleValue
-7.469

@<SCITEGIC>MOL_PROPERTY
VdW
SciTegic.value.DoubleValue
4.259

@<SCITEGIC>MOL_PROPERTY
VdW6
SciTegic.value.DoubleValue
-13.645

@<SCITEGIC>MOL_PROPERTY
VdW12
SciTegic.value.DoubleValue
17.904

@<SCITEGIC>MOL_PROPERTY
Bond
SciTegic.value.DoubleValue
0.733

@<SCITEGIC>MOL_PROPERTY
Angle
SciTegic.value.DoubleValue
9.055

@<SCITEGIC>MOL_PROPERTY
Pdih
SciTegic.value.DoubleValue
9.097

@<SCITEGIC>MOL_PROPERTY
Idih
SciTegic.value.DoubleValue
0.000

@<SCITEGIC>MOL_PROPERTY
Tether
SciTegic.value.DoubleValue
0.000

@<TRIPOS>MOLECULE
guest-s17_vm2.mol2 : vm2 ligand conformer 108
          25          25           1
SMALL
USER_CHARGES
 
@<TRIPOS>ATOM
       1    C1      20.102361   19.108727   20.756814 C.3        1 MOL1        -0.1684
       2    H1      19.067158   19.223919   20.408456 H          1 MOL1         0.0833
       3    H2      20.691654   18.888912   19.856206 H          1 MOL1         0.0833
       4    C2      20.184317   17.860114   21.682607 C.3        1 MOL1        -0.1684
       5    H3      19.258630   17.738871   22.254011 H          1 MOL1         0.0833
       6    H4      20.200450   16.975908   21.031129 H          1 MOL1         0.0833
       7    C3      21.396344   17.753942   22.645419 C.3        1 MOL1        -0.1684
       8    H5      22.324302   17.746604   22.058153 H          1 MOL1         0.0833
       9    H6      21.341070   16.764591   23.119441 H          1 MOL1         0.0833
      10    C4      21.528598   18.810031   23.785235 C.3        1 MOL1        -0.1760
      11    H7      22.152587   18.365047   24.571048 H          1 MOL1         0.0833
      12    H8      22.123795   19.663576   23.449434 H          1 MOL1         0.0833
      13    C5      20.236328   19.341893   24.457544 C.3        1 MOL1         0.1219
      14    H9      20.568577   20.019825   25.256947 H          1 MOL1         0.0790
      15    C6      19.240969   20.150896   23.579655 C.3        1 MOL1        -0.1760
      16    H10     18.497875   19.491909   23.121051 H          1 MOL1         0.0833
      17    H11     18.649597   20.768113   24.268061 H          1 MOL1         0.0833
      18    C7      19.828122   21.098433   22.497760 C.3        1 MOL1        -0.1684
      19    H12     20.467590   21.848261   22.982724 H          1 MOL1         0.0833
      20    H13     18.985190   21.662160   22.075389 H          1 MOL1         0.0833
      21    C8      20.608394   20.467609   21.307631 C.3        1 MOL1        -0.1684
      22    H14     20.575756   21.191458   20.481959 H          1 MOL1         0.0833
      23    H15     21.675702   20.390342   21.536488 H          1 MOL1         0.0833
      24    O1      19.538567   18.251355   25.047334 O.3        1 MOL1        -0.5508
      25    H16     20.205108   17.723922   25.532637 H          1 MOL1         0.3780
@<TRIPOS>BOND
    1     1     2    1
    2     1     3    1
    3     1     4    1
    4     4     5    1
    5     4     6    1
    6     4     7    1
    7     7     8    1
    8     7     9    1
    9     7    10    1
   10    10    11    1
   11    10    12    1
   12    10    13    1
   13    13    14    1
   14    13    15    1
   15    15    16    1
   16    15    17    1
   17    15    18    1
   18    18    19    1
   19    18    20    1
   20     1    21    1
   21    18    21    1
   22    21    22    1
   23    21    23    1
   24    13    24    1
   25    24    25    1
@<TRIPOS>SUBSTRUCTURE
       1 MOL1            1 RESIDUE      1      MOL     
@<SCITEGIC>MOL_PROPERTY
VM2 Rank
SciTegic.value.IntegerValue
108

@<SCITEGIC>MOL_PROPERTY
Conf_Id
SciTegic.value.IntegerValue
908

@<SCITEGIC>MOL_PROPERTY
Probability
SciTegic.value.DoubleValue
0.00

@<SCITEGIC>MOL_PROPERTY
Sum Probability
SciTegic.value.DoubleValue
99.99

@<SCITEGIC>MOL_PROPERTY
Delta G
SciTegic.value.DoubleValue
4.752

@<SCITEGIC>MOL_PROPERTY
G
SciTegic.value.DoubleValue
66.828

@<SCITEGIC>MOL_PROPERTY
E
SciTegic.value.DoubleValue
34.160

@<SCITEGIC>MOL_PROPERTY
-TS
SciTegic.value.DoubleValue
32.668

@<SCITEGIC>MOL_PROPERTY
U+W
SciTegic.value.DoubleValue
13.592

@<SCITEGIC>MOL_PROPERTY
U
SciTegic.value.DoubleValue
15.621

@<SCITEGIC>MOL_PROPERTY
W
SciTegic.value.DoubleValue
-2.029

@<SCITEGIC>MOL_PROPERTY
W(PB)
SciTegic.value.DoubleValue
-4.146

@<SCITEGIC>MOL_PROPERTY
W(SA)
SciTegic.value.DoubleValue
2.117

@<SCITEGIC>MOL_PROPERTY
Valence
SciTegic.value.DoubleValue
18.960

@<SCITEGIC>MOL_PROPERTY
Coulomb
SciTegic.value.DoubleValue
-7.191

@<SCITEGIC>MOL_PROPERTY
VdW
SciTegic.value.DoubleValue
3.851

@<SCITEGIC>MOL_PROPERTY
VdW6
SciTegic.value.DoubleValue
-13.971

@<SCITEGIC>MOL_PROPERTY
VdW12
SciTegic.value.DoubleValue
17.823

@<SCITEGIC>MOL_PROPERTY
Bond
SciTegic.value.DoubleValue
0.726

@<SCITEGIC>MOL_PROPERTY
Angle
SciTegic.value.DoubleValue
9.581

@<SCITEGIC>MOL_PROPERTY
Pdih
SciTegic.value.DoubleValue
8.653

@<SCITEGIC>MOL_PROPERTY
Idih
SciTegic.value.DoubleValue
0.000

@<SCITEGIC>MOL_PROPERTY
Tether
SciTegic.value.DoubleValue
0.000

@<TRIPOS>MOLECULE
guest-s17_vm2.mol2 : vm2 ligand conformer 109
          25          25           1
SMALL
USER_CHARGES
 
@<TRIPOS>ATOM
       1    C1      20.080642   19.093148   20.759678 C.3        1 MOL1        -0.1684
       2    H1      19.454896   18.253113   20.429447 H          1 MOL1         0.0833
       3    H2      20.317569   19.657996   19.847816 H          1 MOL1         0.0833
       4    C2      21.421671   18.542840   21.311794 C.3        1 MOL1        -0.1684
       5    H3      21.922571   18.010063   20.492035 H          1 MOL1         0.0833
       6    H4      22.096325   19.378328   21.522256 H          1 MOL1         0.0833
       7    C3      21.355930   17.562641   22.519296 C.3        1 MOL1        -0.1684
       8    H5      22.343285   17.524943   22.998945 H          1 MOL1         0.0833
       9    H6      21.188522   16.555000   22.115126 H          1 MOL1         0.0833
      10    C4      20.269638   17.800480   23.603950 C.3        1 MOL1        -0.1760
      11    H7      19.277898   17.700946   23.153048 H          1 MOL1         0.0833
      12    H8      20.320021   16.958822   24.306555 H          1 MOL1         0.0833
      13    C5      20.365070   19.094791   24.459265 C.3        1 MOL1         0.1219
      14    H9      21.091896   18.887443   25.257863 H          1 MOL1         0.0790
      15    C6      20.856180   20.389783   23.761669 C.3        1 MOL1        -0.1760
      16    H10     20.962825   21.162710   24.533734 H          1 MOL1         0.0833
      17    H11     21.883930   20.234846   23.422132 H          1 MOL1         0.0833
      18    C7      19.987991   20.995733   22.616651 C.3        1 MOL1        -0.1684
      19    H12     20.613357   21.667862   22.013989 H          1 MOL1         0.0833
      20    H13     19.231029   21.639764   23.084411 H          1 MOL1         0.0833
      21    C8      19.231062   20.022331   21.674928 C.3        1 MOL1        -0.1684
      22    H14     18.592807   20.627414   21.016892 H          1 MOL1         0.0833
      23    H15     18.513249   19.439547   22.260764 H          1 MOL1         0.0833
      24    O1      19.095815   19.341254   25.052768 O.3        1 MOL1        -0.5508
      25    H16     19.169586   20.196367   25.523211 H          1 MOL1         0.3780
@<TRIPOS>BOND
    1     1     2    1
    2     1     3    1
    3     1     4    1
    4     4     5    1
    5     4     6    1
    6     4     7    1
    7     7     8    1
    8     7     9    1
    9     7    10    1
   10    10    11    1
   11    10    12    1
   12    10    13    1
   13    13    14    1
   14    13    15    1
   15    15    16    1
   16    15    17    1
   17    15    18    1
   18    18    19    1
   19    18    20    1
   20     1    21    1
   21    18    21    1
   22    21    22    1
   23    21    23    1
   24    13    24    1
   25    24    25    1
@<TRIPOS>SUBSTRUCTURE
       1 MOL1            1 RESIDUE      1      MOL     
@<SCITEGIC>MOL_PROPERTY
VM2 Rank
SciTegic.value.IntegerValue
109

@<SCITEGIC>MOL_PROPERTY
Conf_Id
SciTegic.value.IntegerValue
1232

@<SCITEGIC>MOL_PROPERTY
Probability
SciTegic.value.DoubleValue
0.00

@<SCITEGIC>MOL_PROPERTY
Sum Probability
SciTegic.value.DoubleValue
100.00

@<SCITEGIC>MOL_PROPERTY
Delta G
SciTegic.value.DoubleValue
4.771

@<SCITEGIC>MOL_PROPERTY
G
SciTegic.value.DoubleValue
66.846

@<SCITEGIC>MOL_PROPERTY
E
SciTegic.value.DoubleValue
34.179

@<SCITEGIC>MOL_PROPERTY
-TS
SciTegic.value.DoubleValue
32.668

@<SCITEGIC>MOL_PROPERTY
U+W
SciTegic.value.DoubleValue
13.611

@<SCITEGIC>MOL_PROPERTY
U
SciTegic.value.DoubleValue
15.621

@<SCITEGIC>MOL_PROPERTY
W
SciTegic.value.DoubleValue
-2.010

@<SCITEGIC>MOL_PROPERTY
W(PB)
SciTegic.value.DoubleValue
-4.125

@<SCITEGIC>MOL_PROPERTY
W(SA)
SciTegic.value.DoubleValue
2.115

@<SCITEGIC>MOL_PROPERTY
Valence
SciTegic.value.DoubleValue
18.960

@<SCITEGIC>MOL_PROPERTY
Coulomb
SciTegic.value.DoubleValue
-7.191

@<SCITEGIC>MOL_PROPERTY
VdW
SciTegic.value.DoubleValue
3.851

@<SCITEGIC>MOL_PROPERTY
VdW6
SciTegic.value.DoubleValue
-13.971

@<SCITEGIC>MOL_PROPERTY
VdW12
SciTegic.value.DoubleValue
17.822

@<SCITEGIC>MOL_PROPERTY
Bond
SciTegic.value.DoubleValue
0.726

@<SCITEGIC>MOL_PROPERTY
Angle
SciTegic.value.DoubleValue
9.582

@<SCITEGIC>MOL_PROPERTY
Pdih
SciTegic.value.DoubleValue
8.652

@<SCITEGIC>MOL_PROPERTY
Idih
SciTegic.value.DoubleValue
0.000

@<SCITEGIC>MOL_PROPERTY
Tether
SciTegic.value.DoubleValue
0.000

@<TRIPOS>MOLECULE
guest-s17_vm2.mol2 : vm2 ligand conformer 110
          25          25           1
SMALL
USER_CHARGES
 
@<TRIPOS>ATOM
       1    C1      20.107718   19.107594   20.654256 C.3        1 MOL1        -0.1684
       2    H1      19.357233   18.443658   20.204136 H          1 MOL1         0.0833
       3    H2      20.533261   19.687527   19.824086 H          1 MOL1         0.0833
       4    C2      21.234201   18.240905   21.274749 C.3        1 MOL1        -0.1684
       5    H3      21.485057   17.462226   20.541546 H          1 MOL1         0.0833
       6    H4      22.154060   18.828832   21.386585 H          1 MOL1         0.0833
       7    C3      20.882045   17.548069   22.615581 C.3        1 MOL1        -0.1684
       8    H5      21.427440   16.594743   22.630019 H          1 MOL1         0.0833
       9    H6      19.820900   17.268114   22.643076 H          1 MOL1         0.0833
      10    C4      21.308664   18.325382   23.899668 C.3        1 MOL1        -0.1760
      11    H7      21.563257   17.570242   24.654586 H          1 MOL1         0.0833
      12    H8      22.242211   18.874465   23.724299 H          1 MOL1         0.0833
      13    C5      20.267477   19.262553   24.571359 C.3        1 MOL1         0.1219
      14    H9      20.599640   19.379335   25.613188 H          1 MOL1         0.0790
      15    C6      20.167993   20.711421   24.016518 C.3        1 MOL1        -0.1760
      16    H10     19.211603   21.147424   24.333217 H          1 MOL1         0.0833
      17    H11     20.938802   21.312418   24.516251 H          1 MOL1         0.0833
      18    C7      20.333252   20.926497   22.490612 C.3        1 MOL1        -0.1684
      19    H12     21.380163   20.765016   22.209097 H          1 MOL1         0.0833
      20    H13     20.145435   21.986548   22.272718 H          1 MOL1         0.0833
      21    C8      19.380321   20.070852   21.620953 C.3        1 MOL1        -0.1684
      22    H14     18.687895   19.498403   22.248131 H          1 MOL1         0.0833
      23    H15     18.740195   20.739287   21.029528 H          1 MOL1         0.0833
      24    O1      18.982329   18.649726   24.616304 O.3        1 MOL1        -0.5508
      25    H16     18.388948   19.271857   25.083545 H          1 MOL1         0.3780
@<TRIPOS>BOND
    1     1     2    1
    2     1     3    1
    3     1     4    1
    4     4     5    1
    5     4     6    1
    6     4     7    1
    7     7     8    1
    8     7     9    1
    9     7    10    1
   10    10    11    1
   11    10    12    1
   12    10    13    1
   13    13    14    1
   14    13    15    1
   15    15    16    1
   16    15    17    1
   17    15    18    1
   18    18    19    1
   19    18    20    1
   20     1    21    1
   21    18    21    1
   22    21    22    1
   23    21    23    1
   24    13    24    1
   25    24    25    1
@<TRIPOS>SUBSTRUCTURE
       1 MOL1            1 RESIDUE      1      MOL     
@<SCITEGIC>MOL_PROPERTY
VM2 Rank
SciTegic.value.IntegerValue
110

@<SCITEGIC>MOL_PROPERTY
Conf_Id
SciTegic.value.IntegerValue
1615

@<SCITEGIC>MOL_PROPERTY
Probability
SciTegic.value.DoubleValue
0.00

@<SCITEGIC>MOL_PROPERTY
Sum Probability
SciTegic.value.DoubleValue
100.00

@<SCITEGIC>MOL_PROPERTY
Delta G
SciTegic.value.DoubleValue
5.059

@<SCITEGIC>MOL_PROPERTY
G
SciTegic.value.DoubleValue
67.134

@<SCITEGIC>MOL_PROPERTY
E
SciTegic.value.DoubleValue
34.614

@<SCITEGIC>MOL_PROPERTY
-TS
SciTegic.value.DoubleValue
32.520

@<SCITEGIC>MOL_PROPERTY
U+W
SciTegic.value.DoubleValue
14.047

@<SCITEGIC>MOL_PROPERTY
U
SciTegic.value.DoubleValue
16.200

@<SCITEGIC>MOL_PROPERTY
W
SciTegic.value.DoubleValue
-2.154

@<SCITEGIC>MOL_PROPERTY
W(PB)
SciTegic.value.DoubleValue
-4.283

@<SCITEGIC>MOL_PROPERTY
W(SA)
SciTegic.value.DoubleValue
2.129

@<SCITEGIC>MOL_PROPERTY
Valence
SciTegic.value.DoubleValue
19.712

@<SCITEGIC>MOL_PROPERTY
Coulomb
SciTegic.value.DoubleValue
-6.683

@<SCITEGIC>MOL_PROPERTY
VdW
SciTegic.value.DoubleValue
3.171

@<SCITEGIC>MOL_PROPERTY
VdW6
SciTegic.value.DoubleValue
-13.374

@<SCITEGIC>MOL_PROPERTY
VdW12
SciTegic.value.DoubleValue
16.546

@<SCITEGIC>MOL_PROPERTY
Bond
SciTegic.value.DoubleValue
0.548

@<SCITEGIC>MOL_PROPERTY
Angle
SciTegic.value.DoubleValue
6.059

@<SCITEGIC>MOL_PROPERTY
Pdih
SciTegic.value.DoubleValue
13.105

@<SCITEGIC>MOL_PROPERTY
Idih
SciTegic.value.DoubleValue
0.000

@<SCITEGIC>MOL_PROPERTY
Tether
SciTegic.value.DoubleValue
0.000

@<TRIPOS>MOLECULE
guest-s17_vm2.mol2 : vm2 ligand conformer 111
          25          25           1
SMALL
USER_CHARGES
 
@<TRIPOS>ATOM
       1    C1      20.171423   19.141661   20.648501 C.3        1 MOL1        -0.1684
       2    H1      19.187989   19.073682   20.163852 H          1 MOL1         0.0833
       3    H2      20.911588   19.038755   19.843420 H          1 MOL1         0.0833
       4    C2      20.313350   17.946237   21.619218 C.3        1 MOL1        -0.1684
       5    H3      19.398358   17.854060   22.214868 H          1 MOL1         0.0833
       6    H4      20.360722   17.021854   21.027930 H          1 MOL1         0.0833
       7    C3      21.560687   18.023329   22.532849 C.3        1 MOL1        -0.1684
       8    H5      22.189830   18.882745   22.274138 H          1 MOL1         0.0833
       9    H6      22.191172   17.145808   22.335602 H          1 MOL1         0.0833
      10    C4      21.238648   18.054611   24.048523 C.3        1 MOL1        -0.1760
      11    H7      20.867141   17.066970   24.351225 H          1 MOL1         0.0833
      12    H8      22.189806   18.181130   24.581786 H          1 MOL1         0.0833
      13    C5      20.257774   19.141753   24.570992 C.3        1 MOL1         0.1219
      14    H9      20.537745   19.295075   25.623364 H          1 MOL1         0.0790
      15    C6      20.344307   20.541997   23.903639 C.3        1 MOL1        -0.1760
      16    H10     19.959155   21.252444   24.646524 H          1 MOL1         0.0833
      17    H11     21.396115   20.821722   23.765032 H          1 MOL1         0.0833
      18    C7      19.536275   20.785347   22.591021 C.3        1 MOL1        -0.1684
      19    H12     19.239689   21.842939   22.596504 H          1 MOL1         0.0833
      20    H13     18.591690   20.225982   22.585016 H          1 MOL1         0.0833
      21    C8      20.323051   20.551578   21.276408 C.3        1 MOL1        -0.1684
      22    H14     21.382929   20.793977   21.425428 H          1 MOL1         0.0833
      23    H15     19.970131   21.277730   20.531420 H          1 MOL1         0.0833
      24    O1      18.918485   18.656487   24.568849 O.3        1 MOL1        -0.5508
      25    H16     18.928853   17.796724   25.035928 H          1 MOL1         0.3780
@<TRIPOS>BOND
    1     1     2    1
    2     1     3    1
    3     1     4    1
    4     4     5    1
    5     4     6    1
    6     4     7    1
    7     7     8    1
    8     7     9    1
    9     7    10    1
   10    10    11    1
   11    10    12    1
   12    10    13    1
   13    13    14    1
   14    13    15    1
   15    15    16    1
   16    15    17    1
   17    15    18    1
   18    18    19    1
   19    18    20    1
   20     1    21    1
   21    18    21    1
   22    21    22    1
   23    21    23    1
   24    13    24    1
   25    24    25    1
@<TRIPOS>SUBSTRUCTURE
       1 MOL1            1 RESIDUE      1      MOL     
@<SCITEGIC>MOL_PROPERTY
VM2 Rank
SciTegic.value.IntegerValue
111

@<SCITEGIC>MOL_PROPERTY
Conf_Id
SciTegic.value.IntegerValue
219

@<SCITEGIC>MOL_PROPERTY
Probability
SciTegic.value.DoubleValue
0.00

@<SCITEGIC>MOL_PROPERTY
Sum Probability
SciTegic.value.DoubleValue
100.00

@<SCITEGIC>MOL_PROPERTY
Delta G
SciTegic.value.DoubleValue
5.102

@<SCITEGIC>MOL_PROPERTY
G
SciTegic.value.DoubleValue
67.177

@<SCITEGIC>MOL_PROPERTY
E
SciTegic.value.DoubleValue
34.657

@<SCITEGIC>MOL_PROPERTY
-TS
SciTegic.value.DoubleValue
32.520

@<SCITEGIC>MOL_PROPERTY
U+W
SciTegic.value.DoubleValue
14.090

@<SCITEGIC>MOL_PROPERTY
U
SciTegic.value.DoubleValue
16.201

@<SCITEGIC>MOL_PROPERTY
W
SciTegic.value.DoubleValue
-2.111

@<SCITEGIC>MOL_PROPERTY
W(PB)
SciTegic.value.DoubleValue
-4.248

@<SCITEGIC>MOL_PROPERTY
W(SA)
SciTegic.value.DoubleValue
2.137

@<SCITEGIC>MOL_PROPERTY
Valence
SciTegic.value.DoubleValue
19.712

@<SCITEGIC>MOL_PROPERTY
Coulomb
SciTegic.value.DoubleValue
-6.683

@<SCITEGIC>MOL_PROPERTY
VdW
SciTegic.value.DoubleValue
3.171

@<SCITEGIC>MOL_PROPERTY
VdW6
SciTegic.value.DoubleValue
-13.375

@<SCITEGIC>MOL_PROPERTY
VdW12
SciTegic.value.DoubleValue
16.546

@<SCITEGIC>MOL_PROPERTY
Bond
SciTegic.value.DoubleValue
0.548

@<SCITEGIC>MOL_PROPERTY
Angle
SciTegic.value.DoubleValue
6.059

@<SCITEGIC>MOL_PROPERTY
Pdih
SciTegic.value.DoubleValue
13.105

@<SCITEGIC>MOL_PROPERTY
Idih
SciTegic.value.DoubleValue
0.000

@<SCITEGIC>MOL_PROPERTY
Tether
SciTegic.value.DoubleValue
0.000

@<TRIPOS>MOLECULE
guest-s17_vm2.mol2 : vm2 ligand conformer 112
          25          25           1
SMALL
USER_CHARGES
 
@<TRIPOS>ATOM
       1    C1      20.090153   19.096886   20.753535 C.3        1 MOL1        -0.1684
       2    H1      20.334817   19.665906   19.846321 H          1 MOL1         0.0833
       3    H2      19.467700   18.258079   20.414101 H          1 MOL1         0.0833
       4    C2      21.426402   18.544715   21.314947 C.3        1 MOL1        -0.1684
       5    H3      21.934054   18.014681   20.497565 H          1 MOL1         0.0833
       6    H4      22.099436   19.379156   21.534122 H          1 MOL1         0.0833
       7    C3      21.349955   17.560336   22.518047 C.3        1 MOL1        -0.1684
       8    H5      22.335744   17.514180   23.000236 H          1 MOL1         0.0833
       9    H6      21.177018   16.555473   22.109242 H          1 MOL1         0.0833
      10    C4      20.262656   17.801651   23.600661 C.3        1 MOL1        -0.1760
      11    H7      19.272131   17.708486   23.145955 H          1 MOL1         0.0833
      12    H8      20.309884   16.955942   24.298759 H          1 MOL1         0.0833
      13    C5      20.367294   19.093676   24.458757 C.3        1 MOL1         0.1219
      14    H9      21.105331   18.884988   25.246655 H          1 MOL1         0.0790
      15    C6      20.849200   20.391886   23.760943 C.3        1 MOL1        -0.1760
      16    H10     20.939574   21.162432   24.537548 H          1 MOL1         0.0833
      17    H11     21.880334   20.249037   23.426775 H          1 MOL1         0.0833
      18    C7      19.979314   20.994489   22.615212 C.3        1 MOL1        -0.1684
      19    H12     20.599865   21.676571   22.018950 H          1 MOL1         0.0833
      20    H13     19.215265   21.627581   23.086623 H          1 MOL1         0.0833
      21    C8      19.232204   20.021534   21.665380 C.3        1 MOL1        -0.1684
      22    H14     18.597368   20.627068   21.004476 H          1 MOL1         0.0833
      23    H15     18.511003   19.436840   22.244763 H          1 MOL1         0.0833
      24    O1      19.106822   19.337828   25.072518 O.3        1 MOL1        -0.5508
      25    H16     18.862009   18.518486   25.549376 H          1 MOL1         0.3780
@<TRIPOS>BOND
    1     1     2    1
    2     1     3    1
    3     1     4    1
    4     4     5    1
    5     4     6    1
    6     4     7    1
    7     7     8    1
    8     7     9    1
    9     7    10    1
   10    10    11    1
   11    10    12    1
   12    10    13    1
   13    13    14    1
   14    13    15    1
   15    15    16    1
   16    15    17    1
   17    15    18    1
   18    18    19    1
   19    18    20    1
   20     1    21    1
   21    18    21    1
   22    21    22    1
   23    21    23    1
   24    13    24    1
   25    24    25    1
@<TRIPOS>SUBSTRUCTURE
       1 MOL1            1 RESIDUE      1      MOL     
@<SCITEGIC>MOL_PROPERTY
VM2 Rank
SciTegic.value.IntegerValue
112

@<SCITEGIC>MOL_PROPERTY
Conf_Id
SciTegic.value.IntegerValue
91

@<SCITEGIC>MOL_PROPERTY
Probability
SciTegic.value.DoubleValue
0.00

@<SCITEGIC>MOL_PROPERTY
Sum Probability
SciTegic.value.DoubleValue
100.00

@<SCITEGIC>MOL_PROPERTY
Delta G
SciTegic.value.DoubleValue
5.128

@<SCITEGIC>MOL_PROPERTY
G
SciTegic.value.DoubleValue
67.204

@<SCITEGIC>MOL_PROPERTY
E
SciTegic.value.DoubleValue
34.496

@<SCITEGIC>MOL_PROPERTY
-TS
SciTegic.value.DoubleValue
32.708

@<SCITEGIC>MOL_PROPERTY
U+W
SciTegic.value.DoubleValue
13.928

@<SCITEGIC>MOL_PROPERTY
U
SciTegic.value.DoubleValue
16.068

@<SCITEGIC>MOL_PROPERTY
W
SciTegic.value.DoubleValue
-2.140

@<SCITEGIC>MOL_PROPERTY
W(PB)
SciTegic.value.DoubleValue
-4.259

@<SCITEGIC>MOL_PROPERTY
W(SA)
SciTegic.value.DoubleValue
2.119

@<SCITEGIC>MOL_PROPERTY
Valence
SciTegic.value.DoubleValue
18.913

@<SCITEGIC>MOL_PROPERTY
Coulomb
SciTegic.value.DoubleValue
-6.661

@<SCITEGIC>MOL_PROPERTY
VdW
SciTegic.value.DoubleValue
3.815

@<SCITEGIC>MOL_PROPERTY
VdW6
SciTegic.value.DoubleValue
-13.862

@<SCITEGIC>MOL_PROPERTY
VdW12
SciTegic.value.DoubleValue
17.677

@<SCITEGIC>MOL_PROPERTY
Bond
SciTegic.value.DoubleValue
0.725

@<SCITEGIC>MOL_PROPERTY
Angle
SciTegic.value.DoubleValue
9.705

@<SCITEGIC>MOL_PROPERTY
Pdih
SciTegic.value.DoubleValue
8.483

@<SCITEGIC>MOL_PROPERTY
Idih
SciTegic.value.DoubleValue
0.000

@<SCITEGIC>MOL_PROPERTY
Tether
SciTegic.value.DoubleValue
0.000

@<TRIPOS>MOLECULE
guest-s17_vm2.mol2 : vm2 ligand conformer 113
          25          25           1
SMALL
USER_CHARGES
 
@<TRIPOS>ATOM
       1    C1      20.111088   19.112911   20.750832 C.3        1 MOL1        -0.1684
       2    H1      19.079072   19.229378   20.393564 H          1 MOL1         0.0833
       3    H2      20.708455   18.895984   19.854854 H          1 MOL1         0.0833
       4    C2      20.184535   17.861335   21.673149 C.3        1 MOL1        -0.1684
       5    H3      19.255427   17.738768   22.238318 H          1 MOL1         0.0833
       6    H4      20.203332   16.979258   21.018878 H          1 MOL1         0.0833
       7    C3      21.389681   17.748596   22.643668 C.3        1 MOL1        -0.1684
       8    H5      22.321340   17.731030   22.062678 H          1 MOL1         0.0833
       9    H6      21.321764   16.761619   23.121233 H          1 MOL1         0.0833
      10    C4      21.525737   18.803769   23.784120 C.3        1 MOL1        -0.1760
      11    H7      22.137136   18.348743   24.574162 H          1 MOL1         0.0833
      12    H8      22.131722   19.651634   23.453637 H          1 MOL1         0.0833
      13    C5      20.237541   19.344374   24.457041 C.3        1 MOL1         0.1219
      14    H9      20.576797   20.031465   25.245612 H          1 MOL1         0.0790
      15    C6      19.237152   20.144814   23.576627 C.3        1 MOL1        -0.1760
      16    H10     18.499575   19.482156   23.114628 H          1 MOL1         0.0833
      17    H11     18.640848   20.762396   24.260594 H          1 MOL1         0.0833
      18    C7      19.821879   21.095523   22.496462 C.3        1 MOL1        -0.1684
      19    H12     20.454054   21.850178   22.983565 H          1 MOL1         0.0833
      20    H13     18.977018   21.653070   22.069697 H          1 MOL1         0.0833
      21    C8      20.612214   20.469784   21.310664 C.3        1 MOL1        -0.1684
      22    H14     20.585749   21.196651   20.487423 H          1 MOL1         0.0833
      23    H15     21.677593   20.392354   21.547884 H          1 MOL1         0.0833
      24    O1      19.544173   18.261894   25.067438 O.3        1 MOL1        -0.5508
      25    H16     18.771053   18.646643   25.528848 H          1 MOL1         0.3780
@<TRIPOS>BOND
    1     1     2    1
    2     1     3    1
    3     1     4    1
    4     4     5    1
    5     4     6    1
    6     4     7    1
    7     7     8    1
    8     7     9    1
    9     7    10    1
   10    10    11    1
   11    10    12    1
   12    10    13    1
   13    13    14    1
   14    13    15    1
   15    15    16    1
   16    15    17    1
   17    15    18    1
   18    18    19    1
   19    18    20    1
   20     1    21    1
   21    18    21    1
   22    21    22    1
   23    21    23    1
   24    13    24    1
   25    24    25    1
@<TRIPOS>SUBSTRUCTURE
       1 MOL1            1 RESIDUE      1      MOL     
@<SCITEGIC>MOL_PROPERTY
VM2 Rank
SciTegic.value.IntegerValue
113

@<SCITEGIC>MOL_PROPERTY
Conf_Id
SciTegic.value.IntegerValue
1534

@<SCITEGIC>MOL_PROPERTY
Probability
SciTegic.value.DoubleValue
0.00

@<SCITEGIC>MOL_PROPERTY
Sum Probability
SciTegic.value.DoubleValue
100.00

@<SCITEGIC>MOL_PROPERTY
Delta G
SciTegic.value.DoubleValue
5.158

@<SCITEGIC>MOL_PROPERTY
G
SciTegic.value.DoubleValue
67.233

@<SCITEGIC>MOL_PROPERTY
E
SciTegic.value.DoubleValue
34.525

@<SCITEGIC>MOL_PROPERTY
-TS
SciTegic.value.DoubleValue
32.708

@<SCITEGIC>MOL_PROPERTY
U+W
SciTegic.value.DoubleValue
13.957

@<SCITEGIC>MOL_PROPERTY
U
SciTegic.value.DoubleValue
16.068

@<SCITEGIC>MOL_PROPERTY
W
SciTegic.value.DoubleValue
-2.110

@<SCITEGIC>MOL_PROPERTY
W(PB)
SciTegic.value.DoubleValue
-4.237

@<SCITEGIC>MOL_PROPERTY
W(SA)
SciTegic.value.DoubleValue
2.127

@<SCITEGIC>MOL_PROPERTY
Valence
SciTegic.value.DoubleValue
18.913

@<SCITEGIC>MOL_PROPERTY
Coulomb
SciTegic.value.DoubleValue
-6.661

@<SCITEGIC>MOL_PROPERTY
VdW
SciTegic.value.DoubleValue
3.815

@<SCITEGIC>MOL_PROPERTY
VdW6
SciTegic.value.DoubleValue
-13.862

@<SCITEGIC>MOL_PROPERTY
VdW12
SciTegic.value.DoubleValue
17.677

@<SCITEGIC>MOL_PROPERTY
Bond
SciTegic.value.DoubleValue
0.725

@<SCITEGIC>MOL_PROPERTY
Angle
SciTegic.value.DoubleValue
9.706

@<SCITEGIC>MOL_PROPERTY
Pdih
SciTegic.value.DoubleValue
8.483

@<SCITEGIC>MOL_PROPERTY
Idih
SciTegic.value.DoubleValue
0.000

@<SCITEGIC>MOL_PROPERTY
Tether
SciTegic.value.DoubleValue
0.000

@<TRIPOS>MOLECULE
guest-s17_vm2.mol2 : vm2 ligand conformer 114
          25          25           1
SMALL
USER_CHARGES
 
@<TRIPOS>ATOM
       1    C1      20.151747   19.141079   20.753020 C.3        1 MOL1        -0.1684
       2    H1      19.448719   18.872273   19.953029 H          1 MOL1         0.0833
       3    H2      21.062390   19.483811   20.243326 H          1 MOL1         0.0833
       4    C2      20.465780   17.854069   21.557298 C.3        1 MOL1        -0.1684
       5    H3      19.559548   17.461865   22.033138 H          1 MOL1         0.0833
       6    H4      20.759348   17.085852   20.829088 H          1 MOL1         0.0833
       7    C3      21.623870   17.996608   22.577093 C.3        1 MOL1        -0.1684
       8    H5      22.299158   18.806097   22.279528 H          1 MOL1         0.0833
       9    H6      22.243551   17.092373   22.505575 H          1 MOL1         0.0833
      10    C4      21.219779   18.143421   24.070945 C.3        1 MOL1        -0.1760
      11    H7      20.930806   17.150958   24.440273 H          1 MOL1         0.0833
      12    H8      22.124324   18.404484   24.635285 H          1 MOL1         0.0833
      13    C5      20.101423   19.138402   24.483602 C.3        1 MOL1         0.1219
      14    H9      20.131891   19.154492   25.582651 H          1 MOL1         0.0790
      15    C6      20.262762   20.623249   24.061252 C.3        1 MOL1        -0.1760
      16    H10     19.365605   21.155725   24.403206 H          1 MOL1         0.0833
      17    H11     21.090915   21.050787   24.640707 H          1 MOL1         0.0833
      18    C7      20.491863   20.985440   22.567302 C.3        1 MOL1        -0.1684
      19    H12     21.536087   20.816104   22.283791 H          1 MOL1         0.0833
      20    H13     20.363622   22.073123   22.483108 H          1 MOL1         0.0833
      21    C8      19.533512   20.318921   21.548096 C.3        1 MOL1        -0.1684
      22    H14     18.594966   20.014621   22.027091 H          1 MOL1         0.0833
      23    H15     19.244301   21.084311   20.815284 H          1 MOL1         0.0833
      24    O1      18.813264   18.641812   24.141391 O.3        1 MOL1        -0.5508
      25    H16     18.807350   17.693385   24.378755 H          1 MOL1         0.3780
@<TRIPOS>BOND
    1     1     2    1
    2     1     3    1
    3     1     4    1
    4     4     5    1
    5     4     6    1
    6     4     7    1
    7     7     8    1
    8     7     9    1
    9     7    10    1
   10    10    11    1
   11    10    12    1
   12    10    13    1
   13    13    14    1
   14    13    15    1
   15    15    16    1
   16    15    17    1
   17    15    18    1
   18    18    19    1
   19    18    20    1
   20     1    21    1
   21    18    21    1
   22    21    22    1
   23    21    23    1
   24    13    24    1
   25    24    25    1
@<TRIPOS>SUBSTRUCTURE
       1 MOL1            1 RESIDUE      1      MOL     
@<SCITEGIC>MOL_PROPERTY
VM2 Rank
SciTegic.value.IntegerValue
114

@<SCITEGIC>MOL_PROPERTY
Conf_Id
SciTegic.value.IntegerValue
1555

@<SCITEGIC>MOL_PROPERTY
Probability
SciTegic.value.DoubleValue
0.00

@<SCITEGIC>MOL_PROPERTY
Sum Probability
SciTegic.value.DoubleValue
100.00

@<SCITEGIC>MOL_PROPERTY
Delta G
SciTegic.value.DoubleValue
5.540

@<SCITEGIC>MOL_PROPERTY
G
SciTegic.value.DoubleValue
67.615

@<SCITEGIC>MOL_PROPERTY
E
SciTegic.value.DoubleValue
34.890

@<SCITEGIC>MOL_PROPERTY
-TS
SciTegic.value.DoubleValue
32.725

@<SCITEGIC>MOL_PROPERTY
U+W
SciTegic.value.DoubleValue
14.323

@<SCITEGIC>MOL_PROPERTY
U
SciTegic.value.DoubleValue
16.213

@<SCITEGIC>MOL_PROPERTY
W
SciTegic.value.DoubleValue
-1.891

@<SCITEGIC>MOL_PROPERTY
W(PB)
SciTegic.value.DoubleValue
-4.002

@<SCITEGIC>MOL_PROPERTY
W(SA)
SciTegic.value.DoubleValue
2.111

@<SCITEGIC>MOL_PROPERTY
Valence
SciTegic.value.DoubleValue
19.752

@<SCITEGIC>MOL_PROPERTY
Coulomb
SciTegic.value.DoubleValue
-6.007

@<SCITEGIC>MOL_PROPERTY
VdW
SciTegic.value.DoubleValue
2.468

@<SCITEGIC>MOL_PROPERTY
VdW6
SciTegic.value.DoubleValue
-13.673

@<SCITEGIC>MOL_PROPERTY
VdW12
SciTegic.value.DoubleValue
16.142

@<SCITEGIC>MOL_PROPERTY
Bond
SciTegic.value.DoubleValue
0.503

@<SCITEGIC>MOL_PROPERTY
Angle
SciTegic.value.DoubleValue
8.543

@<SCITEGIC>MOL_PROPERTY
Pdih
SciTegic.value.DoubleValue
10.706

@<SCITEGIC>MOL_PROPERTY
Idih
SciTegic.value.DoubleValue
0.000

@<SCITEGIC>MOL_PROPERTY
Tether
SciTegic.value.DoubleValue
0.000

@<TRIPOS>MOLECULE
guest-s17_vm2.mol2 : vm2 ligand conformer 115
          25          25           1
SMALL
USER_CHARGES
 
@<TRIPOS>ATOM
       1    C1      20.151330   19.142343   20.753004 C.3        1 MOL1        -0.1684
       2    H1      19.449363   18.870794   19.953007 H          1 MOL1         0.0833
       3    H2      21.060969   19.487749   20.243324 H          1 MOL1         0.0833
       4    C2      20.469703   17.856670   21.557591 C.3        1 MOL1        -0.1684
       5    H3      19.564820   17.463797   22.036904 H          1 MOL1         0.0833
       6    H4      20.763930   17.087554   20.830700 H          1 MOL1         0.0833
       7    C3      21.626159   18.002076   22.578832 C.3        1 MOL1        -0.1684
       8    H5      22.294873   18.820443   22.291507 H          1 MOL1         0.0833
       9    H6      22.253120   17.103380   22.502327 H          1 MOL1         0.0833
      10    C4      21.210460   18.130673   24.070884 C.3        1 MOL1        -0.1760
      11    H7      20.892838   17.138977   24.418749 H          1 MOL1         0.0833
      12    H8      22.111972   18.365290   24.651077 H          1 MOL1         0.0833
      13    C5      20.102274   19.136045   24.483608 C.3        1 MOL1         0.1219
      14    H9      20.132913   19.151673   25.582659 H          1 MOL1         0.0790
      15    C6      20.278123   20.619893   24.061388 C.3        1 MOL1        -0.1760
      16    H10     19.401774   21.172100   24.424664 H          1 MOL1         0.0833
      17    H11     21.126104   21.029587   24.625226 H          1 MOL1         0.0833
      18    C7      20.486550   20.987997   22.565563 C.3        1 MOL1        -0.1684
      19    H12     21.529833   20.829589   22.271796 H          1 MOL1         0.0833
      20    H13     20.349189   22.075020   22.486345 H          1 MOL1         0.0833
      21    C8      19.528925   20.318279   21.547774 C.3        1 MOL1        -0.1684
      22    H14     18.589811   20.012539   22.023268 H          1 MOL1         0.0833
      23    H15     19.239844   21.082564   20.813655 H          1 MOL1         0.0833
      24    O1      18.810476   18.649024   24.141355 O.3        1 MOL1        -0.5508
      25    H16     18.175265   19.355312   24.372771 H          1 MOL1         0.3780
@<TRIPOS>BOND
    1     1     2    1
    2     1     3    1
    3     1     4    1
    4     4     5    1
    5     4     6    1
    6     4     7    1
    7     7     8    1
    8     7     9    1
    9     7    10    1
   10    10    11    1
   11    10    12    1
   12    10    13    1
   13    13    14    1
   14    13    15    1
   15    15    16    1
   16    15    17    1
   17    15    18    1
   18    18    19    1
   19    18    20    1
   20     1    21    1
   21    18    21    1
   22    21    22    1
   23    21    23    1
   24    13    24    1
   25    24    25    1
@<TRIPOS>SUBSTRUCTURE
       1 MOL1            1 RESIDUE      1      MOL     
@<SCITEGIC>MOL_PROPERTY
VM2 Rank
SciTegic.value.IntegerValue
115

@<SCITEGIC>MOL_PROPERTY
Conf_Id
SciTegic.value.IntegerValue
547

@<SCITEGIC>MOL_PROPERTY
Probability
SciTegic.value.DoubleValue
0.00

@<SCITEGIC>MOL_PROPERTY
Sum Probability
SciTegic.value.DoubleValue
100.00

@<SCITEGIC>MOL_PROPERTY
Delta G
SciTegic.value.DoubleValue
5.550

@<SCITEGIC>MOL_PROPERTY
G
SciTegic.value.DoubleValue
67.626

@<SCITEGIC>MOL_PROPERTY
E
SciTegic.value.DoubleValue
34.900

@<SCITEGIC>MOL_PROPERTY
-TS
SciTegic.value.DoubleValue
32.726

@<SCITEGIC>MOL_PROPERTY
U+W
SciTegic.value.DoubleValue
14.333

@<SCITEGIC>MOL_PROPERTY
U
SciTegic.value.DoubleValue
16.214

@<SCITEGIC>MOL_PROPERTY
W
SciTegic.value.DoubleValue
-1.881

@<SCITEGIC>MOL_PROPERTY
W(PB)
SciTegic.value.DoubleValue
-3.986

@<SCITEGIC>MOL_PROPERTY
W(SA)
SciTegic.value.DoubleValue
2.105

@<SCITEGIC>MOL_PROPERTY
Valence
SciTegic.value.DoubleValue
19.752

@<SCITEGIC>MOL_PROPERTY
Coulomb
SciTegic.value.DoubleValue
-6.006

@<SCITEGIC>MOL_PROPERTY
VdW
SciTegic.value.DoubleValue
2.468

@<SCITEGIC>MOL_PROPERTY
VdW6
SciTegic.value.DoubleValue
-13.673

@<SCITEGIC>MOL_PROPERTY
VdW12
SciTegic.value.DoubleValue
16.141

@<SCITEGIC>MOL_PROPERTY
Bond
SciTegic.value.DoubleValue
0.503

@<SCITEGIC>MOL_PROPERTY
Angle
SciTegic.value.DoubleValue
8.543

@<SCITEGIC>MOL_PROPERTY
Pdih
SciTegic.value.DoubleValue
10.705

@<SCITEGIC>MOL_PROPERTY
Idih
SciTegic.value.DoubleValue
0.000

@<SCITEGIC>MOL_PROPERTY
Tether
SciTegic.value.DoubleValue
0.000

@<TRIPOS>MOLECULE
guest-s17_vm2.mol2 : vm2 ligand conformer 116
          25          25           1
SMALL
USER_CHARGES
 
@<TRIPOS>ATOM
       1    C1      19.493723   18.821118   21.291048 C.3        1 MOL1        -0.1684
       2    H1      18.858677   18.261397   21.984177 H          1 MOL1         0.0833
       3    H2      19.002042   18.677597   20.319065 H          1 MOL1         0.0833
       4    C2      20.884747   18.141280   21.217361 C.3        1 MOL1        -0.1684
       5    H3      20.723145   17.121560   20.841887 H          1 MOL1         0.0833
       6    H4      21.497675   18.640242   20.454620 H          1 MOL1         0.0833
       7    C3      21.701153   18.027917   22.537214 C.3        1 MOL1        -0.1684
       8    H5      22.409591   18.857618   22.635140 H          1 MOL1         0.0833
       9    H6      22.346589   17.144464   22.438489 H          1 MOL1         0.0833
      10    C4      20.890230   17.874208   23.852439 C.3        1 MOL1        -0.1760
      11    H7      21.594516   17.513709   24.613339 H          1 MOL1         0.0833
      12    H8      20.159983   17.062106   23.739094 H          1 MOL1         0.0833
      13    C5      20.193340   19.130026   24.458792 C.3        1 MOL1         0.1219
      14    H9      20.408027   19.091709   25.536519 H          1 MOL1         0.0790
      15    C6      20.650558   20.537854   23.990079 C.3        1 MOL1        -0.1760
      16    H10     20.040234   21.266812   24.539786 H          1 MOL1         0.0833
      17    H11     21.674693   20.701247   24.349500 H          1 MOL1         0.0833
      18    C7      20.600701   20.927509   22.479780 C.3        1 MOL1        -0.1684
      19    H12     21.564975   20.723172   22.001778 H          1 MOL1         0.0833
      20    H13     20.521754   22.022368   22.436484 H          1 MOL1         0.0833
      21    C8      19.465528   20.346716   21.597166 C.3        1 MOL1        -0.1684
      22    H14     19.523421   20.868183   20.631778 H          1 MOL1         0.0833
      23    H15     18.488035   20.626024   22.012553 H          1 MOL1         0.0833
      24    O1      18.784019   19.036372   24.336120 O.3        1 MOL1        -0.5508
      25    H16     18.607335   19.286882   23.407010 H          1 MOL1         0.3780
@<TRIPOS>BOND
    1     1     2    1
    2     1     3    1
    3     1     4    1
    4     4     5    1
    5     4     6    1
    6     4     7    1
    7     7     8    1
    8     7     9    1
    9     7    10    1
   10    10    11    1
   11    10    12    1
   12    10    13    1
   13    13    14    1
   14    13    15    1
   15    15    16    1
   16    15    17    1
   17    15    18    1
   18    18    19    1
   19    18    20    1
   20     1    21    1
   21    18    21    1
   22    21    22    1
   23    21    23    1
   24    13    24    1
   25    24    25    1
@<TRIPOS>SUBSTRUCTURE
       1 MOL1            1 RESIDUE      1      MOL     
@<SCITEGIC>MOL_PROPERTY
VM2 Rank
SciTegic.value.IntegerValue
116

@<SCITEGIC>MOL_PROPERTY
Conf_Id
SciTegic.value.IntegerValue
76

@<SCITEGIC>MOL_PROPERTY
Probability
SciTegic.value.DoubleValue
0.00

@<SCITEGIC>MOL_PROPERTY
Sum Probability
SciTegic.value.DoubleValue
100.00

@<SCITEGIC>MOL_PROPERTY
Delta G
SciTegic.value.DoubleValue
7.422

@<SCITEGIC>MOL_PROPERTY
G
SciTegic.value.DoubleValue
69.498

@<SCITEGIC>MOL_PROPERTY
E
SciTegic.value.DoubleValue
36.284

@<SCITEGIC>MOL_PROPERTY
-TS
SciTegic.value.DoubleValue
33.214

@<SCITEGIC>MOL_PROPERTY
U+W
SciTegic.value.DoubleValue
15.716

@<SCITEGIC>MOL_PROPERTY
U
SciTegic.value.DoubleValue
16.593

@<SCITEGIC>MOL_PROPERTY
W
SciTegic.value.DoubleValue
-0.877

@<SCITEGIC>MOL_PROPERTY
W(PB)
SciTegic.value.DoubleValue
-2.981

@<SCITEGIC>MOL_PROPERTY
W(SA)
SciTegic.value.DoubleValue
2.104

@<SCITEGIC>MOL_PROPERTY
Valence
SciTegic.value.DoubleValue
22.340

@<SCITEGIC>MOL_PROPERTY
Coulomb
SciTegic.value.DoubleValue
-9.761

@<SCITEGIC>MOL_PROPERTY
VdW
SciTegic.value.DoubleValue
4.015

@<SCITEGIC>MOL_PROPERTY
VdW6
SciTegic.value.DoubleValue
-15.368

@<SCITEGIC>MOL_PROPERTY
VdW12
SciTegic.value.DoubleValue
19.383

@<SCITEGIC>MOL_PROPERTY
Bond
SciTegic.value.DoubleValue
0.782

@<SCITEGIC>MOL_PROPERTY
Angle
SciTegic.value.DoubleValue
10.778

@<SCITEGIC>MOL_PROPERTY
Pdih
SciTegic.value.DoubleValue
10.779

@<SCITEGIC>MOL_PROPERTY
Idih
SciTegic.value.DoubleValue
0.000

@<SCITEGIC>MOL_PROPERTY
Tether
SciTegic.value.DoubleValue
0.000

@<TRIPOS>MOLECULE
guest-s17_vm2.mol2 : vm2 ligand conformer 117
          25          25           1
SMALL
USER_CHARGES
 
@<TRIPOS>ATOM
       1    C1      19.466171   18.962354   21.277282 C.3        1 MOL1        -0.1684
       2    H1      18.608845   18.958081   21.956967 H          1 MOL1         0.0833
       3    H2      19.018548   18.745290   20.297682 H          1 MOL1         0.0833
       4    C2      20.452807   17.801971   21.596669 C.3        1 MOL1        -0.1684
       5    H3      19.900647   16.943403   22.001678 H          1 MOL1         0.0833
       6    H4      20.857423   17.452309   20.636839 H          1 MOL1         0.0833
       7    C3      21.673283   18.119301   22.499271 C.3        1 MOL1        -0.1684
       8    H5      22.266300   18.913138   22.032133 H          1 MOL1         0.0833
       9    H6      22.341595   17.248100   22.464769 H          1 MOL1         0.0833
      10    C4      21.428154   18.440838   24.006535 C.3        1 MOL1        -0.1760
      11    H7      21.446932   17.489426   24.554728 H          1 MOL1         0.0833
      12    H8      22.296793   18.997739   24.380782 H          1 MOL1         0.0833
      13    C5      20.144442   19.189348   24.456573 C.3        1 MOL1         0.1219
      14    H9      20.262564   19.358353   25.536636 H          1 MOL1         0.0790
      15    C6      19.841628   20.592399   23.848176 C.3        1 MOL1        -0.1760
      16    H10     18.758319   20.715285   23.717956 H          1 MOL1         0.0833
      17    H11     20.117010   21.327996   24.614994 H          1 MOL1         0.0833
      18    C7      20.570828   21.018344   22.545152 C.3        1 MOL1        -0.1684
      19    H12     21.649751   20.867834   22.659819 H          1 MOL1         0.0833
      20    H13     20.468688   22.107726   22.446985 H          1 MOL1         0.0833
      21    C8      20.056374   20.394288   21.215763 C.3        1 MOL1        -0.1684
      22    H14     19.264663   21.050465   20.829048 H          1 MOL1         0.0833
      23    H15     20.857946   20.429451   20.465654 H          1 MOL1         0.0833
      24    O1      19.030311   18.324157   24.314579 O.3        1 MOL1        -0.5508
      25    H16     19.079104   18.021393   23.385510 H          1 MOL1         0.3780
@<TRIPOS>BOND
    1     1     2    1
    2     1     3    1
    3     1     4    1
    4     4     5    1
    5     4     6    1
    6     4     7    1
    7     7     8    1
    8     7     9    1
    9     7    10    1
   10    10    11    1
   11    10    12    1
   12    10    13    1
   13    13    14    1
   14    13    15    1
   15    15    16    1
   16    15    17    1
   17    15    18    1
   18    18    19    1
   19    18    20    1
   20     1    21    1
   21    18    21    1
   22    21    22    1
   23    21    23    1
   24    13    24    1
   25    24    25    1
@<TRIPOS>SUBSTRUCTURE
       1 MOL1            1 RESIDUE      1      MOL     
@<SCITEGIC>MOL_PROPERTY
VM2 Rank
SciTegic.value.IntegerValue
117

@<SCITEGIC>MOL_PROPERTY
Conf_Id
SciTegic.value.IntegerValue
826

@<SCITEGIC>MOL_PROPERTY
Probability
SciTegic.value.DoubleValue
0.00

@<SCITEGIC>MOL_PROPERTY
Sum Probability
SciTegic.value.DoubleValue
100.00

@<SCITEGIC>MOL_PROPERTY
Delta G
SciTegic.value.DoubleValue
7.438

@<SCITEGIC>MOL_PROPERTY
G
SciTegic.value.DoubleValue
69.513

@<SCITEGIC>MOL_PROPERTY
E
SciTegic.value.DoubleValue
36.299

@<SCITEGIC>MOL_PROPERTY
-TS
SciTegic.value.DoubleValue
33.214

@<SCITEGIC>MOL_PROPERTY
U+W
SciTegic.value.DoubleValue
15.732

@<SCITEGIC>MOL_PROPERTY
U
SciTegic.value.DoubleValue
16.593

@<SCITEGIC>MOL_PROPERTY
W
SciTegic.value.DoubleValue
-0.862

@<SCITEGIC>MOL_PROPERTY
W(PB)
SciTegic.value.DoubleValue
-2.960

@<SCITEGIC>MOL_PROPERTY
W(SA)
SciTegic.value.DoubleValue
2.098

@<SCITEGIC>MOL_PROPERTY
Valence
SciTegic.value.DoubleValue
22.340

@<SCITEGIC>MOL_PROPERTY
Coulomb
SciTegic.value.DoubleValue
-9.762

@<SCITEGIC>MOL_PROPERTY
VdW
SciTegic.value.DoubleValue
4.015

@<SCITEGIC>MOL_PROPERTY
VdW6
SciTegic.value.DoubleValue
-15.368

@<SCITEGIC>MOL_PROPERTY
VdW12
SciTegic.value.DoubleValue
19.383

@<SCITEGIC>MOL_PROPERTY
Bond
SciTegic.value.DoubleValue
0.782

@<SCITEGIC>MOL_PROPERTY
Angle
SciTegic.value.DoubleValue
10.778

@<SCITEGIC>MOL_PROPERTY
Pdih
SciTegic.value.DoubleValue
10.780

@<SCITEGIC>MOL_PROPERTY
Idih
SciTegic.value.DoubleValue
0.000

@<SCITEGIC>MOL_PROPERTY
Tether
SciTegic.value.DoubleValue
0.000

@<TRIPOS>MOLECULE
guest-s17_vm2.mol2 : vm2 ligand conformer 118
          25          25           1
SMALL
USER_CHARGES
 
@<TRIPOS>ATOM
       1    C1      21.500065   19.573929   21.580259 C.3        1 MOL1        -0.1684
       2    H1      22.208197   19.868939   20.794282 H          1 MOL1         0.0833
       3    H2      22.120323   19.505696   22.479453 H          1 MOL1         0.0833
       4    C2      20.955225   18.165795   21.227161 C.3        1 MOL1        -0.1684
       5    H3      20.381436   18.216294   20.292081 H          1 MOL1         0.0833
       6    H4      21.825180   17.533092   21.004606 H          1 MOL1         0.0833
       7    C3      20.111810   17.433184   22.310731 C.3        1 MOL1        -0.1684
       8    H5      20.236454   16.355401   22.138979 H          1 MOL1         0.0833
       9    H6      19.040252   17.599892   22.157537 H          1 MOL1         0.0833
      10    C4      20.479896   17.721422   23.791668 C.3        1 MOL1        -0.1760
      11    H7      20.018764   16.925853   24.390924 H          1 MOL1         0.0833
      12    H8      21.560898   17.588443   23.930179 H          1 MOL1         0.0833
      13    C5      20.032880   19.072742   24.429661 C.3        1 MOL1         0.1219
      14    H9      19.612830   18.799654   25.408557 H          1 MOL1         0.0790
      15    C6      18.913647   19.900144   23.735218 C.3        1 MOL1        -0.1760
      16    H10     17.974768   19.338921   23.826440 H          1 MOL1         0.0833
      17    H11     18.758270   20.802327   24.340917 H          1 MOL1         0.0833
      18    C7      19.053260   20.352296   22.248941 C.3        1 MOL1        -0.1684
      19    H12     18.413018   21.235798   22.122250 H          1 MOL1         0.0833
      20    H13     18.603393   19.612109   21.578700 H          1 MOL1         0.0833
      21    C8      20.462493   20.722172   21.723556 C.3        1 MOL1        -0.1684
      22    H14     20.327450   21.168582   20.729076 H          1 MOL1         0.0833
      23    H15     20.890119   21.518212   22.347556 H          1 MOL1         0.0833
      24    O1      21.154724   19.901316   24.712804 O.3        1 MOL1        -0.5508
      25    H16     20.797305   20.773734   24.972583 H          1 MOL1         0.3780
@<TRIPOS>BOND
    1     1     2    1
    2     1     3    1
    3     1     4    1
    4     4     5    1
    5     4     6    1
    6     4     7    1
    7     7     8    1
    8     7     9    1
    9     7    10    1
   10    10    11    1
   11    10    12    1
   12    10    13    1
   13    13    14    1
   14    13    15    1
   15    15    16    1
   16    15    17    1
   17    15    18    1
   18    18    19    1
   19    18    20    1
   20     1    21    1
   21    18    21    1
   22    21    22    1
   23    21    23    1
   24    13    24    1
   25    24    25    1
@<TRIPOS>SUBSTRUCTURE
       1 MOL1            1 RESIDUE      1      MOL     
@<SCITEGIC>MOL_PROPERTY
VM2 Rank
SciTegic.value.IntegerValue
118

@<SCITEGIC>MOL_PROPERTY
Conf_Id
SciTegic.value.IntegerValue
1290

@<SCITEGIC>MOL_PROPERTY
Probability
SciTegic.value.DoubleValue
0.00

@<SCITEGIC>MOL_PROPERTY
Sum Probability
SciTegic.value.DoubleValue
100.00

@<SCITEGIC>MOL_PROPERTY
Delta G
SciTegic.value.DoubleValue
8.848

@<SCITEGIC>MOL_PROPERTY
G
SciTegic.value.DoubleValue
70.924

@<SCITEGIC>MOL_PROPERTY
E
SciTegic.value.DoubleValue
38.296

@<SCITEGIC>MOL_PROPERTY
-TS
SciTegic.value.DoubleValue
32.628

@<SCITEGIC>MOL_PROPERTY
U+W
SciTegic.value.DoubleValue
17.728

@<SCITEGIC>MOL_PROPERTY
U
SciTegic.value.DoubleValue
19.520

@<SCITEGIC>MOL_PROPERTY
W
SciTegic.value.DoubleValue
-1.792

@<SCITEGIC>MOL_PROPERTY
W(PB)
SciTegic.value.DoubleValue
-3.912

@<SCITEGIC>MOL_PROPERTY
W(SA)
SciTegic.value.DoubleValue
2.120

@<SCITEGIC>MOL_PROPERTY
Valence
SciTegic.value.DoubleValue
21.920

@<SCITEGIC>MOL_PROPERTY
Coulomb
SciTegic.value.DoubleValue
-6.404

@<SCITEGIC>MOL_PROPERTY
VdW
SciTegic.value.DoubleValue
4.004

@<SCITEGIC>MOL_PROPERTY
VdW6
SciTegic.value.DoubleValue
-14.821

@<SCITEGIC>MOL_PROPERTY
VdW12
SciTegic.value.DoubleValue
18.826

@<SCITEGIC>MOL_PROPERTY
Bond
SciTegic.value.DoubleValue
0.770

@<SCITEGIC>MOL_PROPERTY
Angle
SciTegic.value.DoubleValue
10.565

@<SCITEGIC>MOL_PROPERTY
Pdih
SciTegic.value.DoubleValue
10.585

@<SCITEGIC>MOL_PROPERTY
Idih
SciTegic.value.DoubleValue
0.000

@<SCITEGIC>MOL_PROPERTY
Tether
SciTegic.value.DoubleValue
0.000

@<TRIPOS>MOLECULE
guest-s17_vm2.mol2 : vm2 ligand conformer 119
          25          25           1
SMALL
USER_CHARGES
 
@<TRIPOS>ATOM
       1    C1      21.499292   19.574454   21.579291 C.3        1 MOL1        -0.1684
       2    H1      22.115668   19.509678   22.481097 H          1 MOL1         0.0833
       3    H2      22.209467   19.870022   20.795369 H          1 MOL1         0.0833
       4    C2      20.957209   18.165397   21.225914 C.3        1 MOL1        -0.1684
       5    H3      20.385492   18.214568   20.289482 H          1 MOL1         0.0833
       6    H4      21.828296   17.533344   21.005913 H          1 MOL1         0.0833
       7    C3      20.111788   17.433558   22.308207 C.3        1 MOL1        -0.1684
       8    H5      20.235896   16.355699   22.136300 H          1 MOL1         0.0833
       9    H6      19.040275   17.600209   22.155096 H          1 MOL1         0.0833
      10    C4      20.480169   17.721602   23.788440 C.3        1 MOL1        -0.1760
      11    H7      20.017073   16.925268   24.385550 H          1 MOL1         0.0833
      12    H8      21.560575   17.582480   23.923449 H          1 MOL1         0.0833
      13    C5      20.032100   19.072101   24.429661 C.3        1 MOL1         0.1219
      14    H9      19.604168   18.794264   25.403818 H          1 MOL1         0.0790
      15    C6      18.918950   19.908766   23.736222 C.3        1 MOL1        -0.1760
      16    H10     17.970665   19.367025   23.843712 H          1 MOL1         0.0833
      17    H11     18.793954   20.819485   24.336543 H          1 MOL1         0.0833
      18    C7      19.051644   20.349014   22.245649 C.3        1 MOL1        -0.1684
      19    H12     18.410002   21.231011   22.116258 H          1 MOL1         0.0833
      20    H13     18.601238   19.604951   21.580516 H          1 MOL1         0.0833
      21    C8      20.459516   20.720630   21.718685 C.3        1 MOL1        -0.1684
      22    H14     20.884608   21.516198   22.345527 H          1 MOL1         0.0833
      23    H15     20.324796   21.166981   20.724203 H          1 MOL1         0.0833
      24    O1      21.153331   19.897478   24.727931 O.3        1 MOL1        -0.5508
      25    H16     21.784843   19.344842   25.230742 H          1 MOL1         0.3780
@<TRIPOS>BOND
    1     1     2    1
    2     1     3    1
    3     1     4    1
    4     4     5    1
    5     4     6    1
    6     4     7    1
    7     7     8    1
    8     7     9    1
    9     7    10    1
   10    10    11    1
   11    10    12    1
   12    10    13    1
   13    13    14    1
   14    13    15    1
   15    15    16    1
   16    15    17    1
   17    15    18    1
   18    18    19    1
   19    18    20    1
   20     1    21    1
   21    18    21    1
   22    21    22    1
   23    21    23    1
   24    13    24    1
   25    24    25    1
@<TRIPOS>SUBSTRUCTURE
       1 MOL1            1 RESIDUE      1      MOL     
@<SCITEGIC>MOL_PROPERTY
VM2 Rank
SciTegic.value.IntegerValue
119

@<SCITEGIC>MOL_PROPERTY
Conf_Id
SciTegic.value.IntegerValue
1306

@<SCITEGIC>MOL_PROPERTY
Probability
SciTegic.value.DoubleValue
0.00

@<SCITEGIC>MOL_PROPERTY
Sum Probability
SciTegic.value.DoubleValue
100.00

@<SCITEGIC>MOL_PROPERTY
Delta G
SciTegic.value.DoubleValue
9.476

@<SCITEGIC>MOL_PROPERTY
G
SciTegic.value.DoubleValue
71.551

@<SCITEGIC>MOL_PROPERTY
E
SciTegic.value.DoubleValue
38.748

@<SCITEGIC>MOL_PROPERTY
-TS
SciTegic.value.DoubleValue
32.803

@<SCITEGIC>MOL_PROPERTY
U+W
SciTegic.value.DoubleValue
18.180

@<SCITEGIC>MOL_PROPERTY
U
SciTegic.value.DoubleValue
20.127

@<SCITEGIC>MOL_PROPERTY
W
SciTegic.value.DoubleValue
-1.947

@<SCITEGIC>MOL_PROPERTY
W(PB)
SciTegic.value.DoubleValue
-4.073

@<SCITEGIC>MOL_PROPERTY
W(SA)
SciTegic.value.DoubleValue
2.126

@<SCITEGIC>MOL_PROPERTY
Valence
SciTegic.value.DoubleValue
21.806

@<SCITEGIC>MOL_PROPERTY
Coulomb
SciTegic.value.DoubleValue
-5.640

@<SCITEGIC>MOL_PROPERTY
VdW
SciTegic.value.DoubleValue
3.961

@<SCITEGIC>MOL_PROPERTY
VdW6
SciTegic.value.DoubleValue
-14.712

@<SCITEGIC>MOL_PROPERTY
VdW12
SciTegic.value.DoubleValue
18.673

@<SCITEGIC>MOL_PROPERTY
Bond
SciTegic.value.DoubleValue
0.774

@<SCITEGIC>MOL_PROPERTY
Angle
SciTegic.value.DoubleValue
10.671

@<SCITEGIC>MOL_PROPERTY
Pdih
SciTegic.value.DoubleValue
10.361

@<SCITEGIC>MOL_PROPERTY
Idih
SciTegic.value.DoubleValue
0.000

@<SCITEGIC>MOL_PROPERTY
Tether
SciTegic.value.DoubleValue
0.000

